REMARK  Name = ZINC62474451
REMARK  7 active torsions:
REMARK  status: ('A' for Active; 'I' for Inactive)
REMARK    1  A    between atoms: C_1  and  N_2
REMARK    2  A    between atoms: N_2  and  C_3
REMARK    3  A    between atoms: N_2  and  C_4
REMARK    4  A    between atoms: C_4  and  C_5
REMARK    5  A    between atoms: C_4  and  C_25
REMARK    6  A    between atoms: C_5  and  N_6
REMARK    7  A    between atoms: C_12  and  C_15
REMARK                            x       y       z     vdW  Elec       q    Type
REMARK                         _______ _______ _______ _____ _____    ______ ____
ROOT
ATOM      1  N   UNL     1      -0.353  -4.308  -0.245  0.00  0.00    -0.300 N 
ATOM      2  C   UNL     1       0.465  -3.284   0.069  0.00  0.00    +0.302 C 
ATOM      3  O   UNL     1       0.207  -2.160  -0.318  0.00  0.00    -0.253 OA
ATOM      4  N   UNL     1       1.568  -3.505   0.810  0.00  0.00    -0.286 N 
ATOM      5  C   UNL     1       2.407  -2.384   1.257  0.00  0.00    +0.110 C 
ATOM      6  C   UNL     1       3.853  -2.649   0.828  0.00  0.00    +0.028 C 
ATOM      7  C   UNL     1       4.296  -4.015   1.357  0.00  0.00    +0.039 C 
ATOM      8  C   UNL     1       3.407  -5.108   0.759  0.00  0.00    +0.028 C 
ATOM      9  C   UNL     1       1.952  -4.871   1.192  0.00  0.00    +0.110 C 
ATOM     10  H   UNL     1      -0.188  -5.191   0.123  0.00  0.00    +0.150 HD
ENDROOT
BRANCH   7  11
ATOM     11  C   UNL     1       5.730  -4.265   0.967  0.00  0.00    +0.020 A 
ATOM     12  C   UNL     1       6.298  -3.857  -0.179  0.00  0.00    +0.031 A 
ATOM     13  C   UNL     1       7.692  -4.308  -0.150  0.00  0.00    -0.000 A 
ATOM     14  C   UNL     1       8.768  -4.193  -1.033  0.00  0.00    +0.010 A 
ATOM     15  C   UNL     1       9.976  -4.739  -0.703  0.00  0.00    +0.001 A 
ATOM     16  C   UNL     1      10.144  -5.406   0.502  0.00  0.00    +0.002 A 
ATOM     17  C   UNL     1       9.096  -5.531   1.388  0.00  0.00    +0.026 A 
ATOM     18  C   UNL     1       7.856  -4.983   1.073  0.00  0.00    +0.047 A 
ATOM     19  N   UNL     1       6.647  -4.935   1.730  0.00  0.00    -0.358 N 
ATOM     20  H   UNL     1       6.471  -5.320   2.602  0.00  0.00    +0.166 HD
ENDBRANCH   7  11
BRANCH   1  21
ATOM     21  C   UNL     1      -1.491  -4.089  -1.141  0.00  0.00    +0.098 C 
BRANCH  21  22
ATOM     22  C   UNL     1      -2.176  -5.426  -1.432  0.00  0.00    +0.016 C 
BRANCH  22  23
ATOM     23  C   UNL     1      -2.783  -5.966  -0.163  0.00  0.00    +0.093 A 
ATOM     24  C   UNL     1      -4.081  -5.887   0.183  0.00  0.00    +0.043 A 
ATOM     25  C   UNL     1      -4.208  -6.518   1.442  0.00  0.00    +0.041 A 
ATOM     26  C   UNL     1      -2.980  -6.944   1.790  0.00  0.00    +0.195 A 
ATOM     27  O   UNL     1      -2.123  -6.612   0.811  0.00  0.00    -0.469 OA
ENDBRANCH  22  23
BRANCH  22  29
ATOM     28  C   UNL     1      -1.860  -7.632  -2.321  0.00  0.00    -0.096 C 
ATOM     29  N   UNL     1      -1.185  -6.382  -1.946  0.00  0.00    +0.384 N 
ATOM     30  C   UNL     1      -0.520  -5.812  -3.124  0.00  0.00    -0.096 C 
ATOM     31  H   UNL     1      -0.499  -6.572  -1.231  0.00  0.00    -0.082 HD
ENDBRANCH  22  29
ENDBRANCH  21  22
ENDBRANCH   1  21
TORSDOF 5
