REMARK  Name = ZINC40986274
REMARK  14 active torsions:
REMARK  status: ('A' for Active; 'I' for Inactive)
REMARK    1  A    between atoms: C_1  and  C_2
REMARK    2  A    between atoms: C_2  and  C_3
REMARK    3  A    between atoms: C_3  and  C_4
REMARK    4  A    between atoms: C_4  and  S_5
REMARK    5  A    between atoms: S_5  and  C_8
REMARK    6  A    between atoms: C_11  and  C_15
REMARK    7  A    between atoms: N_17  and  C_18
REMARK    8  A    between atoms: C_18  and  C_19
REMARK    9  A    between atoms: C_19  and  C_21
REMARK   10  A    between atoms: C_19  and  N_31
REMARK   11  A    between atoms: C_24  and  C_27
REMARK   12  A    between atoms: C_27  and  C_28
REMARK   13  A    between atoms: C_27  and  C_29
REMARK   14  A    between atoms: C_27  and  C_30
REMARK                            x       y       z     vdW  Elec       q    Type
REMARK                         _______ _______ _______ _____ _____    ______ ____
ROOT
ATOM      1  C   UNL     1       1.262 -11.089  -3.780  0.00  0.00    +0.248 C 
ATOM      2  O   UNL     1       0.263 -10.547  -3.349  0.00  0.00    -0.270 OA
ATOM      3  N   UNL     1       2.333 -11.261  -2.979  0.00  0.00    -0.312 N 
ATOM      4  H   UNL     1       3.131 -11.693  -3.322  0.00  0.00    +0.149 HD
ENDROOT
BRANCH   1   8
ATOM      5  C   UNL     1       1.378 -12.412  -7.719  0.00  0.00    +0.272 A 
ATOM      6  N   UNL     1       2.437 -12.590  -6.953  0.00  0.00    -0.219 NA
ATOM      7  C   UNL     1       2.444 -12.185  -5.696  0.00  0.00    +0.130 A 
ATOM      8  C   UNL     1       1.304 -11.559  -5.180  0.00  0.00    +0.092 A 
ATOM      9  C   UNL     1       0.202 -11.391  -6.029  0.00  0.00    +0.146 A 
ATOM     10  N   UNL     1       0.285 -11.823  -7.277  0.00  0.00    -0.199 NA
ATOM     11 CL   UNL     1      -1.246 -10.622  -5.456  0.00  0.00    -0.061 Cl
BRANCH   5  12
ATOM     12  S   UNL     1       1.429 -12.973  -9.389  0.00  0.00    +0.032 S 
ATOM     13  O   UNL     1       0.071 -13.210  -9.733  0.00  0.00    -0.166 OA
ATOM     14  O   UNL     1       2.372 -14.036  -9.385  0.00  0.00    -0.166 OA
BRANCH  12  15
ATOM     15  C   UNL     1       2.077 -11.567 -10.333  0.00  0.00    +0.175 C 
BRANCH  15  16
ATOM     16  C   UNL     1       2.165 -11.944 -11.813  0.00  0.00    +0.023 C 
BRANCH  16  18
ATOM     17  C   UNL     1       2.800 -11.135 -14.091  0.00  0.00    +0.004 C 
ATOM     18  C   UNL     1       2.711 -10.758 -12.611  0.00  0.00    -0.002 C 
ENDBRANCH  16  18
ENDBRANCH  15  16
ENDBRANCH  12  15
ENDBRANCH   5  12
ENDBRANCH   1   8
BRANCH   3  19
ATOM     19  C   UNL     1       2.292 -10.795  -1.591  0.00  0.00    +0.094 C 
BRANCH  19  20
ATOM     20  C   UNL     1       3.570 -11.229  -0.870  0.00  0.00    -0.020 C 
BRANCH  20  21
ATOM     21  C   UNL     1       3.607 -12.732  -0.773  0.00  0.00    -0.059 A 
ATOM     22  C   UNL     1       2.871 -13.380   0.201  0.00  0.00    +0.002 A 
ATOM     23  C   UNL     1       2.905 -14.760   0.289  0.00  0.00    +0.004 A 
ATOM     24  C   UNL     1       3.674 -15.490  -0.597  0.00  0.00    -0.042 A 
ATOM     25  C   UNL     1       4.409 -14.842  -1.572  0.00  0.00    +0.004 A 
ATOM     26  C   UNL     1       4.372 -13.463  -1.663  0.00  0.00    +0.002 A 
BRANCH  24  27
ATOM     27  C   UNL     1       3.712 -16.994  -0.500  0.00  0.00    -0.013 C 
ATOM     28  C   UNL     1       2.300 -17.552  -0.688  0.00  0.00    +0.015 C 
ATOM     29  C   UNL     1       4.630 -17.552  -1.589  0.00  0.00    +0.015 C 
ATOM     30  C   UNL     1       4.244 -17.403   0.875  0.00  0.00    +0.015 C 
ENDBRANCH  24  27
ENDBRANCH  20  21
BRANCH  20  31
ATOM     31  N   UNL     1       3.590 -10.651   0.481  0.00  0.00    +0.385 N 
ATOM     32  C   UNL     1       4.832 -11.050   1.190  0.00  0.00    -0.078 C 
ATOM     33  C   UNL     1       4.977  -9.967   2.288  0.00  0.00    -0.020 C 
ATOM     34  C   UNL     1       4.501  -8.682   1.572  0.00  0.00    -0.020 C 
ATOM     35  C   UNL     1       3.627  -9.174   0.403  0.00  0.00    -0.078 C 
ATOM     36  H   UNL     1       2.779 -10.952   1.001  0.00  0.00    -0.081 HD
ENDBRANCH  20  31
ENDBRANCH  19  20
ENDBRANCH   3  19
TORSDOF 10
