REMARK  Name = ZINC38904792
REMARK  9 active torsions:
REMARK  status: ('A' for Active; 'I' for Inactive)
REMARK    1  A    between atoms: C_1  and  C_2
REMARK    2  A    between atoms: C_2  and  C_3
REMARK    3  A    between atoms: C_3  and  C_5
REMARK    4  A    between atoms: C_3  and  N_12
REMARK    5  A    between atoms: C_8  and  C_11
REMARK    6  A    between atoms: C_13  and  C_15
REMARK    7  A    between atoms: N_20  and  C_22
REMARK    8  A    between atoms: C_22  and  C_23
REMARK    9  A    between atoms: C_25  and  C_28
REMARK                            x       y       z     vdW  Elec       q    Type
REMARK                         _______ _______ _______ _____ _____    ______ ____
ROOT
ATOM      1  C   UNL     1      -0.688   1.503  -4.202  0.00  0.00    +0.058 C 
ATOM      2  C   UNL     1      -0.371   0.544  -5.353  0.00  0.00    +0.009 C 
ATOM      3  C   UNL     1      -1.123   1.000  -6.606  0.00  0.00    -0.018 C 
ATOM      4  C   UNL     1      -0.735   2.444  -6.931  0.00  0.00    -0.078 C 
ATOM      5  N   UNL     1      -1.087   3.315  -5.803  0.00  0.00    +0.386 N 
ATOM      6  C   UNL     1      -0.317   2.929  -4.615  0.00  0.00    -0.065 C 
ATOM      7  H   UNL     1      -2.073   3.226  -5.606  0.00  0.00    -0.081 HD
ENDROOT
BRANCH   1   9
ATOM      8  N   UNL     1      -0.055  -0.114  -2.441  0.00  0.00    -0.308 N 
ATOM      9  C   UNL     1       0.107   1.109  -2.984  0.00  0.00    +0.215 C 
ATOM     10  O   UNL     1       0.893   1.891  -2.493  0.00  0.00    -0.276 OA
ATOM     11  H   UNL     1      -0.683  -0.740  -2.833  0.00  0.00    +0.149 HD
BRANCH   8  12
ATOM     12  C   UNL     1       0.718  -0.497  -1.257  0.00  0.00    +0.103 C 
BRANCH  12  13
ATOM     13  C   UNL     1       0.847  -1.998  -1.206  0.00  0.00    -0.027 A 
ATOM     14  C   UNL     1      -0.227  -2.796  -1.552  0.00  0.00    +0.006 A 
ATOM     15  C   UNL     1      -0.108  -4.173  -1.505  0.00  0.00    +0.004 A 
ATOM     16  C   UNL     1       1.084  -4.751  -1.113  0.00  0.00    -0.050 A 
ATOM     17  C   UNL     1       2.159  -3.953  -0.767  0.00  0.00    +0.004 A 
ATOM     18  C   UNL     1       2.042  -2.576  -0.818  0.00  0.00    +0.006 A 
ATOM     19  C   UNL     1       1.213  -6.252  -1.060  0.00  0.00    +0.044 C 
ENDBRANCH  12  13
BRANCH  12  21
ATOM     20  C   UNL     1      -0.019   1.526   0.010  0.00  0.00    +0.006 C 
ATOM     21  C   UNL     1       0.002  -0.004   0.002  0.00  0.00    +0.024 C 
ENDBRANCH  12  21
ENDBRANCH   8  12
ENDBRANCH   1   9
BRANCH   5  22
ATOM     22  C   UNL     1      -0.784   4.710  -6.150  0.00  0.00    +0.022 C 
BRANCH  22  23
ATOM     23  C   UNL     1      -1.672   5.149  -7.286  0.00  0.00    +0.211 A 
ATOM     24  N   UNL     1      -2.843   5.706  -7.165  0.00  0.00    -0.193 NA
ATOM     25  C   UNL     1      -3.355   5.968  -8.381  0.00  0.00    +0.202 A 
ATOM     26  N   UNL     1      -2.499   5.574  -9.291  0.00  0.00    -0.056 NA
ATOM     27  O   UNL     1      -1.386   5.038  -8.590  0.00  0.00    -0.340 OA
BRANCH  25  28
ATOM     28  C   UNL     1      -4.672   6.600  -8.648  0.00  0.00    +0.023 A 
ATOM     29  C   UNL     1      -5.492   6.981  -7.588  0.00  0.00    +0.012 A 
ATOM     30  C   UNL     1      -6.715   7.567  -7.841  0.00  0.00    +0.002 A 
ATOM     31  C   UNL     1      -7.128   7.777  -9.145  0.00  0.00    +0.015 A 
ATOM     32  C   UNL     1      -6.318   7.401 -10.201  0.00  0.00    +0.019 A 
ATOM     33  C   UNL     1      -5.089   6.818  -9.959  0.00  0.00    +0.027 A 
ATOM     34 BR   UNL     1      -6.891   7.691 -11.980  0.00  0.00    -0.050 Br
ENDBRANCH  25  28
ENDBRANCH  22  23
ENDBRANCH   5  22
TORSDOF 7
