REMARK  Name = ZINC12998271
REMARK  4 active torsions:
REMARK  status: ('A' for Active; 'I' for Inactive)
REMARK    1  A    between atoms: C_4  and  N_7
REMARK    2  A    between atoms: C_16  and  C_18
REMARK    3  A    between atoms: N_20  and  N_21
REMARK    4  A    between atoms: C_22  and  C_24
REMARK                            x       y       z     vdW  Elec       q    Type
REMARK                         _______ _______ _______ _____ _____    ______ ____
ROOT
ATOM      1  C   UNL     1      -7.594   1.742   1.782  0.00  0.00    +0.281 C 
ATOM      2  O   UNL     1      -7.211   2.467   2.679  0.00  0.00    -0.267 OA
ATOM      3  N   UNL     1      -6.901   1.674   0.628  0.00  0.00    -0.229 N 
ATOM      4  H   UNL     1      -7.206   1.095  -0.088  0.00  0.00    +0.173 HD
ENDROOT
BRANCH   1  14
ATOM      5  N   UNL     1     -10.286  -0.579   1.064  0.00  0.00    -0.196 N 
ATOM      6  C   UNL     1     -11.088  -0.626   2.148  0.00  0.00    +0.280 A 
ATOM      7  O   UNL     1     -12.075  -1.339   2.161  0.00  0.00    -0.265 OA
ATOM      8  C   UNL     1     -10.744   0.203   3.310  0.00  0.00    +0.051 A 
ATOM      9  C   UNL     1     -11.506   0.226   4.474  0.00  0.00    +0.014 A 
ATOM     10  C   UNL     1     -11.115   1.032   5.522  0.00  0.00    +0.001 A 
ATOM     11  C   UNL     1      -9.973   1.817   5.426  0.00  0.00    +0.001 A 
ATOM     12  C   UNL     1      -9.205   1.808   4.281  0.00  0.00    +0.011 A 
ATOM     13  C   UNL     1      -9.581   1.002   3.212  0.00  0.00    +0.020 A 
ATOM     14  C   UNL     1      -8.818   0.935   1.956  0.00  0.00    +0.155 A 
ATOM     15  N   UNL     1      -9.240   0.154   0.991  0.00  0.00    -0.158 NA
BRANCH   5  19
ATOM     16  C   UNL     1     -11.276  -2.937  -2.225  0.00  0.00    +0.000 A 
ATOM     17  C   UNL     1     -10.975  -1.599  -2.401  0.00  0.00    +0.002 A 
ATOM     18  C   UNL     1     -10.647  -0.814  -1.312  0.00  0.00    +0.028 A 
ATOM     19  C   UNL     1     -10.618  -1.371  -0.040  0.00  0.00    +0.069 A 
ATOM     20  C   UNL     1     -10.915  -2.717   0.132  0.00  0.00    +0.028 A 
ATOM     21  C   UNL     1     -11.248  -3.494  -0.960  0.00  0.00    +0.002 A 
ENDBRANCH   5  19
ENDBRANCH   1  14
BRANCH   3  22
ATOM     22  N   UNL     1      -5.739   2.440   0.463  0.00  0.00    -0.234 N 
ATOM     23  C   UNL     1      -5.046   2.372  -0.691  0.00  0.00    +0.235 C 
ATOM     24  O   UNL     1      -5.428   1.649  -1.586  0.00  0.00    -0.274 OA
ATOM     25  H   UNL     1      -5.434   3.019   1.179  0.00  0.00    +0.173 HD
BRANCH  23  26
ATOM     26  C   UNL     1      -3.796   3.196  -0.869  0.00  0.00    +0.049 C 
ATOM     27  C   UNL     1      -3.207   2.936  -2.257  0.00  0.00    +0.019 C 
ATOM     28  C   UNL     1      -1.939   3.772  -2.437  0.00  0.00    -0.009 C 
ATOM     29  C   UNL     1      -0.916   3.384  -1.368  0.00  0.00    +0.007 C 
ATOM     30  C   UNL     1      -1.505   3.644   0.020  0.00  0.00    -0.009 C 
ATOM     31  C   UNL     1      -2.773   2.808   0.200  0.00  0.00    +0.019 C 
ATOM     32  C   UNL     1      -1.849   5.129   0.158  0.00  0.00    +0.007 C 
ATOM     33  C   UNL     1      -2.872   5.517  -0.911  0.00  0.00    -0.009 C 
ATOM     34  C   UNL     1      -2.283   5.257  -2.299  0.00  0.00    +0.007 C 
ATOM     35  C   UNL     1      -4.140   4.681  -0.731  0.00  0.00    +0.019 C 
ENDBRANCH  23  26
ENDBRANCH   3  22
TORSDOF 4
