REMARK  Name = ZINC08868888
REMARK  10 active torsions:
REMARK  status: ('A' for Active; 'I' for Inactive)
REMARK    1  A    between atoms: C_1  and  C_2
REMARK    2  A    between atoms: N_11  and  C_12
REMARK    3  A    between atoms: C_12  and  C_13
REMARK    4  A    between atoms: C_13  and  C_14
REMARK    5  A    between atoms: C_14  and  N_63
REMARK    6  A    between atoms: C_15  and  N_63
REMARK    7  A    between atoms: C_16  and  N_63
REMARK    8  A    between atoms: C_17  and  C_19
REMARK    9  A    between atoms: N_24  and  S_25
REMARK   10  A    between atoms: S_25  and  C_28
REMARK                            x       y       z     vdW  Elec       q    Type
REMARK                         _______ _______ _______ _____ _____    ______ ____
ROOT
ATOM      1  C   UNL     1      -0.665   4.480  -0.945  0.00  0.00    +0.044 C 
ATOM      2  C   UNL     1      -1.269   4.478   0.436  0.00  0.00    -0.049 A 
ATOM      3  C   UNL     1      -0.548   4.964   1.517  0.00  0.00    +0.005 A 
ATOM      4  C   UNL     1      -1.073   4.975   2.782  0.00  0.00    +0.029 A 
ATOM      5  C   UNL     1      -2.378   4.487   3.027  0.00  0.00    +0.080 A 
ATOM      6  C   UNL     1      -3.083   4.000   1.903  0.00  0.00    +0.041 A 
ATOM      7  C   UNL     1      -2.550   3.998   0.638  0.00  0.00    +0.020 A 
ATOM      8  S   UNL     1      -4.630   3.496   2.616  0.00  0.00    -0.052 S 
ATOM      9  C   UNL     1      -4.257   3.947   4.304  0.00  0.00    +0.168 A 
ATOM     10  N   UNL     1      -3.039   4.425   4.203  0.00  0.00    -0.224 NA
ATOM     11  N   UNL     1      -5.051   3.823   5.433  0.00  0.00    -0.249 N 
ATOM     12  C   UNL     1      -6.332   3.421   5.315  0.00  0.00    +0.240 C 
ATOM     13  O   UNL     1      -7.045   3.373   6.294  0.00  0.00    -0.273 OA
ENDROOT
BRANCH  12  14
ATOM     14  C   UNL     1      -6.877   3.030   3.965  0.00  0.00    +0.166 C 
ATOM     15  C   UNL     1      -6.342   1.639   3.566  0.00  0.00    +0.031 C 
ATOM     16  C   UNL     1      -7.499   0.690   3.977  0.00  0.00    +0.019 C 
ATOM     17  C   UNL     1      -8.741   1.560   3.663  0.00  0.00    +0.110 C 
ATOM     18  N   UNL     1      -8.343   2.932   4.028  0.00  0.00    -0.165 NA
BRANCH  18  19
ATOM     19  S   UNL     1      -9.375   4.159   4.440  0.00  0.00    +0.062 S 
ATOM     20  O   UNL     1     -10.567   3.546   4.913  0.00  0.00    -0.153 OA
ATOM     21  O   UNL     1      -8.625   5.074   5.228  0.00  0.00    -0.153 OA
BRANCH  19  22
ATOM     22  C   UNL     1      -9.800   5.005   2.954  0.00  0.00    +0.106 A 
ATOM     23  C   UNL     1      -9.036   6.075   2.526  0.00  0.00    +0.031 A 
ATOM     24  C   UNL     1      -9.364   6.735   1.357  0.00  0.00    +0.040 A 
ATOM     25  C   UNL     1     -10.466   6.333   0.622  0.00  0.00    +0.124 A 
ATOM     26  C   UNL     1     -11.234   5.265   1.054  0.00  0.00    +0.040 A 
ATOM     27  C   UNL     1     -10.900   4.602   2.220  0.00  0.00    +0.031 A 
ATOM     28  F   UNL     1     -10.792   6.982  -0.518  0.00  0.00    -0.205 F 
ENDBRANCH  19  22
ENDBRANCH  18  19
ENDBRANCH  12  14
BRANCH  11  29
ATOM     29  C   UNL     1      -4.498   4.130   6.755  0.00  0.00    +0.114 C 
BRANCH  29  30
ATOM     30  C   UNL     1      -4.577   5.638   7.002  0.00  0.00    +0.001 C 
BRANCH  30  31
ATOM     31  C   UNL     1      -3.964   5.963   8.366  0.00  0.00    -0.078 C 
BRANCH  31  34
ATOM     32  C   UNL     1      -5.434   7.851   8.734  0.00  0.00    -0.097 C 
ATOM     33  C   UNL     1      -3.255   7.791   9.787  0.00  0.00    -0.097 C 
ATOM     34  N   UNL     1      -4.028   7.424   8.582  0.00  0.00    +0.376 N 
ATOM     35  H   UNL     1      -3.621   7.899   7.767  0.00  0.00    -0.083 HD
ENDBRANCH  31  34
ENDBRANCH  30  31
ENDBRANCH  29  30
ENDBRANCH  11  29
TORSDOF 7
