REMARK  Name = ZINC37237621
REMARK  3 active torsions:
REMARK  status: ('A' for Active; 'I' for Inactive)
REMARK    1  A    between atoms: C_4  and  C_7
REMARK    2  A    between atoms: C_7  and  C_9
REMARK    3  A    between atoms: N_28  and  C_31
REMARK                            x       y       z     vdW  Elec       q    Type
REMARK                         _______ _______ _______ _____ _____    ______ ____
ROOT
ATOM      1  C   UNL     1       3.862  -2.226  -0.004  0.00  0.00    +0.141 C 
ATOM      2  C   UNL     1       3.717  -2.728  -1.456  0.00  0.00    +0.116 C 
ATOM      3  C   UNL     1       4.736  -3.895  -1.577  0.00  0.00    +0.113 C 
ATOM      4  C   UNL     1       5.403  -3.966  -0.192  0.00  0.00    +0.100 C 
ATOM      5  N   UNL     1       5.240  -2.631   0.398  0.00  0.00    -0.384 NA
ATOM      6  C   UNL     1       6.124  -1.704  -0.138  0.00  0.00    +0.054 C 
ATOM      7  C   UNL     1       7.341  -1.996  -0.563  0.00  0.00    +0.022 C 
ATOM      8  C   UNL     1       7.803  -3.398  -0.472  0.00  0.00    -0.019 A 
ATOM      9  C   UNL     1       6.842  -4.361  -0.310  0.00  0.00    -0.021 A 
ATOM     10  C   UNL     1       7.237  -5.679  -0.226  0.00  0.00    +0.006 A 
ATOM     11  C   UNL     1       8.577  -6.008  -0.333  0.00  0.00    +0.000 A 
ATOM     12  C   UNL     1       9.531  -5.024  -0.525  0.00  0.00    +0.001 A 
ATOM     13  C   UNL     1       9.144  -3.741  -0.564  0.00  0.00    +0.008 A 
ATOM     14  C   UNL     1       3.855  -5.105  -1.790  0.00  0.00    +0.232 C 
ATOM     15  O   UNL     1       4.249  -6.242  -1.935  0.00  0.00    -0.274 OA
ATOM     16  N   UNL     1       2.571  -4.726  -1.795  0.00  0.00    -0.210 N 
ATOM     17  C   UNL     1       2.373  -3.399  -1.619  0.00  0.00    +0.232 C 
ATOM     18  O   UNL     1       1.300  -2.835  -1.592  0.00  0.00    -0.274 OA
ATOM     19  H   UNL     1       5.318  -2.670   1.403  0.00  0.00    +0.127 HD
ENDROOT
BRANCH  16  20
ATOM     20  C   UNL     1       1.513  -5.630  -1.973  0.00  0.00    +0.048 A 
ATOM     21  C   UNL     1       1.241  -6.581  -0.999  0.00  0.00    +0.028 A 
ATOM     22  C   UNL     1       0.199  -7.471  -1.173  0.00  0.00    +0.051 A 
ATOM     23  C   UNL     1      -0.577  -7.419  -2.320  0.00  0.00    +0.166 A 
ATOM     24  C   UNL     1      -0.305  -6.466  -3.300  0.00  0.00    +0.168 A 
ATOM     25  C   UNL     1       0.736  -5.571  -3.121  0.00  0.00    +0.073 A 
ATOM     26  O   UNL     1      -1.200  -6.621  -4.319  0.00  0.00    -0.453 OA
ATOM     27  C   UNL     1      -1.762  -7.935  -4.142  0.00  0.00    +0.466 C 
ATOM     28  O   UNL     1      -1.643  -8.170  -2.726  0.00  0.00    -0.453 OA
ENDBRANCH  16  20
BRANCH   1  29
ATOM     29  C   UNL     1       3.717  -0.727   0.053  0.00  0.00    +0.183 C 
ATOM     30  O   UNL     1       3.703  -0.081  -0.973  0.00  0.00    -0.290 OA
BRANCH  29  34
ATOM     31  C   UNL     1       3.355   1.229   3.799  0.00  0.00    +0.000 A 
ATOM     32  C   UNL     1       3.452   1.977   2.638  0.00  0.00    +0.001 A 
ATOM     33  C   UNL     1       3.570   1.348   1.417  0.00  0.00    +0.011 A 
ATOM     34  C   UNL     1       3.592  -0.049   1.352  0.00  0.00    +0.019 A 
ATOM     35  C   UNL     1       3.494  -0.797   2.530  0.00  0.00    +0.011 A 
ATOM     36  C   UNL     1       3.376  -0.153   3.744  0.00  0.00    +0.001 A 
ENDBRANCH  29  34
ENDBRANCH   1  29
TORSDOF 3
