REMARK  Name = ZINC20322595
REMARK  6 active torsions:
REMARK  status: ('A' for Active; 'I' for Inactive)
REMARK    1  A    between atoms: C_1  and  C_2
REMARK    2  A    between atoms: C_3  and  C_32
REMARK    3  A    between atoms: C_4  and  C_20
REMARK    4  A    between atoms: C_10  and  C_15
REMARK    5  A    between atoms: C_32  and  O_34
REMARK    6  A    between atoms: O_34  and  C_35
REMARK                            x       y       z     vdW  Elec       q    Type
REMARK                         _______ _______ _______ _____ _____    ______ ____
ROOT
ATOM      1  C   UNL     1       3.286   4.800   1.816  0.00  0.00    +0.061 C 
ATOM      2  C   UNL     1       2.991   3.654   0.884  0.00  0.00    +0.016 C 
ATOM      3  C   UNL     1       4.001   3.027   0.256  0.00  0.00    +0.065 C 
ATOM      4  C   UNL     1       3.744   1.886  -0.684  0.00  0.00    +0.099 C 
ATOM      5  C   UNL     1       2.366   1.312  -0.474  0.00  0.00    +0.024 C 
ATOM      6  C   UNL     1       1.418   2.016   0.180  0.00  0.00    +0.016 C 
ATOM      7  N   UNL     1       1.698   3.259   0.681  0.00  0.00    -0.321 N 
ATOM      8  C   UNL     1       0.031   1.456   0.376  0.00  0.00    +0.062 C 
ATOM      9  C   UNL     1       0.102  -0.069   0.479  0.00  0.00    +0.068 C 
ATOM     10  C   UNL     1       0.747  -0.613  -0.800  0.00  0.00    +0.091 C 
ATOM     11  C   UNL     1       2.096   0.028  -0.979  0.00  0.00    +0.162 C 
ATOM     12  O   UNL     1       2.968  -0.575  -1.573  0.00  0.00    -0.292 OA
ATOM     13  H   UNL     1       0.870   3.942   0.922  0.00  0.00    +0.152 HD
ENDROOT
BRANCH   4  14
ATOM     14  C   UNL     1       3.864   2.379  -2.103  0.00  0.00    +0.047 A 
ATOM     15  C   UNL     1       3.033   3.334  -2.560  0.00  0.00    +0.204 A 
ATOM     16  O   UNL     1       3.096   3.814  -3.806  0.00  0.00    -0.462 OA
ATOM     17  C   UNL     1       3.993   3.367  -4.709  0.00  0.00    +0.138 A 
ATOM     18  C   UNL     1       4.028   3.883  -5.999  0.00  0.00    +0.048 A 
ATOM     19  C   UNL     1       4.954   3.410  -6.904  0.00  0.00    +0.023 A 
ATOM     20  C   UNL     1       5.858   2.420  -6.542  0.00  0.00    +0.042 A 
ATOM     21  C   UNL     1       5.840   1.895  -5.267  0.00  0.00    +0.035 A 
ATOM     22  C   UNL     1       4.907   2.365  -4.344  0.00  0.00    +0.066 A 
ATOM     23  C   UNL     1       4.849   1.834  -2.968  0.00  0.00    +0.197 A 
ATOM     24  O   UNL     1       5.615   0.964  -2.590  0.00  0.00    -0.287 OA
ATOM     25 CL   UNL     1       7.015   1.841  -7.699  0.00  0.00    -0.084 Cl
ENDBRANCH   4  14
BRANCH   9  26
ATOM     26  C   UNL     1      -1.288  -0.632   0.625  0.00  0.00    +0.109 A 
ATOM     27  C   UNL     1      -1.735  -1.364   1.661  0.00  0.00    +0.045 A 
ATOM     28  C   UNL     1      -3.086  -1.680   1.387  0.00  0.00    +0.041 A 
ATOM     29  C   UNL     1      -3.383  -1.122   0.199  0.00  0.00    +0.195 A 
ATOM     30  O   UNL     1      -2.292  -0.484  -0.255  0.00  0.00    -0.468 OA
ENDBRANCH   9  26
BRANCH   3  31
ATOM     31  C   UNL     1       5.331   3.451   0.486  0.00  0.00    +0.338 C 
ATOM     32  O   UNL     1       6.072   2.779   1.178  0.00  0.00    -0.245 OA
BRANCH  31  33
ATOM     33  O   UNL     1       5.777   4.601  -0.062  0.00  0.00    -0.458 OA
BRANCH  33  34
ATOM     34  C   UNL     1       7.130   4.968   0.212  0.00  0.00    +0.177 C 
ATOM     35  C   UNL     1       7.188   5.891   1.446  0.00  0.00    +0.044 C 
ATOM     36  C   UNL     1       8.305   6.909   1.108  0.00  0.00    +0.004 C 
ATOM     37  C   UNL     1       8.094   7.157  -0.406  0.00  0.00    +0.004 C 
ATOM     38  C   UNL     1       7.706   5.773  -0.966  0.00  0.00    +0.044 C 
ENDBRANCH  33  34
ENDBRANCH  31  33
ENDBRANCH   3  31
TORSDOF 5
