REMARK  Name = ZINC65021947
REMARK  3 active torsions:
REMARK  status: ('A' for Active; 'I' for Inactive)
REMARK    1  A    between atoms: N_7  and  S_8
REMARK    2  A    between atoms: S_8  and  C_11
REMARK    3  A    between atoms: C_20  and  C_23
REMARK                            x       y       z     vdW  Elec       q    Type
REMARK                         _______ _______ _______ _____ _____    ______ ____
ROOT
ATOM      1  C   UNL     1       2.422  -4.497  -0.078  0.00  0.00    +0.114 A 
ATOM      2  C   UNL     1       2.301  -5.168   1.126  0.00  0.00    +0.030 A 
ATOM      3  C   UNL     1       2.027  -6.523   1.134  0.00  0.00    +0.018 A 
ATOM      4  C   UNL     1       1.878  -7.204  -0.063  0.00  0.00    +0.030 A 
ATOM      5  C   UNL     1       2.006  -6.537  -1.280  0.00  0.00    +0.049 A 
ATOM      6  C   UNL     1       2.270  -5.170  -1.273  0.00  0.00    +0.053 A 
ATOM      7  N   UNL     1       1.884  -7.198  -2.499  0.00  0.00    -0.283 N 
ATOM      8  C   UNL     1       1.940  -8.511  -2.698  0.00  0.00    +0.240 C 
ATOM      9  O   UNL     1       1.704  -8.936  -3.809  0.00  0.00    -0.274 OA
ATOM     10  C   UNL     1       2.282  -9.496  -1.611  0.00  0.00    +0.223 C 
ATOM     11  S   UNL     1       1.518  -8.933  -0.060  0.00  0.00    -0.101 S 
ATOM     12  H   UNL     1       1.744  -6.644  -3.283  0.00  0.00    +0.155 HD
ENDROOT
BRANCH  10  13
ATOM     13  C   UNL     1       3.779  -9.569  -1.446  0.00  0.00    +0.238 C 
ATOM     14  O   UNL     1       4.462  -8.595  -1.680  0.00  0.00    -0.274 OA
ATOM     15  N   UNL     1       4.357 -10.716  -1.039  0.00  0.00    -0.300 N 
ATOM     16  C   UNL     1       3.531 -11.893  -0.887  0.00  0.00    +0.108 C 
ATOM     17  C   UNL     1       2.959 -11.943   0.552  0.00  0.00    +0.019 C 
ATOM     18  C   UNL     1       4.025 -12.265   1.514  0.00  0.00    +0.002 C 
ATOM     19  C   UNL     1       5.140 -11.226   1.587  0.00  0.00    +0.002 C 
ATOM     20  C   UNL     1       6.157 -11.507   0.509  0.00  0.00    +0.019 C 
ATOM     21  C   UNL     1       5.809 -10.721  -0.773  0.00  0.00    +0.108 C 
ENDBRANCH  10  13
BRANCH   1  22
ATOM     22  S   UNL     1       2.765  -2.768  -0.085  0.00  0.00    +0.101 S 
ATOM     23  O   UNL     1       3.365  -2.479  -1.340  0.00  0.00    -0.146 OA
ATOM     24  O   UNL     1       3.404  -2.476   1.151  0.00  0.00    -0.146 OA
BRANCH  22  31
ATOM     25  C   UNL     1       0.016   1.373  -0.048  0.00  0.00    +0.005 A 
ATOM     26  C   UNL     1       1.229   2.083  -0.067  0.00  0.00    +0.018 A 
ATOM     27  C   UNL     1       2.406   1.422  -0.084  0.00  0.00    +0.084 A 
ATOM     28  N   UNL     1       2.441   0.060  -0.082  0.00  0.00    -0.345 N 
ATOM     29  C   UNL     1       1.273  -0.663  -0.064  0.00  0.00    +0.153 A 
ATOM     30  C   UNL     1       0.031   0.015  -0.046  0.00  0.00    +0.048 A 
ATOM     31  N   UNL     1       1.309  -1.980  -0.063  0.00  0.00    -0.111 NA
ATOM     32  H   UNL     1       3.294  -0.401  -0.095  0.00  0.00    +0.167 HD
ENDBRANCH  22  31
ENDBRANCH   1  22
TORSDOF 3
