REMARK  Name = ZINC15902305
REMARK  7 active torsions:
REMARK  status: ('A' for Active; 'I' for Inactive)
REMARK    1  A    between atoms: C_1  and  C_2
REMARK    2  A    between atoms: N_8  and  S_9
REMARK    3  A    between atoms: S_9  and  C_12
REMARK    4  A    between atoms: C_15  and  C_18
REMARK    5  A    between atoms: N_20  and  N_21
REMARK    6  A    between atoms: C_22  and  C_24
REMARK    7  A    between atoms: C_24  and  C_25
REMARK                            x       y       z     vdW  Elec       q    Type
REMARK                         _______ _______ _______ _____ _____    ______ ____
ROOT
ATOM      1  C   UNL     1      -3.684   2.091  -1.053  0.00  0.00    +0.260 C 
ATOM      2  O   UNL     1      -4.078   3.225  -1.245  0.00  0.00    -0.269 OA
ATOM      3  N   UNL     1      -4.561   1.067  -1.032  0.00  0.00    -0.230 N 
ATOM      4  H   UNL     1      -4.246   0.163  -0.879  0.00  0.00    +0.173 HD
ENDROOT
BRANCH   1   8
ATOM      5  C   UNL     1       0.456   1.354  -0.449  0.00  0.00    +0.106 A 
ATOM      6  C   UNL     1      -0.442   0.301  -0.426  0.00  0.00    +0.029 A 
ATOM      7  C   UNL     1      -1.787   0.533  -0.626  0.00  0.00    +0.015 A 
ATOM      8  C   UNL     1      -2.243   1.834  -0.843  0.00  0.00    +0.038 A 
ATOM      9  C   UNL     1      -1.332   2.892  -0.864  0.00  0.00    +0.015 A 
ATOM     10  C   UNL     1       0.011   2.646  -0.667  0.00  0.00    +0.029 A 
BRANCH   5  11
ATOM     11  S   UNL     1       2.173   1.048  -0.198  0.00  0.00    +0.061 S 
ATOM     12  O   UNL     1       2.736   2.263   0.277  0.00  0.00    -0.153 OA
ATOM     13  O   UNL     1       2.267  -0.170   0.528  0.00  0.00    -0.153 OA
BRANCH  11  20
ATOM     14  C   UNL     1       2.208  -1.567  -1.281  0.00  0.00    +0.026 C 
ATOM     15  C   UNL     1       2.787  -0.573  -2.289  0.00  0.00    +0.077 C 
ATOM     16  C   UNL     1       4.202  -1.003  -2.675  0.00  0.00    +0.020 C 
ATOM     17  C   UNL     1       4.831   0.066  -3.571  0.00  0.00    +0.003 C 
ATOM     18  C   UNL     1       4.918   1.389  -2.806  0.00  0.00    +0.017 C 
ATOM     19  C   UNL     1       3.507   1.847  -2.425  0.00  0.00    +0.110 C 
ATOM     20  N   UNL     1       2.842   0.766  -1.686  0.00  0.00    -0.174 NA
ENDBRANCH  11  20
ENDBRANCH   5  11
ENDBRANCH   1   8
BRANCH   3  21
ATOM     21  N   UNL     1      -5.926   1.310  -1.231  0.00  0.00    -0.234 N 
ATOM     22  C   UNL     1      -6.803   0.287  -1.210  0.00  0.00    +0.230 C 
ATOM     23  O   UNL     1      -6.410  -0.844  -1.019  0.00  0.00    -0.274 OA
ATOM     24  H   UNL     1      -6.240   2.215  -1.385  0.00  0.00    +0.173 HD
BRANCH  22  25
ATOM     25  C   UNL     1      -8.271   0.548  -1.425  0.00  0.00    +0.104 C 
BRANCH  25  26
ATOM     26  C   UNL     1      -9.040  -0.772  -1.353  0.00  0.00    -0.020 C 
ATOM     27  C   UNL     1      -8.527  -1.721  -2.438  0.00  0.00    +0.011 C 
ATOM     28  C   UNL     1      -9.296  -3.042  -2.366  0.00  0.00    -0.010 C 
ATOM     29  C   UNL     1     -10.787  -2.776  -2.583  0.00  0.00    +0.007 C 
ATOM     30  C   UNL     1     -11.300  -1.828  -1.498  0.00  0.00    -0.010 C 
ATOM     31  C   UNL     1     -10.531  -0.507  -1.570  0.00  0.00    +0.011 C 
ATOM     32  C   UNL     1     -11.091  -2.465  -0.123  0.00  0.00    +0.007 C 
ATOM     33  C   UNL     1      -9.600  -2.731   0.095  0.00  0.00    -0.010 C 
ATOM     34  C   UNL     1      -9.087  -3.679  -0.991  0.00  0.00    +0.007 C 
ATOM     35  C   UNL     1      -8.831  -1.410   0.023  0.00  0.00    +0.011 C 
ENDBRANCH  25  26
ENDBRANCH  22  25
ENDBRANCH   3  21
TORSDOF 6
