REMARK  Name = ZINC01783732
REMARK  15 active torsions:
REMARK  status: ('A' for Active; 'I' for Inactive)
REMARK    1  A    between atoms: C_1  and  C_2
REMARK    2  A    between atoms: C_5  and  S_8
REMARK    3  A    between atoms: S_8  and  N_11
REMARK    4  A    between atoms: N_11  and  C_12
REMARK    5  A    between atoms: N_11  and  C_31
REMARK    6  A    between atoms: C_12  and  C_13
REMARK    7  A    between atoms: C_13  and  C_15
REMARK    8  A    between atoms: C_13  and  O_30
REMARK    9  A    between atoms: C_15  and  N_72
REMARK   10  A    between atoms: C_16  and  C_17
REMARK   11  A    between atoms: C_16  and  N_72
REMARK   12  A    between atoms: C_23  and  C_24
REMARK   13  A    between atoms: C_23  and  N_72
REMARK   14  A    between atoms: C_34  and  O_37
REMARK   15  A    between atoms: O_37  and  C_38
REMARK                            x       y       z     vdW  Elec       q    Type
REMARK                         _______ _______ _______ _____ _____    ______ ____
ROOT
ATOM      1  C   UNL     1       1.834  -2.619  -0.878  0.00  0.00    +0.161 C 
ENDROOT
BRANCH   1   2
ATOM      2  N   UNL     1       0.966  -1.884   0.046  0.00  0.00    -0.201 N 
BRANCH   2   3
ATOM      3  C   UNL     1       1.164  -0.514   0.252  0.00  0.00    +0.052 A 
ATOM      4  C   UNL     1       0.144   0.264   0.783  0.00  0.00    +0.028 A 
ATOM      5  C   UNL     1       0.341   1.615   0.987  0.00  0.00    +0.047 A 
ATOM      6  C   UNL     1       1.558   2.196   0.662  0.00  0.00    +0.120 A 
ATOM      7  C   UNL     1       2.578   1.420   0.131  0.00  0.00    +0.047 A 
ATOM      8  C   UNL     1       2.382   0.068  -0.073  0.00  0.00    +0.028 A 
BRANCH   6   9
ATOM      9  O   UNL     1       1.751   3.527   0.862  0.00  0.00    -0.495 OA
ATOM     10  C   UNL     1       3.028   4.059   0.505  0.00  0.00    +0.277 C 
ENDBRANCH   6   9
ENDBRANCH   2   3
BRANCH   2  11
ATOM     11  S   UNL     1      -0.250  -2.674   0.845  0.00  0.00    +0.075 S 
ATOM     12  O   UNL     1       0.164  -4.026   0.980  0.00  0.00    -0.150 OA
ATOM     13  O   UNL     1      -0.592  -1.867   1.964  0.00  0.00    -0.150 OA
BRANCH  11  18
ATOM     14  C   UNL     1      -5.060  -2.698  -2.797  0.00  0.00    +0.044 C 
ATOM     15  C   UNL     1      -3.859  -2.692  -1.887  0.00  0.00    -0.050 A 
ATOM     16  C   UNL     1      -2.924  -3.707  -1.970  0.00  0.00    +0.005 A 
ATOM     17  C   UNL     1      -1.822  -3.701  -1.136  0.00  0.00    +0.029 A 
ATOM     18  C   UNL     1      -1.655  -2.681  -0.219  0.00  0.00    +0.109 A 
ATOM     19  C   UNL     1      -2.592  -1.668  -0.132  0.00  0.00    +0.029 A 
ATOM     20  C   UNL     1      -3.692  -1.672  -0.970  0.00  0.00    +0.005 A 
ENDBRANCH  11  18
ENDBRANCH   2  11
ENDBRANCH   1   2
BRANCH   1  21
ATOM     21  C   UNL     1       3.100  -3.062  -0.144  0.00  0.00    +0.117 C 
BRANCH  21  22
ATOM     22  O   UNL     1       2.755  -4.000   0.878  0.00  0.00    -0.392 OA
ATOM     23  H   UNL     1       2.347  -4.811   0.545  0.00  0.00    +0.210 HD
ENDBRANCH  21  22
BRANCH  21  24
ATOM     24  C   UNL     1       4.061  -3.720  -1.136  0.00  0.00    -0.045 C 
BRANCH  24  25
ATOM     25  N   UNL     1       5.350  -3.964  -0.455  0.00  0.00    +0.387 N 
ATOM     26  H   UNL     1       5.566  -3.163   0.149  0.00  0.00    -0.081 HD
BRANCH  25  27
ATOM     27  C   UNL     1       5.258  -5.182   0.378  0.00  0.00    -0.042 C 
BRANCH  27  28
ATOM     28  C   UNL     1       5.027  -6.396  -0.485  0.00  0.00    -0.064 A 
ATOM     29  C   UNL     1       3.743  -6.734  -0.871  0.00  0.00    +0.002 A 
ATOM     30  C   UNL     1       3.531  -7.845  -1.667  0.00  0.00    +0.000 A 
ATOM     31  C   UNL     1       4.601  -8.623  -2.067  0.00  0.00    +0.000 A 
ATOM     32  C   UNL     1       5.884  -8.288  -1.676  0.00  0.00    +0.000 A 
ATOM     33  C   UNL     1       6.097  -7.174  -0.885  0.00  0.00    +0.002 A 
ENDBRANCH  27  28
ENDBRANCH  25  27
BRANCH  25  34
ATOM     34  C   UNL     1       6.429  -4.116  -1.454  0.00  0.00    -0.042 C 
BRANCH  34  35
ATOM     35  C   UNL     1       7.747  -3.813  -0.790  0.00  0.00    -0.064 A 
ATOM     36  C   UNL     1       8.193  -2.507  -0.701  0.00  0.00    +0.002 A 
ATOM     37  C   UNL     1       9.399  -2.229  -0.087  0.00  0.00    +0.000 A 
ATOM     38  C   UNL     1      10.166  -3.257   0.429  0.00  0.00    +0.000 A 
ATOM     39  C   UNL     1       9.723  -4.564   0.335  0.00  0.00    +0.000 A 
ATOM     40  C   UNL     1       8.513  -4.841  -0.274  0.00  0.00    +0.002 A 
ENDBRANCH  34  35
ENDBRANCH  25  34
ENDBRANCH  24  25
ENDBRANCH  21  24
ENDBRANCH   1  21
TORSDOF 13
