REMARK  Name = ZINC31644622
REMARK  5 active torsions:
REMARK  status: ('A' for Active; 'I' for Inactive)
REMARK    1  A    between atoms: C_5  and  C_7
REMARK    2  A    between atoms: C_10  and  S_13
REMARK    3  A    between atoms: N_11  and  N_12
REMARK    4  A    between atoms: S_13  and  C_14
REMARK    5  A    between atoms: C_14  and  C_15
REMARK                            x       y       z     vdW  Elec       q    Type
REMARK                         _______ _______ _______ _____ _____    ______ ____
ROOT
ATOM      1  C   UNL     1       1.249  -2.160  -0.021  0.00  0.00    +0.183 A 
ATOM      2  N   UNL     1       2.319  -2.921  -0.030  0.00  0.00    -0.127 NA
ATOM      3  N   UNL     1       1.977  -4.160  -0.035  0.00  0.00    -0.121 NA
ATOM      4  C   UNL     1       0.667  -4.266  -0.029  0.00  0.00    +0.209 A 
ATOM      5  N   UNL     1       0.158  -2.999  -0.015  0.00  0.00    -0.224 N 
ENDROOT
BRANCH   1  10
ATOM      6  C   UNL     1      -0.017   1.375   0.010  0.00  0.00    +0.001 A 
ATOM      7  C   UNL     1       1.170   2.087   0.002  0.00  0.00    +0.001 A 
ATOM      8  C   UNL     1       2.383   1.421  -0.013  0.00  0.00    +0.016 A 
ATOM      9  C   UNL     1       2.416   0.041  -0.021  0.00  0.00    +0.029 A 
ATOM     10  C   UNL     1       1.222  -0.682  -0.013  0.00  0.00    +0.035 A 
ATOM     11  C   UNL     1       0.002  -0.004   0.002  0.00  0.00    +0.013 A 
ATOM     12 BR   UNL     1       4.075  -0.867  -0.043  0.00  0.00    -0.050 Br
ENDBRANCH   1  10
BRANCH   5  13
ATOM     13  N   UNL     1      -1.159  -2.638  -0.001  0.00  0.00    -0.295 N 
ATOM     14  H   UNL     1      -1.517  -2.538  -0.939  0.00  0.00    +0.163 HD
ATOM     15  H   UNL     1      -1.709  -3.299   0.528  0.00  0.00    +0.163 HD
ENDBRANCH   5  13
BRANCH   4  16
ATOM     16  S   UNL     1      -0.260  -5.764  -0.032  0.00  0.00    -0.078 S 
BRANCH  16  17
ATOM     17  C   UNL     1       1.006  -7.064  -0.044  0.00  0.00    +0.132 C 
BRANCH  17  18
ATOM     18  C   UNL     1       0.339  -8.415  -0.047  0.00  0.00    +0.051 A 
ATOM     19  C   UNL     1       0.037  -9.031   1.153  0.00  0.00    +0.024 A 
ATOM     20  C   UNL     1      -0.576 -10.274   1.139  0.00  0.00    +0.003 A 
ATOM     21  C   UNL     1      -0.865 -10.854  -0.087  0.00  0.00    +0.020 A 
ATOM     22  C   UNL     1      -0.533 -10.178  -1.246  0.00  0.00    +0.111 A 
ATOM     23  N   UNL     1       0.046  -8.994  -1.195  0.00  0.00    -0.259 NA
ENDBRANCH  17  18
ENDBRANCH  16  17
ENDBRANCH   4  16
TORSDOF 5
