REMARK  Name = ZINC00641948
REMARK  14 active torsions:
REMARK  status: ('A' for Active; 'I' for Inactive)
REMARK    1  A    between atoms: C_1  and  C_2
REMARK    2  A    between atoms: C_2  and  C_3
REMARK    3  A    between atoms: C_4  and  C_29
REMARK    4  A    between atoms: C_5  and  C_23
REMARK    5  A    between atoms: C_8  and  C_9
REMARK    6  A    between atoms: C_9  and  C_10
REMARK    7  A    between atoms: C_11  and  C_22
REMARK    8  A    between atoms: C_12  and  C_17
REMARK    9  A    between atoms: C_13  and  C_16
REMARK   10  A    between atoms: C_17  and  O_19
REMARK   11  A    between atoms: O_19  and  C_20
REMARK   12  A    between atoms: C_20  and  C_21
REMARK   13  A    between atoms: C_24  and  C_25
REMARK   14  A    between atoms: C_24  and  C_27
REMARK                            x       y       z     vdW  Elec       q    Type
REMARK                         _______ _______ _______ _____ _____    ______ ____
ROOT
ATOM      1  C   UNL     1      -2.235   1.304   1.896  0.00  0.00    -0.023 A 
ATOM      2  C   UNL     1      -0.881   1.103   1.626  0.00  0.00    -0.022 A 
ATOM      3  C   UNL     1      -0.168   1.688   2.662  0.00  0.00    +0.045 A 
ATOM      4  N   UNL     1      -1.085   2.227   3.540  0.00  0.00    -0.358 N 
ATOM      5  H   UNL     1      -0.873   2.700   4.360  0.00  0.00    +0.166 HD
ATOM      6  C   UNL     1      -2.332   1.984   3.066  0.00  0.00    +0.026 A 
ATOM      7  C   UNL     1      -0.301   0.389   0.432  0.00  0.00    +0.046 C 
ENDROOT
BRANCH   1   9
ATOM      8  C   UNL     1      -3.818  -0.557   1.475  0.00  0.00    +0.009 C 
ATOM      9  C   UNL     1      -3.387   0.845   1.040  0.00  0.00    +0.034 C 
ENDBRANCH   1   9
BRANCH   3  10
ATOM     10  C   UNL     1       1.234   1.726   2.793  0.00  0.00    +0.055 C 
ATOM     11  C   UNL     1       1.824   2.622   3.669  0.00  0.00    +0.130 C 
BRANCH  11  12
ATOM     12  C   UNL     1       3.234   2.565   3.910  0.00  0.00    +0.110 C 
ATOM     13  N   UNL     1       4.353   2.519   4.101  0.00  0.00    -0.190 NA
ENDBRANCH  11  12
BRANCH  11  14
ATOM     14  C   UNL     1       1.023   3.607   4.333  0.00  0.00    +0.110 C 
ATOM     15  N   UNL     1       0.388   4.387   4.860  0.00  0.00    -0.190 NA
ENDBRANCH  11  14
ENDBRANCH   3  10
BRANCH   6  16
ATOM     16  C   UNL     1      -3.618   2.406   3.729  0.00  0.00    +0.106 C 
BRANCH  16  17
ATOM     17  C   UNL     1      -4.145   1.274   4.571  0.00  0.00    +0.026 A 
ATOM     18  C   UNL     1      -3.776   1.005   5.836  0.00  0.00    -0.015 A 
ATOM     19  C   UNL     1      -4.545  -0.174   6.250  0.00  0.00    +0.082 A 
ATOM     20  C   UNL     1      -5.320  -0.521   5.164  0.00  0.00    +0.027 A 
ATOM     21  N   UNL     1      -5.070   0.353   4.171  0.00  0.00    -0.361 N 
ATOM     22  H   UNL     1      -5.487   0.332   3.296  0.00  0.00    +0.165 HD
ATOM     23  C   UNL     1      -6.282  -1.679   5.099  0.00  0.00    +0.064 C 
ATOM     24  C   UNL     1      -2.773   1.766   6.664  0.00  0.00    +0.046 C 
BRANCH  19  25
ATOM     25  C   UNL     1      -4.494  -0.852   7.554  0.00  0.00    +0.341 C 
ATOM     26  O   UNL     1      -3.700  -1.754   7.740  0.00  0.00    -0.245 OA
BRANCH  25  27
ATOM     27  O   UNL     1      -5.326  -0.473   8.544  0.00  0.00    -0.461 OA
BRANCH  27  28
ATOM     28  C   UNL     1      -5.220  -1.185   9.804  0.00  0.00    +0.229 C 
ATOM     29  C   UNL     1      -6.237  -0.619  10.798  0.00  0.00    +0.048 C 
ENDBRANCH  27  28
ENDBRANCH  25  27
ENDBRANCH  19  25
ENDBRANCH  16  17
ENDBRANCH   6  16
TORSDOF 9
