REMARK  Name = ZINC35193646
REMARK  11 active torsions:
REMARK  status: ('A' for Active; 'I' for Inactive)
REMARK    1  A    between atoms: C_1  and  C_2
REMARK    2  A    between atoms: C_3  and  C_24
REMARK    3  A    between atoms: C_4  and  C_13
REMARK    4  A    between atoms: C_5  and  C_9
REMARK    5  A    between atoms: C_6  and  C_8
REMARK    6  A    between atoms: C_9  and  O_11
REMARK    7  A    between atoms: O_11  and  C_12
REMARK    8  A    between atoms: C_14  and  C_15
REMARK    9  A    between atoms: C_16  and  C_17
REMARK   10  A    between atoms: C_24  and  O_26
REMARK   11  A    between atoms: O_26  and  C_27
REMARK                            x       y       z     vdW  Elec       q    Type
REMARK                         _______ _______ _______ _____ _____    ______ ____
ROOT
ATOM      1  C   UNL     1       0.275   1.488   0.214  0.00  0.00    +0.061 C 
ATOM      2  C   UNL     1       0.145  -0.009   0.102  0.00  0.00    +0.016 C 
ATOM      3  C   UNL     1      -1.075  -0.573   0.118  0.00  0.00    +0.065 C 
ATOM      4  C   UNL     1      -1.253  -2.060   0.000  0.00  0.00    +0.090 C 
ATOM      5  C   UNL     1       0.043  -2.773   0.263  0.00  0.00    +0.065 C 
ATOM      6  C   UNL     1       1.219  -2.121   0.242  0.00  0.00    +0.016 C 
ATOM      7  N   UNL     1       1.270  -0.778  -0.020  0.00  0.00    -0.321 N 
ATOM      8  C   UNL     1       2.495  -2.878   0.504  0.00  0.00    +0.061 C 
ATOM      9  H   UNL     1       2.108  -0.368  -0.289  0.00  0.00    +0.152 HD
ENDROOT
BRANCH   4  10
ATOM     10  C   UNL     1      -2.282  -2.518   1.001  0.00  0.00    +0.006 C 
ATOM     11  C   UNL     1      -3.394  -3.124   0.583  0.00  0.00    +0.038 C 
ATOM     12 CL   UNL     1      -3.655  -3.388  -1.113  0.00  0.00    -0.084 Cl
BRANCH  11  13
ATOM     13  C   UNL     1      -4.396  -3.570   1.557  0.00  0.00    +0.020 C 
ATOM     14  C   UNL     1      -5.518  -4.182   1.136  0.00  0.00    +0.009 C 
BRANCH  14  15
ATOM     15  C   UNL     1      -6.524  -4.629   2.114  0.00  0.00    -0.025 A 
ATOM     16  C   UNL     1      -6.320  -4.414   3.480  0.00  0.00    +0.008 A 
ATOM     17  C   UNL     1      -7.268  -4.835   4.390  0.00  0.00    +0.001 A 
ATOM     18  C   UNL     1      -8.417  -5.470   3.953  0.00  0.00    +0.000 A 
ATOM     19  C   UNL     1      -8.626  -5.687   2.603  0.00  0.00    +0.001 A 
ATOM     20  C   UNL     1      -7.691  -5.266   1.681  0.00  0.00    +0.008 A 
ENDBRANCH  14  15
ENDBRANCH  11  13
ENDBRANCH   4  10
BRANCH   5  21
ATOM     21  C   UNL     1       0.027  -4.160   0.540  0.00  0.00    +0.337 C 
ATOM     22  O   UNL     1      -0.052  -4.961  -0.372  0.00  0.00    -0.245 OA
BRANCH  21  23
ATOM     23  O   UNL     1       0.098  -4.594   1.815  0.00  0.00    -0.465 OA
ATOM     24  C   UNL     1       0.076  -6.008   2.022  0.00  0.00    +0.280 C 
ENDBRANCH  21  23
ENDBRANCH   5  21
BRANCH   3  25
ATOM     25  C   UNL     1      -2.217   0.252   0.248  0.00  0.00    +0.337 C 
ATOM     26  O   UNL     1      -2.088   1.458   0.344  0.00  0.00    -0.245 OA
BRANCH  25  27
ATOM     27  O   UNL     1      -3.449  -0.299   0.265  0.00  0.00    -0.465 OA
ATOM     28  C   UNL     1      -4.556   0.594   0.400  0.00  0.00    +0.280 C 
ENDBRANCH  25  27
ENDBRANCH   3  25
TORSDOF 7
