REMARK  Name = ZINC40898112
REMARK  13 active torsions:
REMARK  status: ('A' for Active; 'I' for Inactive)
REMARK    1  A    between atoms: C_1  and  C_2
REMARK    2  A    between atoms: C_2  and  N_3
REMARK    3  A    between atoms: N_3  and  C_4
REMARK    4  A    between atoms: N_3  and  C_6
REMARK    5  A    between atoms: C_4  and  C_5
REMARK    6  A    between atoms: C_6  and  C_7
REMARK    7  A    between atoms: C_7  and  C_8
REMARK    8  A    between atoms: C_8  and  N_9
REMARK    9  A    between atoms: C_10  and  C_12
REMARK   10  A    between atoms: N_17  and  C_19
REMARK   11  A    between atoms: C_22  and  C_26
REMARK   12  A    between atoms: C_28  and  C_31
REMARK   13  A    between atoms: C_34  and  C_37
REMARK                            x       y       z     vdW  Elec       q    Type
REMARK                         _______ _______ _______ _____ _____    ______ ____
ROOT
ATOM      1  C   UNL     1      -4.760  -5.415  -2.259  0.00  0.00    +0.092 C 
ATOM      2  C   UNL     1      -5.448  -4.990  -0.960  0.00  0.00    +0.016 C 
ATOM      3  C   UNL     1      -6.956  -5.226  -1.078  0.00  0.00    +0.020 C 
ATOM      4  C   UNL     1      -7.219  -6.719  -1.299  0.00  0.00    +0.105 C 
ATOM      5  N   UNL     1      -6.444  -7.168  -2.464  0.00  0.00    -0.327 N 
ATOM      6  C   UNL     1      -4.998  -6.910  -2.494  0.00  0.00    +0.118 C 
ENDROOT
BRANCH   5   7
ATOM      7  C   UNL     1      -7.070  -7.829  -3.522  0.00  0.00    +0.065 A 
ATOM      8  C   UNL     1      -7.576  -7.101  -4.593  0.00  0.00    +0.027 A 
ATOM      9  C   UNL     1      -8.195  -7.751  -5.639  0.00  0.00    +0.013 A 
ATOM     10  C   UNL     1      -8.313  -9.140  -5.625  0.00  0.00    +0.025 A 
ATOM     11  C   UNL     1      -7.805  -9.870  -4.551  0.00  0.00    +0.052 A 
ATOM     12  C   UNL     1      -7.181  -9.217  -3.508  0.00  0.00    +0.145 A 
ATOM     13  F   UNL     1      -6.684  -9.923  -2.469  0.00  0.00    -0.204 F 
BRANCH  10  14
ATOM     14  C   UNL     1      -8.979  -9.840  -6.750  0.00  0.00    +0.202 A 
ATOM     15  N   UNL     1      -9.158 -11.167  -6.848  0.00  0.00    -0.187 NA
ATOM     16  C   UNL     1      -9.782 -11.453  -7.967  0.00  0.00    +0.259 A 
ATOM     17  O   UNL     1     -10.021 -10.303  -8.621  0.00  0.00    -0.332 OA
ATOM     18  N   UNL     1      -9.495  -9.264  -7.809  0.00  0.00    -0.056 NA
BRANCH  16  19
ATOM     19  C   UNL     1     -10.156 -12.807  -8.428  0.00  0.00    +0.039 A 
ATOM     20  C   UNL     1      -9.853 -13.923  -7.647  0.00  0.00    +0.013 A 
ATOM     21  C   UNL     1     -10.205 -15.183  -8.084  0.00  0.00    +0.004 A 
ATOM     22  C   UNL     1     -10.857 -15.342  -9.293  0.00  0.00    -0.050 A 
ATOM     23  C   UNL     1     -11.161 -14.240 -10.073  0.00  0.00    +0.004 A 
ATOM     24  C   UNL     1     -10.820 -12.974  -9.645  0.00  0.00    +0.013 A 
ATOM     25  C   UNL     1     -11.239 -16.722  -9.764  0.00  0.00    +0.044 C 
ENDBRANCH  16  19
ENDBRANCH  10  14
ENDBRANCH   5   7
BRANCH   1  27
ATOM     26  N   UNL     1      -2.831  -3.899  -1.943  0.00  0.00    -0.315 N 
ATOM     27  C   UNL     1      -3.280  -5.152  -2.153  0.00  0.00    +0.218 C 
ATOM     28  O   UNL     1      -2.492  -6.069  -2.256  0.00  0.00    -0.275 OA
ATOM     29  H   UNL     1      -3.461  -3.166  -1.860  0.00  0.00    +0.149 HD
BRANCH  26  30
ATOM     30  C   UNL     1      -1.392  -3.644  -1.840  0.00  0.00    +0.102 C 
BRANCH  30  31
ATOM     31  C   UNL     1      -1.155  -2.151  -1.603  0.00  0.00    +0.000 C 
BRANCH  31  32
ATOM     32  C   UNL     1       0.348  -1.884  -1.496  0.00  0.00    -0.077 C 
BRANCH  32  33
ATOM     33  N   UNL     1       0.576  -0.451  -1.269  0.00  0.00    +0.379 N 
ATOM     34  H   UNL     1       0.124   0.081  -1.998  0.00  0.00    -0.082 HD
BRANCH  33  36
ATOM     35  C   UNL     1       0.128   1.449   0.210  0.00  0.00    -0.017 C 
ATOM     36  C   UNL     1       0.019  -0.067   0.035  0.00  0.00    -0.082 C 
ENDBRANCH  33  36
BRANCH  33  37
ATOM     37  C   UNL     1       2.019  -0.176  -1.285  0.00  0.00    -0.082 C 
ATOM     38  C   UNL     1       2.573  -0.440  -2.687  0.00  0.00    -0.017 C 
ENDBRANCH  33  37
ENDBRANCH  32  33
ENDBRANCH  31  32
ENDBRANCH  30  31
ENDBRANCH  26  30
ENDBRANCH   1  27
TORSDOF 10
