REMARK  Name = ZINC09272539
REMARK  4 active torsions:
REMARK  status: ('A' for Active; 'I' for Inactive)
REMARK    1  A    between atoms: C_15  and  C_17
REMARK    2  A    between atoms: C_17  and  C_19
REMARK    3  A    between atoms: N_28  and  C_31
REMARK    4  A    between atoms: C_35  and  N_37
REMARK                            x       y       z     vdW  Elec       q    Type
REMARK                         _______ _______ _______ _____ _____    ______ ____
ROOT
ATOM      1  C   UNL     1       7.308   2.989  -2.625  0.00  0.00    +0.001 A 
ATOM      2  C   UNL     1       7.044   2.810  -1.278  0.00  0.00    +0.000 A 
ATOM      3  C   UNL     1       6.929   1.533  -0.754  0.00  0.00    +0.006 A 
ATOM      4  C   UNL     1       7.077   0.438  -1.572  0.00  0.00    -0.021 A 
ATOM      5  C   UNL     1       7.351   0.608  -2.935  0.00  0.00    -0.019 A 
ATOM      6  C   UNL     1       7.462   1.899  -3.456  0.00  0.00    +0.008 A 
ATOM      7  C   UNL     1       7.520  -0.566  -3.814  0.00  0.00    +0.022 C 
ATOM      8  C   UNL     1       7.071  -1.770  -3.404  0.00  0.00    +0.054 C 
ATOM      9  C   UNL     1       6.950  -0.963  -1.032  0.00  0.00    +0.100 C 
ATOM     10  C   UNL     1       5.904  -1.047   0.077  0.00  0.00    +0.113 C 
ATOM     11  C   UNL     1       5.159  -2.388  -0.200  0.00  0.00    +0.116 C 
ATOM     12  C   UNL     1       5.333  -2.595  -1.718  0.00  0.00    +0.141 C 
ATOM     13  C   UNL     1       3.715  -1.988   0.062  0.00  0.00    +0.232 C 
ATOM     14  O   UNL     1       2.803  -2.745   0.314  0.00  0.00    -0.274 OA
ATOM     15  N   UNL     1       3.624  -0.652  -0.035  0.00  0.00    -0.210 N 
ATOM     16  C   UNL     1       4.807  -0.027  -0.141  0.00  0.00    +0.232 C 
ATOM     17  O   UNL     1       4.969   1.152  -0.372  0.00  0.00    -0.274 OA
ATOM     18  N   UNL     1       6.696  -2.035  -1.965  0.00  0.00    -0.384 NA
ATOM     19  H   UNL     1       7.341  -2.781  -1.681  0.00  0.00    +0.127 HD
ENDROOT
BRANCH  15  20
ATOM     20  C   UNL     1       2.399   0.030  -0.020  0.00  0.00    +0.046 A 
ATOM     21  C   UNL     1       1.619   0.035   1.128  0.00  0.00    +0.024 A 
ATOM     22  C   UNL     1       0.413   0.708   1.139  0.00  0.00    +0.004 A 
ATOM     23  C   UNL     1      -0.017   1.377   0.008  0.00  0.00    +0.033 A 
ATOM     24  C   UNL     1       0.758   1.375  -1.137  0.00  0.00    +0.128 A 
ATOM     25  C   UNL     1       1.965   0.703  -1.154  0.00  0.00    +0.056 A 
BRANCH  24  26
ATOM     26  N   UNL     1       0.294   2.092  -2.346  0.00  0.00    +0.056 N 
ATOM     27  O   UNL     1      -0.771   2.684  -2.331  0.00  0.00    -0.126 OA
ATOM     28  O   UNL     1       0.976   2.090  -3.355  0.00  0.00    -0.126 OA
ENDBRANCH  24  26
ENDBRANCH  15  20
BRANCH  12  29
ATOM     29  C   UNL     1       4.099  -2.122  -2.442  0.00  0.00    +0.183 C 
ATOM     30  O   UNL     1       4.117  -1.071  -3.048  0.00  0.00    -0.290 OA
BRANCH  29  31
ATOM     31  C   UNL     1       2.873  -2.934  -2.414  0.00  0.00    +0.019 A 
ATOM     32  C   UNL     1       2.851  -4.149  -1.722  0.00  0.00    +0.013 A 
ATOM     33  C   UNL     1       1.697  -4.902  -1.695  0.00  0.00    +0.020 A 
ATOM     34  C   UNL     1       0.564  -4.464  -2.362  0.00  0.00    +0.041 A 
ATOM     35  C   UNL     1       0.581  -3.264  -3.056  0.00  0.00    +0.020 A 
ATOM     36  C   UNL     1       1.726  -2.498  -3.086  0.00  0.00    +0.013 A 
ATOM     37 CL   UNL     1      -0.883  -5.422  -2.330  0.00  0.00    -0.084 Cl
ENDBRANCH  29  31
ENDBRANCH  12  29
TORSDOF 4
