REMARK  Name = ZINC36163048
REMARK  9 active torsions:
REMARK  status: ('A' for Active; 'I' for Inactive)
REMARK    1  A    between atoms: C_1  and  C_2
REMARK    2  A    between atoms: C_2  and  O_3
REMARK    3  A    between atoms: O_3  and  C_4
REMARK    4  A    between atoms: C_4  and  C_6
REMARK    5  A    between atoms: C_7  and  C_19
REMARK    6  A    between atoms: C_12  and  C_14
REMARK    7  A    between atoms: C_19  and  N_20
REMARK    8  A    between atoms: C_22  and  C_29
REMARK    9  A    between atoms: C_25  and  C_28
REMARK                            x       y       z     vdW  Elec       q    Type
REMARK                         _______ _______ _______ _____ _____    ______ ____
ROOT
ATOM      1  C   UNL     1       1.548  -2.361   2.382  0.00  0.00    +0.077 C 
ATOM      2  C   UNL     1       1.513  -3.685   2.645  0.00  0.00    +0.008 C 
ATOM      3  N   UNL     1       2.086  -4.194   3.775  0.00  0.00    -0.274 N 
ATOM      4  C   UNL     1       2.713  -3.447   4.692  0.00  0.00    +0.304 C 
ATOM      5  O   UNL     1       3.192  -3.991   5.667  0.00  0.00    -0.252 OA
ATOM      6  N   UNL     1       2.829  -2.110   4.569  0.00  0.00    -0.288 N 
ATOM      7  C   UNL     1       2.249  -1.462   3.380  0.00  0.00    +0.150 C 
ATOM      8  H   UNL     1       2.036  -5.152   3.921  0.00  0.00    +0.156 HD
ATOM      9  H   UNL     1       3.287  -1.587   5.246  0.00  0.00    +0.151 HD
ENDROOT
BRANCH   7  10
ATOM     10  C   UNL     1       3.354  -0.736   2.656  0.00  0.00    +0.015 A 
ATOM     11  C   UNL     1       3.370   0.532   2.175  0.00  0.00    +0.013 A 
ATOM     12  C   UNL     1       4.506   0.992   1.538  0.00  0.00    +0.008 A 
ATOM     13  C   UNL     1       5.572   0.163   1.412  0.00  0.00    +0.045 A 
ATOM     14  S   UNL     1       4.983  -1.319   2.216  0.00  0.00    -0.099 S 
ENDBRANCH   7  10
BRANCH   1  15
ATOM     15  C   UNL     1       0.956  -1.831   1.212  0.00  0.00    +0.339 C 
ATOM     16  O   UNL     1       1.648  -1.561   0.248  0.00  0.00    -0.245 OA
BRANCH  15  17
ATOM     17  O   UNL     1      -0.377  -1.627   1.164  0.00  0.00    -0.462 OA
BRANCH  17  19
ATOM     18  C   UNL     1      -2.424  -0.928   0.084  0.00  0.00    +0.048 C 
ATOM     19  C   UNL     1      -0.908  -1.089  -0.050  0.00  0.00    +0.229 C 
ENDBRANCH  17  19
ENDBRANCH  15  17
ENDBRANCH   1  15
BRANCH   2  20
ATOM     20  C   UNL     1       0.830  -4.615   1.676  0.00  0.00    -0.026 C 
BRANCH  20  21
ATOM     21  N   UNL     1       1.820  -5.534   1.099  0.00  0.00    +0.384 N 
ATOM     22  C   UNL     1       2.788  -4.772   0.302  0.00  0.00    -0.075 C 
ATOM     23  C   UNL     1       3.868  -5.714  -0.234  0.00  0.00    -0.031 C 
ATOM     24  C   UNL     1       3.214  -6.785  -1.111  0.00  0.00    +0.003 C 
ATOM     25  C   UNL     1       2.154  -7.525  -0.291  0.00  0.00    -0.031 C 
ATOM     26  C   UNL     1       1.137  -6.516   0.248  0.00  0.00    -0.075 C 
ATOM     27  C   UNL     1       1.440  -8.546  -1.179  0.00  0.00    +0.005 C 
ATOM     28  C   UNL     1       4.590  -6.382   0.937  0.00  0.00    +0.005 C 
ATOM     29  H   UNL     1       2.304  -6.015   1.843  0.00  0.00    -0.081 HD
ENDBRANCH  20  21
ENDBRANCH   2  20
TORSDOF 6
