REMARK  Name = ZINC40144408
REMARK  7 active torsions:
REMARK  status: ('A' for Active; 'I' for Inactive)
REMARK    1  A    between atoms: C_2  and  C_3
REMARK    2  A    between atoms: C_3  and  N_4
REMARK    3  A    between atoms: C_8  and  C_9
REMARK    4  A    between atoms: C_12  and  O_16
REMARK    5  A    between atoms: C_14  and  O_15
REMARK    6  A    between atoms: N_19  and  S_20
REMARK    7  A    between atoms: S_20  and  C_23
REMARK                            x       y       z     vdW  Elec       q    Type
REMARK                         _______ _______ _______ _____ _____    ______ ____
ROOT
ATOM      1  N   UNL     1       0.450  -1.358   1.558  0.00  0.00    -0.241 N 
ATOM      2  C   UNL     1       1.170  -1.048   2.623  0.00  0.00    +0.259 C 
ATOM      3  O   UNL     1       1.483   0.103   2.865  0.00  0.00    -0.269 OA
ATOM      4  C   UNL     1       1.577  -2.158   3.503  0.00  0.00    +0.078 C 
ATOM      5  C   UNL     1       2.309  -2.126   4.646  0.00  0.00    +0.032 C 
ATOM      6  S   UNL     1       0.849  -3.556   2.661  0.00  0.00    -0.047 S 
ATOM      7  C   UNL     1       0.101  -2.669   1.304  0.00  0.00    +0.189 C 
ATOM      8  N   UNL     1      -0.602  -3.145   0.313  0.00  0.00    -0.105 NA
ENDROOT
BRANCH   5   9
ATOM      9  C   UNL     1       2.953  -0.879   5.070  0.00  0.00    +0.018 A 
ATOM     10  C   UNL     1       3.590  -0.060   4.129  0.00  0.00    +0.015 A 
ATOM     11  C   UNL     1       4.192   1.110   4.532  0.00  0.00    +0.046 A 
ATOM     12  C   UNL     1       4.172   1.483   5.872  0.00  0.00    +0.120 A 
ATOM     13  C   UNL     1       3.545   0.680   6.814  0.00  0.00    +0.091 A 
ATOM     14  C   UNL     1       2.930  -0.496   6.423  0.00  0.00    +0.127 A 
BRANCH  14  15
ATOM     15  O   UNL     1       2.311  -1.280   7.342  0.00  0.00    -0.506 OA
ATOM     16  H   UNL     1       2.887  -1.943   7.745  0.00  0.00    +0.292 HD
ENDBRANCH  14  15
BRANCH  12  17
ATOM     17  O   UNL     1       4.770   2.639   6.261  0.00  0.00    -0.507 OA
ATOM     18  H   UNL     1       4.186   3.409   6.240  0.00  0.00    +0.292 HD
ENDBRANCH  12  17
ENDBRANCH   5   9
BRANCH   8  19
ATOM     19  S   UNL     1      -0.897  -4.771   0.213  0.00  0.00    +0.101 S 
ATOM     20  O   UNL     1       0.358  -5.398  -0.015  0.00  0.00    -0.146 OA
ATOM     21  O   UNL     1      -1.724  -5.103   1.319  0.00  0.00    -0.146 OA
BRANCH  19  22
ATOM     22  C   UNL     1      -1.864  -5.037  -1.236  0.00  0.00    +0.113 A 
ATOM     23  C   UNL     1      -3.243  -4.993  -1.164  0.00  0.00    +0.029 A 
ATOM     24  C   UNL     1      -4.002  -5.202  -2.301  0.00  0.00    +0.002 A 
ATOM     25  C   UNL     1      -3.380  -5.453  -3.510  0.00  0.00    +0.000 A 
ATOM     26  C   UNL     1      -2.001  -5.496  -3.582  0.00  0.00    +0.002 A 
ATOM     27  C   UNL     1      -1.242  -5.283  -2.446  0.00  0.00    +0.029 A 
ENDBRANCH  19  22
ENDBRANCH   8  19
BRANCH   1  28
ATOM     28  C   UNL     1       0.014  -0.300   0.643  0.00  0.00    +0.142 C 
BRANCH  28  30
ATOM     29  C   UNL     1      -1.478   1.512   1.314  0.00  0.00    +0.005 C 
ATOM     30  C   UNL     1      -1.324   0.231   1.091  0.00  0.00    -0.015 C 
ENDBRANCH  28  30
ENDBRANCH   1  28
TORSDOF 7
