REMARK  Name = ZINC63885314
REMARK  3 active torsions:
REMARK  status: ('A' for Active; 'I' for Inactive)
REMARK    1  A    between atoms: C_9  and  N_12
REMARK    2  A    between atoms: N_12  and  C_13
REMARK    3  A    between atoms: C_21  and  N_28
REMARK                            x       y       z     vdW  Elec       q    Type
REMARK                         _______ _______ _______ _____ _____    ______ ____
ROOT
ATOM      1  C   UNL     1       5.939  -2.209   0.932  0.00  0.00    -0.045 C 
ATOM      2  C   UNL     1       6.093  -0.741   0.520  0.00  0.00    -0.013 C 
ATOM      3  C   UNL     1       7.109  -0.021   1.403  0.00  0.00    +0.003 C 
ATOM      4  C   UNL     1       8.504  -0.644   1.222  0.00  0.00    +0.033 C 
ATOM      5  C   UNL     1       8.339  -2.132   1.409  0.00  0.00    -0.040 C 
ATOM      6  C   UNL     1       8.986  -3.002   2.174  0.00  0.00    +0.001 A 
ATOM      7  C   UNL     1      10.177  -2.861   3.028  0.00  0.00    +0.042 A 
ATOM      8  C   UNL     1      10.564  -3.975   3.704  0.00  0.00    +0.127 A 
ATOM      9  C   UNL     1       9.895  -5.200   3.617  0.00  0.00    +0.035 A 
ATOM     10  C   UNL     1       8.799  -5.422   2.849  0.00  0.00    +0.028 A 
ATOM     11  C   UNL     1       8.302  -4.328   2.083  0.00  0.00    +0.043 A 
ATOM     12  N   UNL     1       7.300  -4.266   1.256  0.00  0.00    -0.379 N 
ATOM     13  C   UNL     1       7.265  -2.929   0.678  0.00  0.00    +0.092 C 
ATOM     14  H   UNL     1       6.681  -4.987   1.059  0.00  0.00    +0.160 HD
ENDROOT
BRANCH   1  15
ATOM     15  N   UNL     1       4.875  -2.836   0.137  0.00  0.00    +0.385 N 
ATOM     16  H   UNL     1       4.851  -3.826   0.329  0.00  0.00    -0.085 HD
ATOM     17  H   UNL     1       5.058  -2.689  -0.845  0.00  0.00    -0.085 HD
BRANCH  15  26
ATOM     18  C   UNL     1      -1.428  -1.626   0.833  0.00  0.00    +0.000 A 
ATOM     19  C   UNL     1      -1.204  -2.087  -0.451  0.00  0.00    +0.000 A 
ATOM     20  C   UNL     1       0.069  -2.455  -0.834  0.00  0.00    +0.004 A 
ATOM     21  C   UNL     1       1.129  -2.366   0.060  0.00  0.00    -0.046 A 
ATOM     22  C   UNL     1       0.906  -1.903   1.337  0.00  0.00    -0.044 A 
ATOM     23  C   UNL     1      -0.377  -1.536   1.722  0.00  0.00    +0.004 A 
ATOM     24  C   UNL     1       2.010  -1.765   2.352  0.00  0.00    +0.034 C 
ATOM     25  C   UNL     1       3.227  -2.590   1.939  0.00  0.00    -0.011 C 
ATOM     26  C   UNL     1       3.582  -2.237   0.489  0.00  0.00    -0.067 C 
ATOM     27  C   UNL     1       2.490  -2.793  -0.423  0.00  0.00    +0.020 C 
ENDBRANCH  15  26
ENDBRANCH   1  15
BRANCH   8  28
ATOM     28  N   UNL     1      11.756  -3.886   4.577  0.00  0.00    +0.056 N 
ATOM     29  O   UNL     1      12.358  -2.842   4.675  0.00  0.00    -0.126 OA
ATOM     30  O   UNL     1      12.128  -4.858   5.192  0.00  0.00    -0.126 OA
ENDBRANCH   8  28
TORSDOF 3
