REMARK  Name = ZINC34954598
REMARK  6 active torsions:
REMARK  status: ('A' for Active; 'I' for Inactive)
REMARK    1  A    between atoms: C_1  and  C_2
REMARK    2  A    between atoms: C_5  and  C_35
REMARK    3  A    between atoms: C_6  and  C_8
REMARK    4  A    between atoms: C_8  and  C_9
REMARK    5  A    between atoms: C_10  and  C_27
REMARK    6  A    between atoms: C_31  and  O_33
REMARK                            x       y       z     vdW  Elec       q    Type
REMARK                         _______ _______ _______ _____ _____    ______ ____
ROOT
ATOM      1  C   UNL     1      -0.086  -2.409   3.688  0.00  0.00    +0.077 C 
ATOM      2  C   UNL     1      -0.051  -0.917   3.924  0.00  0.00    +0.152 C 
ATOM      3  N   UNL     1      -0.173  -0.730   5.375  0.00  0.00    -0.232 N 
ATOM      4  C   UNL     1      -0.268  -1.946   5.943  0.00  0.00    +0.293 C 
ATOM      5  O   UNL     1      -0.381  -2.152   7.135  0.00  0.00    -0.266 OA
ATOM      6  C   UNL     1      -0.220  -2.994   4.902  0.00  0.00    +0.250 C 
ATOM      7  O   UNL     1      -0.296  -4.326   5.127  0.00  0.00    -0.282 OA
ATOM      8  C   UNL     1      -0.186   0.483   6.041  0.00  0.00    +0.169 A 
ATOM      9  N   UNL     1      -0.102   1.696   5.545  0.00  0.00    -0.224 NA
ATOM     10  C   UNL     1      -0.129   2.801   6.321  0.00  0.00    +0.080 A 
ATOM     11  C   UNL     1      -0.048   4.154   5.916  0.00  0.00    +0.032 A 
ATOM     12  C   UNL     1      -0.089   5.165   6.840  0.00  0.00    +0.040 A 
ATOM     13  C   UNL     1      -0.212   4.902   8.198  0.00  0.00    +0.125 A 
ATOM     14  C   UNL     1      -0.294   3.589   8.630  0.00  0.00    +0.055 A 
ATOM     15  C   UNL     1      -0.253   2.571   7.710  0.00  0.00    +0.043 A 
ATOM     16  S   UNL     1      -0.330   0.798   7.794  0.00  0.00    -0.052 S 
ATOM     17  F   UNL     1      -0.250   5.917   9.089  0.00  0.00    -0.205 F 
ENDROOT
BRANCH   2  18
ATOM     18  C   UNL     1       1.254  -0.346   3.435  0.00  0.00    -0.019 A 
ATOM     19  C   UNL     1       2.421  -0.588   4.138  0.00  0.00    +0.006 A 
ATOM     20  C   UNL     1       3.620  -0.065   3.692  0.00  0.00    +0.004 A 
ATOM     21  C   UNL     1       3.656   0.702   2.543  0.00  0.00    +0.045 A 
ATOM     22  C   UNL     1       2.488   0.947   1.837  0.00  0.00    +0.117 A 
ATOM     23  C   UNL     1       1.286   0.416   2.283  0.00  0.00    +0.051 A 
BRANCH  22  24
ATOM     24  O   UNL     1       2.521   1.701   0.707  0.00  0.00    -0.507 OA
ATOM     25  H   UNL     1       2.593   1.186  -0.108  0.00  0.00    +0.292 HD
ENDBRANCH  22  24
ENDBRANCH   2  18
BRANCH   1  26
ATOM     26  C   UNL     1       0.003  -3.092   2.394  0.00  0.00    +0.195 C 
ATOM     27  O   UNL     1       0.050  -4.307   2.349  0.00  0.00    -0.287 OA
BRANCH  26  33
ATOM     28  C   UNL     1       2.546  -1.246  -1.482  0.00  0.00    +0.044 C 
ATOM     29  C   UNL     1       1.255  -1.413  -0.724  0.00  0.00    -0.050 A 
ATOM     30  C   UNL     1       0.094  -0.829  -1.200  0.00  0.00    +0.003 A 
ATOM     31  C   UNL     1      -1.096  -0.978  -0.510  0.00  0.00    +0.004 A 
ATOM     32  C   UNL     1      -1.133  -1.711   0.658  0.00  0.00    -0.040 A 
ATOM     33  C   UNL     1       0.034  -2.304   1.143  0.00  0.00    +0.025 A 
ATOM     34  C   UNL     1       1.231  -2.154   0.439  0.00  0.00    +0.015 A 
ATOM     35  C   UNL     1      -2.430  -1.872   1.408  0.00  0.00    +0.044 C 
ENDBRANCH  26  33
ENDBRANCH   1  26
TORSDOF 4
