REMARK  Name = ZINC09292070
REMARK  4 active torsions:
REMARK  status: ('A' for Active; 'I' for Inactive)
REMARK    1  A    between atoms: C_1  and  C_2
REMARK    2  A    between atoms: C_9  and  C_26
REMARK    3  A    between atoms: C_26  and  C_28
REMARK    4  A    between atoms: C_32  and  N_34
REMARK                            x       y       z     vdW  Elec       q    Type
REMARK                         _______ _______ _______ _____ _____    ______ ____
ROOT
ATOM      1  C   UNL     1      -6.971   1.747   3.638  0.00  0.00    +0.044 C 
ATOM      2  C   UNL     1      -6.193   0.957   2.617  0.00  0.00    -0.050 A 
ATOM      3  C   UNL     1      -6.852   0.104   1.750  0.00  0.00    +0.005 A 
ATOM      4  C   UNL     1      -6.145  -0.621   0.814  0.00  0.00    +0.024 A 
ATOM      5  C   UNL     1      -4.760  -0.499   0.734  0.00  0.00    +0.036 A 
ATOM      6  C   UNL     1      -4.108   0.361   1.610  0.00  0.00    -0.027 A 
ATOM      7  C   UNL     1      -4.817   1.083   2.544  0.00  0.00    +0.008 A 
ATOM      8  C   UNL     1      -2.644   0.268   1.272  0.00  0.00    +0.052 C 
ATOM      9  C   UNL     1      -1.830  -0.221   2.473  0.00  0.00    +0.080 C 
ATOM     10  C   UNL     1      -0.562   0.640   2.476  0.00  0.00    +0.071 C 
ATOM     11  C   UNL     1       0.676  -0.208   2.373  0.00  0.00    -0.012 A 
ATOM     12  C   UNL     1       1.136  -1.102   1.432  0.00  0.00    +0.006 A 
ATOM     13  C   UNL     1       2.346  -1.745   1.620  0.00  0.00    +0.000 A 
ATOM     14  C   UNL     1       3.092  -1.488   2.756  0.00  0.00    +0.002 A 
ATOM     15  C   UNL     1       2.636  -0.593   3.701  0.00  0.00    +0.023 A 
ATOM     16  C   UNL     1       1.418   0.058   3.520  0.00  0.00    +0.038 A 
ATOM     17  N   UNL     1       0.753   0.989   4.320  0.00  0.00    -0.285 N 
ATOM     18  C   UNL     1      -0.415   1.382   3.779  0.00  0.00    +0.227 C 
ATOM     19  O   UNL     1      -1.199   2.179   4.250  0.00  0.00    -0.275 OA
ATOM     20  C   UNL     1      -0.684   1.601   1.298  0.00  0.00    -0.046 C 
ATOM     21  C   UNL     1      -2.142   1.695  -0.601  0.00  0.00    -0.076 C 
ATOM     22  C   UNL     1      -0.681   1.711  -1.097  0.00  0.00    -0.020 C 
ATOM     23  C   UNL     1       0.096   1.060   0.078  0.00  0.00    -0.016 C 
ATOM     24  C   UNL     1      -2.575  -0.718   0.134  0.00  0.00    +0.212 C 
ATOM     25  O   UNL     1      -1.575  -1.085  -0.445  0.00  0.00    -0.277 OA
ATOM     26  N   UNL     1      -3.837  -1.114  -0.115  0.00  0.00    -0.286 N 
ATOM     27  H   UNL     1       1.095   1.316   5.167  0.00  0.00    +0.155 HD
ATOM     28  H   UNL     1      -4.078  -1.753  -0.804  0.00  0.00    +0.155 HD
ATOM     29  N   UNL     1      -2.085   1.558   0.872  0.00  0.00    +0.395 N 
ATOM     30  H   UNL     1      -2.613   2.321   1.312  0.00  0.00    -0.079 HD
ENDROOT
BRANCH   9  31
ATOM     31  C   UNL     1      -2.604  -0.015   3.749  0.00  0.00    +0.167 C 
ATOM     32  O   UNL     1      -2.937   1.103   4.082  0.00  0.00    -0.292 OA
BRANCH  31  33
ATOM     33  C   UNL     1      -2.957  -1.169   4.591  0.00  0.00    +0.020 A 
ATOM     34  C   UNL     1      -2.575  -2.460   4.210  0.00  0.00    +0.011 A 
ATOM     35  C   UNL     1      -2.909  -3.536   5.005  0.00  0.00    +0.003 A 
ATOM     36  C   UNL     1      -3.621  -3.342   6.176  0.00  0.00    +0.033 A 
ATOM     37  C   UNL     1      -4.003  -2.068   6.559  0.00  0.00    +0.127 A 
ATOM     38  C   UNL     1      -3.671  -0.981   5.779  0.00  0.00    +0.044 A 
BRANCH  37  39
ATOM     39  N   UNL     1      -4.764  -1.872   7.814  0.00  0.00    +0.056 N 
ATOM     40  O   UNL     1      -5.053  -2.831   8.507  0.00  0.00    -0.126 OA
ATOM     41  O   UNL     1      -5.101  -0.752   8.152  0.00  0.00    -0.126 OA
ENDBRANCH  37  39
ENDBRANCH  31  33
ENDBRANCH   9  31
TORSDOF 3
