REMARK  Name = ZINC13064850
REMARK  12 active torsions:
REMARK  status: ('A' for Active; 'I' for Inactive)
REMARK    1  A    between atoms: C_1  and  C_2
REMARK    2  A    between atoms: C_2  and  C_3
REMARK    3  A    between atoms: C_3  and  C_5
REMARK    4  A    between atoms: C_3  and  N_75
REMARK    5  A    between atoms: N_9  and  C_10
REMARK    6  A    between atoms: C_16  and  C_17
REMARK    7  A    between atoms: C_16  and  N_75
REMARK    8  A    between atoms: C_17  and  C_18
REMARK    9  A    between atoms: C_24  and  C_25
REMARK   10  A    between atoms: C_24  and  N_75
REMARK   11  A    between atoms: C_28  and  C_38
REMARK   12  A    between atoms: C_30  and  C_37
REMARK                            x       y       z     vdW  Elec       q    Type
REMARK                         _______ _______ _______ _____ _____    ______ ____
ROOT
ATOM      1  N   UNL     1       5.996   4.952  -1.888  0.00  0.00    +0.389 N 
ATOM      2  H   UNL     1       5.518   5.459  -2.641  0.00  0.00    -0.080 HD
ENDROOT
BRANCH   1   3
ATOM      3  C   UNL     1       6.814   5.907  -1.110  0.00  0.00    +0.003 C 
BRANCH   3   4
ATOM      4  C   UNL     1       6.086   7.225  -1.050  0.00  0.00    +0.138 A 
ATOM      5  N   UNL     1       4.803   7.403  -0.850  0.00  0.00    -0.115 NA
ATOM      6  N   UNL     1       4.569   8.670  -0.868  0.00  0.00    -0.023 NA
ATOM      7  N   UNL     1       5.670   9.305  -1.075  0.00  0.00    -0.044 NA
ATOM      8  N   UNL     1       6.629   8.449  -1.188  0.00  0.00    -0.228 N 
BRANCH   8   9
ATOM      9  C   UNL     1       8.043   8.753  -1.424  0.00  0.00    +0.111 C 
ATOM     10  C   UNL     1       8.578   9.615  -0.279  0.00  0.00    +0.027 C 
ATOM     11  C   UNL     1      10.054   9.932  -0.525  0.00  0.00    +0.002 C 
ATOM     12  C   UNL     1      10.199  10.691  -1.846  0.00  0.00    +0.000 C 
ATOM     13  C   UNL     1       9.664   9.829  -2.991  0.00  0.00    +0.002 C 
ATOM     14  C   UNL     1       8.188   9.512  -2.744  0.00  0.00    +0.027 C 
ENDBRANCH   8   9
ENDBRANCH   3   4
BRANCH   3  16
ATOM     15  C   UNL     1       7.827   4.074   0.253  0.00  0.00    +0.002 C 
ATOM     16  C   UNL     1       7.038   5.384   0.311  0.00  0.00    -0.011 C 
ENDBRANCH   3  16
ENDBRANCH   1   3
BRANCH   1  17
ATOM     17  C   UNL     1       6.863   3.913  -2.482  0.00  0.00    -0.073 C 
BRANCH  17  18
ATOM     18  C   UNL     1       7.655   4.534  -3.634  0.00  0.00    +0.016 C 
BRANCH  18  19
ATOM     19  C   UNL     1       8.427   3.457  -4.351  0.00  0.00    -0.049 A 
ATOM     20  C   UNL     1       9.712   3.143  -3.950  0.00  0.00    +0.003 A 
ATOM     21  C   UNL     1      10.419   2.151  -4.604  0.00  0.00    +0.000 A 
ATOM     22  C   UNL     1       9.844   1.480  -5.667  0.00  0.00    +0.000 A 
ATOM     23  C   UNL     1       8.561   1.798  -6.073  0.00  0.00    +0.000 A 
ATOM     24  C   UNL     1       7.853   2.786  -5.415  0.00  0.00    +0.003 A 
ENDBRANCH  18  19
ENDBRANCH  17  18
ENDBRANCH   1  17
BRANCH   1  25
ATOM     25  C   UNL     1       4.983   4.325  -1.013  0.00  0.00    -0.037 C 
BRANCH  25  26
ATOM     26  C   UNL     1       3.954   3.642  -1.877  0.00  0.00    +0.001 A 
ATOM     27  C   UNL     1       4.066   2.317  -2.141  0.00  0.00    +0.017 A 
ATOM     28  C   UNL     1       3.049   1.684  -2.983  0.00  0.00    +0.002 A 
ATOM     29  C   UNL     1       3.111   0.320  -3.291  0.00  0.00    -0.041 A 
ATOM     30  C   UNL     1       2.147  -0.240  -4.079  0.00  0.00    +0.007 A 
ATOM     31  C   UNL     1       1.106   0.531  -4.579  0.00  0.00    -0.048 A 
ATOM     32  C   UNL     1       1.025   1.875  -4.289  0.00  0.00    +0.029 A 
ATOM     33  C   UNL     1       1.995   2.469  -3.487  0.00  0.00    +0.050 A 
ATOM     34  N   UNL     1       1.939   3.812  -3.182  0.00  0.00    -0.322 N 
ATOM     35  H   UNL     1       1.212   4.351  -3.530  0.00  0.00    +0.169 HD
ATOM     36  C   UNL     1       2.877   4.385  -2.408  0.00  0.00    +0.251 A 
ATOM     37  O   UNL     1       2.797   5.575  -2.159  0.00  0.00    -0.268 OA
ATOM     38  C   UNL     1       0.054  -0.110  -5.447  0.00  0.00    +0.044 C 
ATOM     39  C   UNL     1       4.236  -0.526  -2.753  0.00  0.00    +0.044 C 
ENDBRANCH  25  26
ENDBRANCH   1  25
TORSDOF 9
