REMARK  Name = ZINC36203540
REMARK  6 active torsions:
REMARK  status: ('A' for Active; 'I' for Inactive)
REMARK    1  A    between atoms: C_1  and  C_2
REMARK    2  A    between atoms: C_2  and  C_4
REMARK    3  A    between atoms: C_2  and  O_16
REMARK    4  A    between atoms: N_6  and  C_7
REMARK    5  A    between atoms: O_16  and  C_17
REMARK    6  A    between atoms: C_17  and  C_19
REMARK                            x       y       z     vdW  Elec       q    Type
REMARK                         _______ _______ _______ _____ _____    ______ ____
ROOT
ATOM      1  O   UNL     1      -1.333  -0.522   0.002  0.00  0.00    -0.449 OA
ENDROOT
BRANCH   1   3
ATOM      2  C   UNL     1      -0.021   1.508  -0.008  0.00  0.00    +0.062 C 
ATOM      3  C   UNL     1       0.006  -0.021  -0.007  0.00  0.00    +0.259 C 
BRANCH   3   4
ATOM      4  C   UNL     1       0.733  -0.510   1.220  0.00  0.00    +0.258 C 
ATOM      5  O   UNL     1       0.136  -1.141   2.067  0.00  0.00    -0.271 OA
ATOM      6  N   UNL     1       2.045  -0.246   1.375  0.00  0.00    -0.280 N 
ATOM      7  H   UNL     1       2.537   0.202   0.669  0.00  0.00    +0.155 HD
BRANCH   6   8
ATOM      8  C   UNL     1       2.699  -0.618   2.558  0.00  0.00    +0.072 A 
ATOM      9  C   UNL     1       2.333  -1.783   3.217  0.00  0.00    +0.029 A 
ATOM     10  C   UNL     1       2.978  -2.149   4.383  0.00  0.00    +0.043 A 
ATOM     11  C   UNL     1       3.991  -1.356   4.895  0.00  0.00    +0.161 A 
ATOM     12  C   UNL     1       4.360  -0.192   4.239  0.00  0.00    +0.195 A 
ATOM     13  C   UNL     1       3.720   0.176   3.068  0.00  0.00    +0.182 A 
ATOM     14  F   UNL     1       4.082   1.307   2.425  0.00  0.00    -0.200 F 
ATOM     15  F   UNL     1       5.348   0.582   4.741  0.00  0.00    -0.199 F 
ATOM     16  F   UNL     1       4.620  -1.717   6.035  0.00  0.00    -0.202 F 
ENDBRANCH   6   8
ENDBRANCH   3   4
ENDBRANCH   1   3
BRANCH   1  17
ATOM     17  C   UNL     1      -1.913  -0.737  -1.195  0.00  0.00    +0.340 C 
ATOM     18  O   UNL     1      -1.299  -0.506  -2.218  0.00  0.00    -0.245 OA
BRANCH  17  19
ATOM     19  C   UNL     1      -3.293  -1.253  -1.263  0.00  0.00    +0.060 A 
ATOM     20  C   UNL     1      -4.003  -1.514  -0.082  0.00  0.00    +0.017 A 
ATOM     21  C   UNL     1      -5.279  -1.991  -0.130  0.00  0.00    +0.027 A 
ATOM     22  C   UNL     1      -5.896  -2.226  -1.357  0.00  0.00    +0.047 A 
ATOM     23  C   UNL     1      -5.194  -1.968  -2.552  0.00  0.00    +0.004 A 
ATOM     24  C   UNL     1      -3.892  -1.475  -2.500  0.00  0.00    +0.025 A 
ATOM     25  C   UNL     1      -6.110  -2.315  -3.635  0.00  0.00    -0.019 A 
ATOM     26  C   UNL     1      -7.255  -2.741  -3.070  0.00  0.00    +0.020 A 
ATOM     27  N   UNL     1      -7.141  -2.693  -1.709  0.00  0.00    -0.358 N 
ATOM     28  H   UNL     1      -7.836  -2.950  -1.083  0.00  0.00    +0.166 HD
ATOM     29  C   UNL     1      -8.461  -3.194  -3.861  0.00  0.00    +0.053 C 
ATOM     30  C   UNL     1      -8.314  -2.694  -5.303  0.00  0.00    +0.006 C 
ATOM     31  C   UNL     1      -6.929  -3.071  -5.836  0.00  0.00    +0.005 C 
ATOM     32  C   UNL     1      -5.864  -2.231  -5.119  0.00  0.00    +0.037 C 
ENDBRANCH  17  19
ENDBRANCH   1  17
TORSDOF 5
