REMARK  Name = ZINC63214534
REMARK  5 active torsions:
REMARK  status: ('A' for Active; 'I' for Inactive)
REMARK    1  A    between atoms: C_1  and  C_2
REMARK    2  A    between atoms: C_2  and  C_3
REMARK    3  A    between atoms: C_2  and  N_4
REMARK    4  A    between atoms: N_11  and  C_12
REMARK    5  A    between atoms: C_19  and  N_21
REMARK                            x       y       z     vdW  Elec       q    Type
REMARK                         _______ _______ _______ _____ _____    ______ ____
ROOT
ATOM      1  N   UNL     1      -0.191  -1.540  -1.898  0.00  0.00    -0.308 N 
ATOM      2  C   UNL     1      -0.649  -1.564  -3.182  0.00  0.00    +0.109 A 
ATOM      3  C   UNL     1       0.154  -1.947  -4.197  0.00  0.00    +0.131 A 
ATOM      4  N   UNL     1       1.418  -2.315  -3.990  0.00  0.00    -0.234 NA
ATOM      5  C   UNL     1       1.929  -2.316  -2.777  0.00  0.00    +0.185 A 
ATOM      6  C   UNL     1       1.088  -1.901  -1.649  0.00  0.00    +0.291 A 
ATOM      7  O   UNL     1       1.531  -1.886  -0.513  0.00  0.00    -0.264 OA
ATOM      8  N   UNL     1       3.247  -2.701  -2.569  0.00  0.00    -0.323 N 
ATOM      9  H   UNL     1       3.616  -2.699  -1.673  0.00  0.00    +0.148 HD
ENDROOT
BRANCH   8  10
ATOM     10  C   UNL     1       4.079  -3.109  -3.704  0.00  0.00    +0.057 C 
ATOM     11  C   UNL     1       4.764  -1.861  -4.294  0.00  0.00    +0.020 C 
ATOM     12  C   UNL     1       5.968  -2.208  -5.190  0.00  0.00    +0.002 C 
ATOM     13  C   UNL     1       5.699  -3.388  -6.084  0.00  0.00    +0.000 C 
ATOM     14  C   UNL     1       6.218  -4.661  -5.385  0.00  0.00    -0.002 C 
ATOM     15  C   UNL     1       5.293  -5.156  -4.376  0.00  0.00    -0.014 C 
ATOM     16  C   UNL     1       5.069  -4.140  -3.235  0.00  0.00    -0.055 C 
BRANCH  16  17
ATOM     17  N   UNL     1       4.538  -4.833  -2.054  0.00  0.00    +0.381 N 
ATOM     18  H   UNL     1       3.617  -5.190  -2.259  0.00  0.00    -0.090 HD
ATOM     19  H   UNL     1       5.149  -5.599  -1.811  0.00  0.00    -0.090 HD
ATOM     20  H   UNL     1       4.485  -4.188  -1.281  0.00  0.00    -0.090 HD
ENDBRANCH  16  17
ENDBRANCH   8  10
BRANCH   1  22
ATOM     21  C   UNL     1      -1.548   0.310  -1.051  0.00  0.00    +0.030 C 
ATOM     22  C   UNL     1      -1.071  -1.122  -0.803  0.00  0.00    +0.084 C 
ATOM     23  C   UNL     1      -2.279  -2.058  -0.735  0.00  0.00    +0.030 C 
ENDBRANCH   1  22
TORSDOF 3
