REMARK  Name = ZINC35745593
REMARK  10 active torsions:
REMARK  status: ('A' for Active; 'I' for Inactive)
REMARK    1  A    between atoms: C_1  and  C_2
REMARK    2  A    between atoms: C_2  and  C_3
REMARK    3  A    between atoms: C_2  and  C_4
REMARK    4  A    between atoms: C_2  and  O_31
REMARK    5  A    between atoms: C_4  and  N_5
REMARK    6  A    between atoms: N_5  and  C_6
REMARK    7  A    between atoms: N_5  and  C_12
REMARK    8  A    between atoms: C_6  and  C_7
REMARK    9  A    between atoms: C_12  and  C_13
REMARK   10  A    between atoms: C_19  and  C_24
REMARK                            x       y       z     vdW  Elec       q    Type
REMARK                         _______ _______ _______ _____ _____    ______ ____
ROOT
ATOM      1  C   UNL     1      -2.972  -2.184  -1.746  0.00  0.00    +0.094 A 
ATOM      2  N   UNL     1      -4.170  -2.636  -2.197  0.00  0.00    -0.312 N 
ATOM      3  H   UNL     1      -4.714  -3.196  -1.622  0.00  0.00    +0.170 HD
ATOM      4  C   UNL     1      -4.618  -2.323  -3.427  0.00  0.00    +0.260 A 
ATOM      5  O   UNL     1      -5.696  -2.737  -3.817  0.00  0.00    -0.267 OA
ATOM      6  C   UNL     1      -3.809  -1.496  -4.270  0.00  0.00    +0.080 A 
ATOM      7  C   UNL     1      -4.071  -1.023  -5.624  0.00  0.00    +0.005 A 
ATOM      8  C   UNL     1      -3.147  -0.240  -6.231  0.00  0.00    +0.056 A 
ATOM      9  S   UNL     1      -1.862  -0.092  -5.005  0.00  0.00    -0.076 S 
ATOM     10  C   UNL     1      -2.587  -1.076  -3.719  0.00  0.00    +0.116 A 
ATOM     11  N   UNL     1      -2.214  -1.424  -2.490  0.00  0.00    -0.229 NA
ENDROOT
BRANCH   7  12
ATOM     12  C   UNL     1      -5.324  -1.393  -6.324  0.00  0.00    +0.002 A 
ATOM     13  C   UNL     1      -5.279  -2.195  -7.464  0.00  0.00    +0.010 A 
ATOM     14  C   UNL     1      -6.449  -2.537  -8.111  0.00  0.00    +0.001 A 
ATOM     15  C   UNL     1      -7.665  -2.085  -7.632  0.00  0.00    +0.001 A 
ATOM     16  C   UNL     1      -7.718  -1.290  -6.502  0.00  0.00    +0.020 A 
ATOM     17  C   UNL     1      -6.554  -0.946  -5.842  0.00  0.00    +0.049 A 
ATOM     18 CL   UNL     1      -6.622   0.048  -4.420  0.00  0.00    -0.083 Cl
ENDBRANCH   7  12
BRANCH   1  19
ATOM     19  C   UNL     1      -2.511  -2.560  -0.362  0.00  0.00    -0.003 C 
BRANCH  19  20
ATOM     20  N   UNL     1      -1.246  -1.876  -0.063  0.00  0.00    +0.391 N 
ATOM     21  H   UNL     1      -0.823  -1.562  -0.924  0.00  0.00    -0.080 HD
BRANCH  20  22
ATOM     22  C   UNL     1      -1.508  -0.719   0.804  0.00  0.00    -0.043 C 
BRANCH  22  24
ATOM     23  C   UNL     1      -2.586   1.531   0.933  0.00  0.00    +0.039 C 
ATOM     24  C   UNL     1      -2.286   0.340   0.021  0.00  0.00    +0.046 C 
ATOM     25  C   UNL     1      -1.451   0.808  -1.173  0.00  0.00    +0.039 C 
BRANCH  24  26
ATOM     26  O   UNL     1      -3.514  -0.222  -0.449  0.00  0.00    -0.391 OA
ATOM     27  H   UNL     1      -4.031   0.375  -1.008  0.00  0.00    +0.210 HD
ENDBRANCH  24  26
ENDBRANCH  22  24
ENDBRANCH  20  22
BRANCH  20  28
ATOM     28  C   UNL     1      -0.337  -2.805   0.620  0.00  0.00    -0.002 C 
BRANCH  28  29
ATOM     29  C   UNL     1       1.002  -2.142   0.818  0.00  0.00    +0.089 A 
ATOM     30  C   UNL     1       1.406  -1.500   1.929  0.00  0.00    +0.042 A 
ATOM     31  C   UNL     1       2.718  -1.036   1.681  0.00  0.00    +0.041 A 
ATOM     32  C   UNL     1       3.038  -1.423   0.433  0.00  0.00    +0.195 A 
ATOM     33  O   UNL     1       1.998  -2.098  -0.083  0.00  0.00    -0.470 OA
ENDBRANCH  28  29
ENDBRANCH  20  28
ENDBRANCH  19  20
ENDBRANCH   1  19
TORSDOF 8
