REMARK  Name = ZINC56121568
REMARK  1 active torsions:
REMARK  status: ('A' for Active; 'I' for Inactive)
REMARK    1  A    between atoms: C_10  and  C_13
REMARK                            x       y       z     vdW  Elec       q    Type
REMARK                         _______ _______ _______ _____ _____    ______ ____
ROOT
ATOM      1  C   UNL     1       5.012  -2.650  -0.059  0.00  0.00    +0.267 C 
ATOM      2  O   UNL     1       3.926  -2.108   0.002  0.00  0.00    -0.268 OA
ATOM      3  N   UNL     1       5.091  -3.990  -0.169  0.00  0.00    -0.266 N 
ATOM      4  C   UNL     1       6.397  -4.663  -0.180  0.00  0.00    +0.114 C 
ATOM      5  C   UNL     1       6.375  -5.713  -1.299  0.00  0.00    +0.024 C 
ATOM      6  C   UNL     1       5.311  -6.760  -0.972  0.00  0.00    +0.038 C 
ATOM      7  C   UNL     1       3.996  -6.096  -0.659  0.00  0.00    -0.025 A 
ATOM      8  C   UNL     1       3.929  -4.766  -0.268  0.00  0.00    +0.040 A 
ATOM      9  C   UNL     1       2.700  -4.186   0.025  0.00  0.00    +0.025 A 
ATOM     10  C   UNL     1       1.543  -4.932  -0.070  0.00  0.00    +0.017 A 
ATOM     11  C   UNL     1       1.608  -6.259  -0.457  0.00  0.00    +0.018 A 
ATOM     12  C   UNL     1       2.831  -6.838  -0.758  0.00  0.00    +0.020 A 
ATOM     13 BR   UNL     1       0.023  -7.282  -0.588  0.00  0.00    -0.050 Br
ENDROOT
BRANCH   1  23
ATOM     14  C   UNL     1       9.760   1.626  -0.806  0.00  0.00    +0.001 A 
ATOM     15  C   UNL     1       8.701   1.937  -1.649  0.00  0.00    +0.002 A 
ATOM     16  C   UNL     1       7.565   1.160  -1.667  0.00  0.00    +0.026 A 
ATOM     17  C   UNL     1       7.474   0.050  -0.831  0.00  0.00    +0.051 A 
ATOM     18  C   UNL     1       8.550  -0.260   0.021  0.00  0.00    +0.045 A 
ATOM     19  C   UNL     1       9.693   0.542   0.022  0.00  0.00    +0.014 A 
ATOM     20  C   UNL     1       8.439  -1.437   0.898  0.00  0.00    +0.190 A 
ATOM     21  O   UNL     1       9.345  -1.746   1.654  0.00  0.00    -0.287 OA
ATOM     22  C   UNL     1       7.243  -2.201   0.836  0.00  0.00    +0.082 A 
ATOM     23  C   UNL     1       6.250  -1.835  -0.014  0.00  0.00    +0.106 A 
ATOM     24  N   UNL     1       6.352  -0.744  -0.827  0.00  0.00    -0.350 N 
ATOM     25  H   UNL     1       5.614  -0.524  -1.417  0.00  0.00    +0.166 HD
ENDBRANCH   1  23
TORSDOF 1
