REMARK  Name = ZINC64774150
REMARK  9 active torsions:
REMARK  status: ('A' for Active; 'I' for Inactive)
REMARK    1  A    between atoms: C_1  and  O_2
REMARK    2  A    between atoms: O_2  and  C_3
REMARK    3  A    between atoms: C_5  and  C_13
REMARK    4  A    between atoms: C_8  and  O_9
REMARK    5  A    between atoms: O_9  and  C_10
REMARK    6  A    between atoms: C_10  and  C_11
REMARK    7  A    between atoms: C_21  and  S_27
REMARK    8  A    between atoms: S_27  and  C_28
REMARK    9  A    between atoms: C_28  and  C_29
REMARK                            x       y       z     vdW  Elec       q    Type
REMARK                         _______ _______ _______ _____ _____    ______ ____
ROOT
ATOM      1  C   UNL     1      -4.871   0.257   0.037  0.00  0.00    +0.047 C 
ATOM      2  C   UNL     1      -5.649   0.008  -1.258  0.00  0.00    +0.105 C 
ATOM      3  C   UNL     1      -6.248  -1.367  -1.269  0.00  0.00    +0.219 C 
ATOM      4  O   UNL     1      -6.570  -1.843  -2.337  0.00  0.00    -0.275 OA
ATOM      5  N   UNL     1      -6.447  -2.099  -0.164  0.00  0.00    -0.273 N 
ATOM      6  C   UNL     1      -6.033  -1.651   1.058  0.00  0.00    +0.117 C 
ATOM      7  N   UNL     1      -5.885  -2.476   2.054  0.00  0.00    -0.212 NA
ATOM      8  C   UNL     1      -5.373  -2.091   3.230  0.00  0.00    +0.182 C 
ATOM      9  N   UNL     1      -4.946  -0.854   3.442  0.00  0.00    -0.154 NA
ATOM     10  C   UNL     1      -5.071   0.093   2.523  0.00  0.00    +0.249 C 
ATOM     11  O   UNL     1      -4.629   1.204   2.747  0.00  0.00    -0.273 OA
ATOM     12  C   UNL     1      -5.746  -0.178   1.216  0.00  0.00    +0.148 C 
ATOM     13  H   UNL     1      -6.890  -2.959  -0.234  0.00  0.00    +0.156 HD
ENDROOT
BRANCH   1  16
ATOM     14  C   UNL     1      -1.222  -0.676   0.333  0.00  0.00    +0.162 A 
ATOM     15  C   UNL     1      -2.396   0.062   0.342  0.00  0.00    +0.053 A 
ATOM     16  C   UNL     1      -3.596  -0.546   0.027  0.00  0.00    -0.039 A 
ATOM     17  C   UNL     1      -3.631  -1.890  -0.296  0.00  0.00    +0.008 A 
ATOM     18  C   UNL     1      -2.464  -2.632  -0.306  0.00  0.00    +0.050 A 
ATOM     19  C   UNL     1      -1.256  -2.027   0.002  0.00  0.00    +0.162 A 
BRANCH  14  21
ATOM     20  C   UNL     1      -0.081   1.311   0.971  0.00  0.00    +0.277 C 
ATOM     21  O   UNL     1      -0.040  -0.079   0.641  0.00  0.00    -0.491 OA
ENDBRANCH  14  21
BRANCH  19  22
ATOM     22  O   UNL     1      -0.106  -2.753  -0.014  0.00  0.00    -0.484 OA
BRANCH  22  23
ATOM     23  C   UNL     1      -0.217  -4.135  -0.363  0.00  0.00    +0.256 C 
BRANCH  23  24
ATOM     24  C   UNL     1       1.148  -4.773  -0.327  0.00  0.00    +0.006 C 
ATOM     25  C   UNL     1       1.311  -5.939   0.247  0.00  0.00    +0.007 C 
ENDBRANCH  23  24
ENDBRANCH  22  23
ENDBRANCH  19  22
ENDBRANCH   1  16
BRANCH   8  26
ATOM     26  S   UNL     1      -5.265  -3.266   4.539  0.00  0.00    -0.084 S 
BRANCH  26  27
ATOM     27  C   UNL     1      -4.529  -2.331   5.909  0.00  0.00    +0.115 C 
BRANCH  27  28
ATOM     28  C   UNL     1      -4.379  -3.231   7.108  0.00  0.00    -0.002 A 
ATOM     29  C   UNL     1      -5.406  -3.335   8.027  0.00  0.00    +0.007 A 
ATOM     30  C   UNL     1      -5.269  -4.160   9.127  0.00  0.00    +0.000 A 
ATOM     31  C   UNL     1      -4.104  -4.884   9.309  0.00  0.00    +0.003 A 
ATOM     32  C   UNL     1      -3.077  -4.782   8.390  0.00  0.00    +0.038 A 
ATOM     33  C   UNL     1      -3.216  -3.959   7.285  0.00  0.00    +0.127 A 
ATOM     34  F   UNL     1      -2.213  -3.863   6.384  0.00  0.00    -0.205 F 
ENDBRANCH  27  28
ENDBRANCH  26  27
ENDBRANCH   8  26
TORSDOF 8
