REMARK  Name = ZINC37129854
REMARK  5 active torsions:
REMARK  status: ('A' for Active; 'I' for Inactive)
REMARK    1  A    between atoms: C_1  and  C_2
REMARK    2  A    between atoms: C_5  and  N_13
REMARK    3  A    between atoms: C_7  and  C_12
REMARK    4  A    between atoms: N_10  and  C_11
REMARK    5  A    between atoms: N_13  and  C_14
REMARK                            x       y       z     vdW  Elec       q    Type
REMARK                         _______ _______ _______ _____ _____    ______ ____
ROOT
ATOM      1  C   UNL     1      -3.544  -2.719  -1.076  0.00  0.00    +0.044 A 
ATOM      2  C   UNL     1      -3.004  -2.377  -2.307  0.00  0.00    +0.051 A 
ATOM      3  C   UNL     1      -3.766  -2.518  -3.457  0.00  0.00    +0.069 A 
ATOM      4  C   UNL     1      -5.073  -3.003  -3.372  0.00  0.00    +0.068 A 
ATOM      5  C   UNL     1      -5.607  -3.343  -2.139  0.00  0.00    +0.045 A 
ATOM      6  C   UNL     1      -4.844  -3.206  -0.995  0.00  0.00    +0.041 A 
ATOM      7 BR   UNL     1      -5.572  -3.677   0.686  0.00  0.00    -0.048 Br
ATOM      8  N   UNL     1      -5.576  -3.032  -4.673  0.00  0.00    -0.306 N 
ATOM      9  H   UNL     1      -6.464  -3.324  -4.931  0.00  0.00    +0.170 HD
ATOM     10  C   UNL     1      -4.619  -2.585  -5.507  0.00  0.00    +0.325 A 
ATOM     11  O   UNL     1      -4.733  -2.485  -6.715  0.00  0.00    -0.247 OA
ATOM     12  N   UNL     1      -3.516  -2.268  -4.804  0.00  0.00    -0.306 N 
ATOM     13  H   UNL     1      -2.688  -1.923  -5.173  0.00  0.00    +0.170 HD
ENDROOT
BRANCH   1  14
ATOM     14  N   UNL     1      -2.777  -2.578   0.086  0.00  0.00    -0.340 N 
ATOM     15  H   UNL     1      -3.153  -2.820   0.947  0.00  0.00    +0.146 HD
BRANCH  14  19
ATOM     16  C   UNL     1      -0.019   1.526   0.010  0.00  0.00    -0.013 C 
ATOM     17  C   UNL     1       0.002  -0.004   0.002  0.00  0.00    -0.070 C 
ATOM     18  C   UNL     1      -1.434  -0.533   0.011  0.00  0.00    +0.007 C 
ATOM     19  C   UNL     1      -1.408  -2.064   0.003  0.00  0.00    +0.070 C 
ATOM     20  C   UNL     1      -0.600  -2.558   1.206  0.00  0.00    -0.011 C 
ATOM     21  C   UNL     1       0.805  -1.954   1.152  0.00  0.00    -0.074 C 
ATOM     22  N   UNL     1       0.713  -0.490   1.191  0.00  0.00    +0.380 N 
ATOM     23  C   UNL     1       2.066   0.083   1.218  0.00  0.00    -0.096 C 
ATOM     24  C   UNL     1      -1.293  -2.127   2.499  0.00  0.00    +0.007 C 
ATOM     25  H   UNL     1       0.213  -0.206   2.020  0.00  0.00    -0.082 HD
ENDBRANCH  14  19
ENDBRANCH   1  14
TORSDOF 2
