REMARK  Name = ZINC02310212
REMARK  11 active torsions:
REMARK  status: ('A' for Active; 'I' for Inactive)
REMARK    1  A    between atoms: C_1  and  C_2
REMARK    2  A    between atoms: C_2  and  O_3
REMARK    3  A    between atoms: O_3  and  C_4
REMARK    4  A    between atoms: C_7  and  C_10
REMARK    5  A    between atoms: C_12  and  C_37
REMARK    6  A    between atoms: C_13  and  S_22
REMARK    7  A    between atoms: S_22  and  C_23
REMARK    8  A    between atoms: C_23  and  C_24
REMARK    9  A    between atoms: N_26  and  C_27
REMARK   10  A    between atoms: C_30  and  N_33
REMARK   11  A    between atoms: C_34  and  C_36
REMARK                            x       y       z     vdW  Elec       q    Type
REMARK                         _______ _______ _______ _____ _____    ______ ____
ROOT
ATOM      1  C   UNL     1      -1.955  -6.096   0.042  0.00  0.00    +0.097 C 
ATOM      2  C   UNL     1      -2.656  -6.506   1.325  0.00  0.00    +0.073 C 
ATOM      3  C   UNL     1      -3.863  -7.172   1.202  0.00  0.00    +0.112 C 
ATOM      4  N   UNL     1      -4.406  -7.452   0.016  0.00  0.00    -0.244 NA
ATOM      5  C   UNL     1      -3.892  -7.147  -1.149  0.00  0.00    +0.050 C 
ATOM      6  C   UNL     1      -2.668  -6.466  -1.245  0.00  0.00    +0.029 C 
ATOM      7  C   UNL     1      -2.125  -6.144  -2.430  0.00  0.00    +0.162 C 
ATOM      8  C   UNL     1      -2.807  -6.495  -3.725  0.00  0.00    +0.080 C 
ATOM      9  C   UNL     1      -3.637  -7.768  -3.530  0.00  0.00    +0.014 C 
ATOM     10  C   UNL     1      -4.634  -7.535  -2.407  0.00  0.00    +0.056 C 
ATOM     11  O   UNL     1      -0.945  -5.493  -2.460  0.00  0.00    -0.292 OA
ENDROOT
BRANCH   1  15
ATOM     12  C   UNL     1      -1.428  -1.856   0.103  0.00  0.00    +0.121 A 
ATOM     13  C   UNL     1      -0.322  -2.693   0.085  0.00  0.00    +0.046 A 
ATOM     14  C   UNL     1      -0.495  -4.064   0.065  0.00  0.00    +0.008 A 
ATOM     15  C   UNL     1      -1.769  -4.601   0.064  0.00  0.00    -0.034 A 
ATOM     16  C   UNL     1      -2.873  -3.768   0.081  0.00  0.00    +0.008 A 
ATOM     17  C   UNL     1      -2.705  -2.397   0.107  0.00  0.00    +0.046 A 
BRANCH  12  18
ATOM     18  O   UNL     1      -1.260  -0.507   0.123  0.00  0.00    -0.492 OA
BRANCH  18  20
ATOM     19  C   UNL     1       0.071   1.510   0.142  0.00  0.00    +0.048 C 
ATOM     20  C   UNL     1       0.083  -0.020   0.118  0.00  0.00    +0.225 C 
ENDBRANCH  18  20
ENDBRANCH  12  18
ENDBRANCH   1  15
BRANCH   2  21
ATOM     21  C   UNL     1      -2.091  -6.216   2.608  0.00  0.00    +0.098 C 
ATOM     22  N   UNL     1      -1.644  -5.986   3.626  0.00  0.00    -0.191 NA
ENDBRANCH   2  21
BRANCH   3  23
ATOM     23  S   UNL     1      -4.713  -7.668   2.664  0.00  0.00    -0.096 S 
BRANCH  23  24
ATOM     24  C   UNL     1      -6.209  -8.486   2.046  0.00  0.00    +0.172 C 
BRANCH  24  25
ATOM     25  C   UNL     1      -7.037  -8.965   3.210  0.00  0.00    +0.227 C 
ATOM     26  O   UNL     1      -6.655  -8.773   4.346  0.00  0.00    -0.275 OA
ATOM     27  N   UNL     1      -8.202  -9.606   2.990  0.00  0.00    -0.285 N 
ATOM     28  H   UNL     1      -8.541  -9.700   2.087  0.00  0.00    +0.155 HD
BRANCH  27  29
ATOM     29  C   UNL     1      -8.924 -10.136   4.068  0.00  0.00    +0.034 A 
ATOM     30  C   UNL     1      -9.625 -11.325   3.915  0.00  0.00    +0.025 A 
ATOM     31  C   UNL     1     -10.337 -11.848   4.977  0.00  0.00    +0.025 A 
ATOM     32  C   UNL     1     -10.351 -11.184   6.197  0.00  0.00    +0.033 A 
ATOM     33  C   UNL     1      -9.650  -9.995   6.349  0.00  0.00    +0.025 A 
ATOM     34  C   UNL     1      -8.934  -9.476   5.289  0.00  0.00    +0.025 A 
BRANCH  32  35
ATOM     35  N   UNL     1     -11.073 -11.714   7.274  0.00  0.00    -0.286 N 
ATOM     36  C   UNL     1     -11.690 -10.889   8.143  0.00  0.00    +0.214 C 
ATOM     37  O   UNL     1     -11.551  -9.688   8.042  0.00  0.00    -0.276 OA
ATOM     38  C   UNL     1     -12.552 -11.458   9.240  0.00  0.00    +0.109 C 
ATOM     39  H   UNL     1     -11.129 -12.675   7.394  0.00  0.00    +0.155 HD
ENDBRANCH  32  35
ENDBRANCH  27  29
ENDBRANCH  24  25
ENDBRANCH  23  24
ENDBRANCH   3  23
TORSDOF 9
