REMARK  Name = ZINC20832717
REMARK  9 active torsions:
REMARK  status: ('A' for Active; 'I' for Inactive)
REMARK    1  A    between atoms: C_2  and  C_3
REMARK    2  A    between atoms: C_3  and  C_4
REMARK    3  A    between atoms: C_8  and  C_11
REMARK    4  A    between atoms: C_9  and  O_10
REMARK    5  A    between atoms: N_12  and  N_13
REMARK    6  A    between atoms: C_16  and  S_19
REMARK    7  A    between atoms: S_19  and  C_20
REMARK    8  A    between atoms: C_20  and  C_21
REMARK    9  A    between atoms: C_24  and  C_26
REMARK                            x       y       z     vdW  Elec       q    Type
REMARK                         _______ _______ _______ _____ _____    ______ ____
ROOT
ATOM      1  N   UNL     1       4.862   4.155  -0.023  0.00  0.00    -0.205 N 
ATOM      2  C   UNL     1       4.852   5.543  -0.015  0.00  0.00    +0.232 A 
ATOM      3  N   UNL     1       5.952   6.354  -0.022  0.00  0.00    -0.186 NA
ATOM      4  C   UNL     1       5.521   7.650  -0.011  0.00  0.00    +0.211 A 
ATOM      5  N   UNL     1       4.210   7.641   0.003  0.00  0.00    -0.144 NA
ATOM      6  N   UNL     1       3.786   6.305  -0.006  0.00  0.00    -0.245 N 
ATOM      7  H   UNL     1       5.819   3.612  -0.036  0.00  0.00    +0.177 HD
ATOM      8  H   UNL     1       2.784   5.851  -0.006  0.00  0.00    +0.192 HD
ENDROOT
BRANCH   1  10
ATOM      9  C   UNL     1       3.664   2.147  -0.022  0.00  0.00    +0.142 C 
ATOM     10  N   UNL     1       3.654   3.446  -0.015  0.00  0.00    -0.187 NA
BRANCH   9  15
ATOM     11  C   UNL     1      -0.017   1.379   0.010  0.00  0.00    -0.002 A 
ATOM     12  C   UNL     1       0.002  -0.004   0.002  0.00  0.00    +0.007 A 
ATOM     13  C   UNL     1       1.205  -0.688  -0.014  0.00  0.00    +0.001 A 
ATOM     14  C   UNL     1       2.398   0.005  -0.022  0.00  0.00    +0.013 A 
ATOM     15  C   UNL     1       2.393   1.401  -0.014  0.00  0.00    +0.036 A 
ATOM     16  C   UNL     1       1.171   2.089   0.002  0.00  0.00    +0.129 A 
BRANCH  16  17
ATOM     17  O   UNL     1       1.154   3.447   0.009  0.00  0.00    -0.506 OA
ATOM     18  H   UNL     1       2.099   4.010   0.003  0.00  0.00    +0.292 HD
ENDBRANCH  16  17
BRANCH  11  19
ATOM     19  C   UNL     1      -1.333   2.113   0.020  0.00  0.00    +0.065 C 
BRANCH  19  21
ATOM     20  C   UNL     1      -2.880   2.104  -1.868  0.00  0.00    +0.004 C 
ATOM     21  C   UNL     1      -1.718   2.474  -1.392  0.00  0.00    -0.030 C 
ENDBRANCH  19  21
ENDBRANCH  11  19
ENDBRANCH   9  15
ENDBRANCH   1  10
BRANCH   4  22
ATOM     22  S   UNL     1       6.546   9.083  -0.012  0.00  0.00    -0.075 S 
BRANCH  22  23
ATOM     23  C   UNL     1       5.370  10.464   0.007  0.00  0.00    +0.175 C 
BRANCH  23  24
ATOM     24  C   UNL     1       6.127  11.768   0.007  0.00  0.00    +0.228 A 
ATOM     25  N   UNL     1       6.503  12.440  -1.045  0.00  0.00    -0.111 NA
ATOM     26  N   UNL     1       7.125  13.504  -0.676  0.00  0.00    -0.107 NA
ATOM     27  C   UNL     1       7.167  13.548   0.635  0.00  0.00    +0.248 A 
ATOM     28  O   UNL     1       6.530  12.451   1.092  0.00  0.00    -0.419 OA
BRANCH  27  29
ATOM     29  C   UNL     1       7.792  14.606   1.457  0.00  0.00    +0.039 A 
ATOM     30  C   UNL     1       7.756  14.523   2.850  0.00  0.00    +0.014 A 
ATOM     31  C   UNL     1       8.345  15.511   3.612  0.00  0.00    +0.021 A 
ATOM     32  C   UNL     1       8.960  16.588   2.997  0.00  0.00    +0.041 A 
ATOM     33  C   UNL     1       8.995  16.678   1.616  0.00  0.00    +0.021 A 
ATOM     34  C   UNL     1       8.414  15.694   0.844  0.00  0.00    +0.014 A 
ATOM     35 CL   UNL     1       9.693  17.831   3.963  0.00  0.00    -0.084 Cl
ENDBRANCH  27  29
ENDBRANCH  23  24
ENDBRANCH  22  23
ENDBRANCH   4  22
TORSDOF 9
