REMARK  Name = ZINC39655953
REMARK  9 active torsions:
REMARK  status: ('A' for Active; 'I' for Inactive)
REMARK    1  A    between atoms: C_1  and  C_2
REMARK    2  A    between atoms: C_8  and  C_11
REMARK    3  A    between atoms: C_11  and  C_12
REMARK    4  A    between atoms: C_12  and  N_13
REMARK    5  A    between atoms: C_14  and  C_16
REMARK    6  A    between atoms: C_27  and  C_29
REMARK    7  A    between atoms: C_29  and  C_31
REMARK    8  A    between atoms: C_29  and  O_32
REMARK    9  A    between atoms: O_32  and  C_33
REMARK                            x       y       z     vdW  Elec       q    Type
REMARK                         _______ _______ _______ _____ _____    ______ ____
ROOT
ATOM      1  C   UNL     1       4.523  -1.008  -7.480  0.00  0.00    +0.100 C 
ATOM      2  C   UNL     1       5.383  -0.237  -6.453  0.00  0.00    +0.121 C 
ATOM      3  N   UNL     1       6.188  -1.282  -5.779  0.00  0.00    -0.297 N 
ATOM      4  C   UNL     1       6.561  -2.219  -6.867  0.00  0.00    +0.115 C 
ATOM      5  C   UNL     1       5.302  -2.306  -7.751  0.00  0.00    -0.004 C 
ATOM      6  C   UNL     1       5.695  -2.389  -9.223  0.00  0.00    -0.010 C 
ATOM      7  C   UNL     1       6.416  -3.715  -9.481  0.00  0.00    -0.082 C 
ATOM      8  N   UNL     1       5.532  -4.832  -9.126  0.00  0.00    +0.379 N 
ATOM      9  C   UNL     1       5.234  -4.798  -7.689  0.00  0.00    -0.082 C 
ATOM     10  C   UNL     1       4.463  -3.518  -7.356  0.00  0.00    -0.010 C 
ATOM     11  C   UNL     1       6.510  -1.364  -4.473  0.00  0.00    +0.256 C 
ATOM     12  O   UNL     1       7.183  -2.289  -4.070  0.00  0.00    -0.272 OA
ATOM     13  H   UNL     1       4.672  -4.757  -9.649  0.00  0.00    -0.086 HD
ATOM     14  H   UNL     1       5.986  -5.704  -9.354  0.00  0.00    -0.086 HD
ENDROOT
BRANCH   1  16
ATOM     15  N   UNL     1       2.101  -1.450  -7.713  0.00  0.00    -0.315 N 
ATOM     16  C   UNL     1       3.168  -1.320  -6.900  0.00  0.00    +0.218 C 
ATOM     17  O   UNL     1       3.037  -1.455  -5.702  0.00  0.00    -0.275 OA
ATOM     18  H   UNL     1       2.205  -1.342  -8.671  0.00  0.00    +0.149 HD
BRANCH  15  19
ATOM     19  C   UNL     1       0.783  -1.753  -7.149  0.00  0.00    +0.109 C 
BRANCH  19  20
ATOM     20  C   UNL     1      -0.246  -1.846  -8.278  0.00  0.00    +0.056 C 
BRANCH  20  28
ATOM     21  C   UNL     1      -3.651   2.317  -6.307  0.00  0.00    +0.044 C 
ATOM     22  C   UNL     1      -3.649   0.818  -6.464  0.00  0.00    -0.050 A 
ATOM     23  C   UNL     1      -4.747   0.081  -6.044  0.00  0.00    +0.005 A 
ATOM     24  C   UNL     1      -4.766  -1.291  -6.178  0.00  0.00    +0.026 A 
ATOM     25  C   UNL     1      -3.674  -1.945  -6.739  0.00  0.00    +0.047 A 
ATOM     26  N   UNL     1      -3.394  -3.267  -7.003  0.00  0.00    -0.360 N 
ATOM     27  C   UNL     1      -2.155  -3.375  -7.574  0.00  0.00    +0.087 A 
ATOM     28  C   UNL     1      -1.601  -2.159  -7.698  0.00  0.00    -0.021 A 
ATOM     29  C   UNL     1      -2.564  -1.192  -7.163  0.00  0.00    +0.003 A 
ATOM     30  C   UNL     1      -2.568   0.196  -7.023  0.00  0.00    +0.013 A 
ATOM     31  H   UNL     1      -3.986  -4.011  -6.811  0.00  0.00    +0.165 HD
ENDBRANCH  20  28
ENDBRANCH  19  20
ENDBRANCH  15  19
ENDBRANCH   1  16
BRANCH  11  32
ATOM     32  C   UNL     1       6.033  -0.305  -3.512  0.00  0.00    +0.256 C 
ATOM     33  C   UNL     1       6.678   1.036  -3.870  0.00  0.00    +0.062 C 
BRANCH  32  34
ATOM     34  O   UNL     1       6.399  -0.670  -2.180  0.00  0.00    -0.480 OA
BRANCH  34  35
ATOM     35  C   UNL     1       5.645  -0.161  -1.171  0.00  0.00    +0.122 A 
ATOM     36  C   UNL     1       4.642   0.757  -1.448  0.00  0.00    +0.045 A 
ATOM     37  C   UNL     1       3.876   1.273  -0.421  0.00  0.00    +0.004 A 
ATOM     38  C   UNL     1       4.109   0.876   0.883  0.00  0.00    +0.000 A 
ATOM     39  C   UNL     1       5.108  -0.038   1.162  0.00  0.00    +0.004 A 
ATOM     40  C   UNL     1       5.873  -0.561   0.137  0.00  0.00    +0.045 A 
ENDBRANCH  34  35
ENDBRANCH  32  34
ENDBRANCH  11  32
TORSDOF 7
