REMARK  Name = ZINC02072515
REMARK  6 active torsions:
REMARK  status: ('A' for Active; 'I' for Inactive)
REMARK    1  A    between atoms: C_1  and  C_2
REMARK    2  A    between atoms: C_2  and  C_4
REMARK    3  A    between atoms: C_2  and  N_16
REMARK    4  A    between atoms: C_4  and  N_5
REMARK    5  A    between atoms: N_8  and  C_9
REMARK    6  A    between atoms: N_19  and  C_20
REMARK                            x       y       z     vdW  Elec       q    Type
REMARK                         _______ _______ _______ _____ _____    ______ ____
ROOT
ATOM      1  C   UNL     1       3.536   6.327   1.946  0.00  0.00    +0.029 C 
ATOM      2  C   UNL     1       3.268   6.294   0.440  0.00  0.00    +0.088 C 
ENDROOT
BRANCH   2   3
ATOM      3  N   UNL     1       2.096   5.458   0.170  0.00  0.00    -0.295 N 
ATOM      4  C   UNL     1       2.235   4.123   0.044  0.00  0.00    +0.304 C 
ATOM      5  O   UNL     1       3.333   3.613   0.155  0.00  0.00    -0.253 OA
ATOM      6  N   UNL     1       1.156   3.354  -0.203  0.00  0.00    -0.269 N 
ATOM      7  H   UNL     1       1.220   5.865   0.082  0.00  0.00    +0.151 HD
ATOM      8  H   UNL     1       0.292   3.766  -0.358  0.00  0.00    +0.156 HD
BRANCH   6   9
ATOM      9  C   UNL     1       1.284   1.960  -0.237  0.00  0.00    +0.035 A 
ATOM     10  C   UNL     1       0.256   1.156   0.238  0.00  0.00    +0.025 A 
ATOM     11  C   UNL     1       0.384  -0.219   0.203  0.00  0.00    +0.022 A 
ATOM     12  C   UNL     1       1.535  -0.795  -0.305  0.00  0.00    +0.041 A 
ATOM     13  C   UNL     1       2.561   0.004  -0.779  0.00  0.00    +0.022 A 
ATOM     14  C   UNL     1       2.438   1.379  -0.746  0.00  0.00    +0.025 A 
ATOM     15 CL   UNL     1       1.693  -2.523  -0.347  0.00  0.00    -0.084 Cl
ENDBRANCH   6   9
ENDBRANCH   2   3
BRANCH   2  16
ATOM     16  C   UNL     1       3.008   7.715  -0.064  0.00  0.00    +0.127 C 
BRANCH  16  17
ATOM     17  N   UNL     1       2.635   7.671  -1.480  0.00  0.00    -0.297 N 
ATOM     18  C   UNL     1       2.357   8.813  -2.140  0.00  0.00    +0.304 C 
ATOM     19  O   UNL     1       2.417   9.880  -1.560  0.00  0.00    -0.253 OA
ATOM     20  N   UNL     1       2.014   8.772  -3.442  0.00  0.00    -0.269 N 
ATOM     21  H   UNL     1       2.587   6.819  -1.943  0.00  0.00    +0.150 HD
ATOM     22  H   UNL     1       1.894   7.918  -3.886  0.00  0.00    +0.156 HD
BRANCH  20  23
ATOM     23  C   UNL     1       1.831   9.963  -4.156  0.00  0.00    +0.035 A 
ATOM     24  C   UNL     1       0.886  10.027  -5.171  0.00  0.00    +0.025 A 
ATOM     25  C   UNL     1       0.703  11.204  -5.869  0.00  0.00    +0.022 A 
ATOM     26  C   UNL     1       1.470  12.316  -5.566  0.00  0.00    +0.041 A 
ATOM     27  C   UNL     1       2.416  12.253  -4.559  0.00  0.00    +0.022 A 
ATOM     28  C   UNL     1       2.599  11.079  -3.853  0.00  0.00    +0.025 A 
ATOM     29 CL   UNL     1       1.242  13.793  -6.450  0.00  0.00    -0.084 Cl
ENDBRANCH  20  23
ENDBRANCH  16  17
ENDBRANCH   2  16
TORSDOF 5
