REMARK  Name = ZINC40323064
REMARK  9 active torsions:
REMARK  status: ('A' for Active; 'I' for Inactive)
REMARK    1  A    between atoms: C_1  and  N_2
REMARK    2  A    between atoms: N_2  and  C_3
REMARK    3  A    between atoms: N_2  and  C_4
REMARK    4  A    between atoms: C_4  and  C_6
REMARK    5  A    between atoms: C_4  and  C_25
REMARK    6  A    between atoms: C_6  and  N_7
REMARK    7  A    between atoms: C_8  and  C_10
REMARK    8  A    between atoms: C_13  and  S_15
REMARK    9  A    between atoms: S_15  and  C_18
REMARK                            x       y       z     vdW  Elec       q    Type
REMARK                         _______ _______ _______ _____ _____    ______ ____
ROOT
ATOM      1  N   UNL     1       0.044  -2.014   1.012  0.00  0.00    -0.310 N 
ATOM      2  C   UNL     1       0.458  -3.278   1.232  0.00  0.00    +0.279 C 
ATOM      3  O   UNL     1       0.106  -4.172   0.484  0.00  0.00    -0.267 OA
ATOM      4  H   UNL     1       0.325  -1.302   1.609  0.00  0.00    +0.149 HD
ENDROOT
BRANCH   2   5
ATOM      5  C   UNL     1       1.331  -3.577   2.372  0.00  0.00    +0.192 A 
ATOM      6  C   UNL     1       1.824  -4.806   2.704  0.00  0.00    +0.056 A 
ATOM      7  C   UNL     1       2.607  -4.629   3.855  0.00  0.00    +0.070 A 
ATOM      8  C   UNL     1       2.558  -3.316   4.171  0.00  0.00    +0.246 A 
ATOM      9  O   UNL     1       1.792  -2.685   3.272  0.00  0.00    -0.433 OA
BRANCH   8  10
ATOM     10  S   UNL     1       3.372  -2.558   5.538  0.00  0.00    +0.058 S 
ATOM     11  O   UNL     1       2.649  -1.371   5.835  0.00  0.00    -0.161 OA
ATOM     12  O   UNL     1       3.585  -3.581   6.502  0.00  0.00    -0.161 OA
BRANCH  10  13
ATOM     13  C   UNL     1       4.965  -2.052   4.981  0.00  0.00    +0.097 A 
ATOM     14  C   UNL     1       6.038  -2.917   5.078  0.00  0.00    +0.028 A 
ATOM     15  C   UNL     1       7.288  -2.521   4.640  0.00  0.00    +0.017 A 
ATOM     16  C   UNL     1       7.464  -1.257   4.105  0.00  0.00    +0.018 A 
ATOM     17  C   UNL     1       6.390  -0.392   4.008  0.00  0.00    +0.017 A 
ATOM     18  C   UNL     1       5.139  -0.791   4.441  0.00  0.00    +0.028 A 
ATOM     19 BR   UNL     1       9.174  -0.714   3.507  0.00  0.00    -0.050 Br
ENDBRANCH  10  13
ENDBRANCH   8  10
ENDBRANCH   2   5
BRANCH   1  20
ATOM     20  C   UNL     1      -0.828  -1.716  -0.126  0.00  0.00    +0.094 C 
BRANCH  20  21
ATOM     21  C   UNL     1      -1.251  -0.247  -0.073  0.00  0.00    -0.014 C 
BRANCH  21  22
ATOM     22  C   UNL     1      -2.103  -0.013   1.148  0.00  0.00    -0.022 A 
ATOM     23  C   UNL     1      -1.753   0.526   2.342  0.00  0.00    +0.009 A 
ATOM     24  C   UNL     1      -2.713   0.645   3.330  0.00  0.00    +0.008 A 
ATOM     25  C   UNL     1      -3.974   0.220   3.076  0.00  0.00    +0.045 A 
ATOM     26  S   UNL     1      -3.835  -0.366   1.395  0.00  0.00    -0.103 S 
ENDBRANCH  21  22
BRANCH  21  28
ATOM     27  C   UNL     1      -2.489   1.475  -1.195  0.00  0.00    -0.096 C 
ATOM     28  N   UNL     1      -2.022   0.085  -1.279  0.00  0.00    +0.382 N 
ATOM     29  C   UNL     1      -1.170  -0.075  -2.465  0.00  0.00    -0.096 C 
ATOM     30  H   UNL     1      -2.817  -0.533  -1.350  0.00  0.00    -0.082 HD
ENDBRANCH  21  28
ENDBRANCH  20  21
ENDBRANCH   1  20
TORSDOF 7
