REMARK  Name = ZINC40549536
REMARK  5 active torsions:
REMARK  status: ('A' for Active; 'I' for Inactive)
REMARK    1  A    between atoms: C_3  and  C_24
REMARK    2  A    between atoms: C_6  and  C_7
REMARK    3  A    between atoms: C_8  and  C_9
REMARK    4  A    between atoms: C_8  and  C_11
REMARK    5  A    between atoms: C_11  and  C_13
REMARK                            x       y       z     vdW  Elec       q    Type
REMARK                         _______ _______ _______ _____ _____    ______ ____
ROOT
ATOM      1  C   UNL     1       0.000  -2.917  -0.063  0.00  0.00    +0.205 C 
ATOM      2  O   UNL     1       1.041  -2.308   0.105  0.00  0.00    -0.286 OA
ENDROOT
BRANCH   1   3
ATOM      3  C   UNL     1       0.026  -4.368  -0.290  0.00  0.00    +0.048 A 
ATOM      4  C   UNL     1      -1.052  -5.195  -0.415  0.00  0.00    +0.095 A 
ATOM      5  N   UNL     1      -0.632  -6.468  -0.615  0.00  0.00    -0.360 N 
ATOM      6  H   UNL     1      -1.218  -7.232  -0.732  0.00  0.00    +0.165 HD
ATOM      7  C   UNL     1       0.746  -6.524  -0.629  0.00  0.00    +0.050 A 
ATOM      8  C   UNL     1       1.223  -5.218  -0.434  0.00  0.00    +0.011 A 
ATOM      9  C   UNL     1       2.593  -4.970  -0.408  0.00  0.00    +0.013 A 
ATOM     10  C   UNL     1       3.479  -6.012  -0.578  0.00  0.00    +0.039 A 
ATOM     11  C   UNL     1       3.010  -7.304  -0.775  0.00  0.00    +0.125 A 
ATOM     12  C   UNL     1       1.654  -7.564  -0.795  0.00  0.00    +0.064 A 
ATOM     13  F   UNL     1       3.888  -8.317  -0.942  0.00  0.00    -0.205 F 
ENDBRANCH   1   3
BRANCH   1  15
ATOM     14  C   UNL     1      -1.541  -1.223  -0.961  0.00  0.00    +0.030 C 
ATOM     15  C   UNL     1      -1.286  -2.198  -0.039  0.00  0.00    +0.100 C 
BRANCH  14  21
ATOM     16  C   UNL     1       0.140  -2.062  -2.588  0.00  0.00    +0.009 A 
ATOM     17  C   UNL     1       1.014  -1.846  -3.616  0.00  0.00    +0.019 A 
ATOM     18  C   UNL     1       1.169  -0.561  -4.145  0.00  0.00    +0.052 A 
ATOM     19  C   UNL     1       0.430   0.505  -3.623  0.00  0.00    +0.019 A 
ATOM     20  C   UNL     1      -0.445   0.294  -2.596  0.00  0.00    +0.009 A 
ATOM     21  C   UNL     1      -0.602  -0.994  -2.064  0.00  0.00    -0.024 A 
BRANCH  18  22
ATOM     22  C   UNL     1       2.086  -0.337  -5.222  0.00  0.00    +0.099 C 
ATOM     23  N   UNL     1       2.813  -0.159  -6.076  0.00  0.00    -0.191 NA
ENDBRANCH  18  22
ENDBRANCH  14  21
BRANCH  15  24
ATOM     24  C   UNL     1      -2.269  -2.522   0.951  0.00  0.00    +0.103 C 
ATOM     25  N   UNL     1      -3.048  -2.779   1.736  0.00  0.00    -0.191 NA
ENDBRANCH  15  24
ENDBRANCH   1  15
TORSDOF 5
