REMARK  Name = ZINC11156361
REMARK  4 active torsions:
REMARK  status: ('A' for Active; 'I' for Inactive)
REMARK    1  A    between atoms: C_1  and  C_2
REMARK    2  A    between atoms: C_2  and  N_3
REMARK    3  A    between atoms: N_14  and  N_15
REMARK    4  A    between atoms: C_16  and  C_18
REMARK                            x       y       z     vdW  Elec       q    Type
REMARK                         _______ _______ _______ _____ _____    ______ ____
ROOT
ATOM      1  N   UNL     1       0.711  -0.489   1.189  0.00  0.00    -0.280 N 
ATOM      2  C   UNL     1       2.048  -0.689   1.137  0.00  0.00    +0.263 A 
ATOM      3  O   UNL     1       2.679  -0.473   0.119  0.00  0.00    -0.267 OA
ATOM      4  C   UNL     1       2.710  -1.177   2.355  0.00  0.00    +0.065 A 
ATOM      5  C   UNL     1       4.083  -1.413   2.403  0.00  0.00    +0.015 A 
ATOM      6  C   UNL     1       4.648  -1.867   3.563  0.00  0.00    +0.001 A 
ATOM      7  C   UNL     1       3.869  -2.094   4.691  0.00  0.00    +0.002 A 
ATOM      8  C   UNL     1       2.521  -1.870   4.671  0.00  0.00    +0.028 A 
ATOM      9  C   UNL     1       1.914  -1.406   3.500  0.00  0.00    +0.080 A 
ATOM     10  N   UNL     1       0.583  -1.170   3.436  0.00  0.00    -0.214 NA
ATOM     11  C   UNL     1       0.018  -0.731   2.339  0.00  0.00    +0.216 A 
ATOM     12  N   UNL     1      -1.336  -0.508   2.345  0.00  0.00    -0.233 N 
ATOM     13  H   UNL     1      -1.779  -0.186   1.544  0.00  0.00    +0.173 HD
ENDROOT
BRANCH  12  14
ATOM     14  N   UNL     1      -2.080  -0.745   3.509  0.00  0.00    -0.229 N 
ATOM     15  C   UNL     1      -3.410  -0.526   3.515  0.00  0.00    +0.278 C 
ATOM     16  O   UNL     1      -3.964  -0.123   2.512  0.00  0.00    -0.267 OA
ATOM     17  H   UNL     1      -1.638  -1.067   4.310  0.00  0.00    +0.173 HD
BRANCH  15  18
ATOM     18  C   UNL     1      -4.197  -0.777   4.747  0.00  0.00    +0.127 A 
ATOM     19  C   UNL     1      -5.581  -0.549   4.734  0.00  0.00    +0.034 A 
ATOM     20  C   UNL     1      -6.317  -0.776   5.861  0.00  0.00    +0.012 A 
ATOM     21  C   UNL     1      -5.649  -1.237   7.011  0.00  0.00    +0.000 A 
ATOM     22  C   UNL     1      -6.343  -1.492   8.204  0.00  0.00    +0.010 A 
ATOM     23  C   UNL     1      -5.664  -1.938   9.297  0.00  0.00    +0.001 A 
ATOM     24  C   UNL     1      -4.286  -2.145   9.248  0.00  0.00    +0.002 A 
ATOM     25  C   UNL     1      -3.580  -1.909   8.110  0.00  0.00    +0.028 A 
ATOM     26  C   UNL     1      -4.246  -1.448   6.958  0.00  0.00    +0.072 A 
ATOM     27  N   UNL     1      -3.580  -1.214   5.827  0.00  0.00    -0.242 NA
ENDBRANCH  15  18
ENDBRANCH  12  14
BRANCH   1  29
ATOM     28  C   UNL     1      -0.019   1.526   0.010  0.00  0.00    +0.027 C 
ATOM     29  C   UNL     1       0.002  -0.004   0.002  0.00  0.00    +0.125 C 
ENDBRANCH   1  29
TORSDOF 3
