REMARK  Name = ZINC25382482
REMARK  12 active torsions:
REMARK  status: ('A' for Active; 'I' for Inactive)
REMARK    1  A    between atoms: C_1  and  N_2
REMARK    2  A    between atoms: N_2  and  C_3
REMARK    3  A    between atoms: N_2  and  C_4
REMARK    4  A    between atoms: C_4  and  C_6
REMARK    5  A    between atoms: C_4  and  C_13
REMARK    6  A    between atoms: C_6  and  C_7
REMARK    7  A    between atoms: C_13  and  N_14
REMARK    8  A    between atoms: C_15  and  C_17
REMARK    9  A    between atoms: C_21  and  S_23
REMARK   10  A    between atoms: S_23  and  N_26
REMARK   11  A    between atoms: N_26  and  C_27
REMARK   12  A    between atoms: C_27  and  C_28
REMARK                            x       y       z     vdW  Elec       q    Type
REMARK                         _______ _______ _______ _____ _____    ______ ____
ROOT
ATOM      1  C   UNL     1      -6.628  -1.014   4.548  0.00  0.00    +0.039 A 
ATOM      2  C   UNL     1      -6.125  -0.183   5.551  0.00  0.00    +0.013 A 
ATOM      3  C   UNL     1      -6.747  -0.140   6.782  0.00  0.00    +0.003 A 
ATOM      4  C   UNL     1      -7.860  -0.925   7.027  0.00  0.00    +0.028 A 
ATOM      5  C   UNL     1      -8.360  -1.754   6.038  0.00  0.00    +0.106 A 
ATOM      6  C   UNL     1      -7.751  -1.803   4.801  0.00  0.00    +0.041 A 
ENDROOT
BRANCH   1   8
ATOM      7  N   UNL     1      -4.886  -0.299   2.983  0.00  0.00    -0.313 N 
ATOM      8  C   UNL     1      -5.970  -1.062   3.225  0.00  0.00    +0.244 C 
ATOM      9  O   UNL     1      -6.407  -1.790   2.355  0.00  0.00    -0.270 OA
ATOM     10  H   UNL     1      -4.490   0.360   3.771  0.00  0.00    +0.149 HD
BRANCH   7  11
ATOM     11  C   UNL     1      -4.234  -0.347   1.672  0.00  0.00    +0.089 C 
BRANCH  11  12
ATOM     12  C   UNL     1      -3.038   0.607   1.663  0.00  0.00    -0.048 C 
BRANCH  12  14
ATOM     13  C   UNL     1      -2.334   2.848   2.251  0.00  0.00    -0.096 C 
ATOM     14  N   UNL     1      -3.481   1.953   2.047  0.00  0.00    +0.379 N 
ATOM     15  C   UNL     1      -4.410   2.506   1.052  0.00  0.00    -0.096 C 
ATOM     16  H   UNL     1      -4.020   1.871   3.003  0.00  0.00    -0.082 HD
ENDBRANCH  12  14
BRANCH  12  17
ATOM     17  C   UNL     1      -2.432   0.651   0.258  0.00  0.00    +0.021 C 
BRANCH  17  18
ATOM     18  C   UNL     1      -1.856  -0.699  -0.084  0.00  0.00    -0.049 A 
ATOM     19  C   UNL     1      -2.607  -1.608  -0.805  0.00  0.00    +0.003 A 
ATOM     20  C   UNL     1      -2.077  -2.844  -1.123  0.00  0.00    +0.000 A 
ATOM     21  C   UNL     1      -0.798  -3.173  -0.716  0.00  0.00    +0.000 A 
ATOM     22  C   UNL     1      -0.049  -2.266   0.010  0.00  0.00    +0.000 A 
ATOM     23  C   UNL     1      -0.579  -1.030   0.328  0.00  0.00    +0.003 A 
ENDBRANCH  17  18
ENDBRANCH  12  17
ENDBRANCH  11  12
ENDBRANCH   7  11
ENDBRANCH   1   8
BRANCH   5  24
ATOM     24  S   UNL     1      -9.778  -2.749   6.361  0.00  0.00    +0.059 S 
ATOM     25  O   UNL     1     -10.488  -2.115   7.415  0.00  0.00    -0.153 OA
ATOM     26  O   UNL     1     -10.373  -3.027   5.101  0.00  0.00    -0.153 OA
BRANCH  24  27
ATOM     27  N   UNL     1      -9.236  -4.195   6.958  0.00  0.00    -0.186 NA
ATOM     28  H   UNL     1      -9.252  -5.084   6.310  0.00  0.00    +0.148 HD
BRANCH  27  29
ATOM     29  C   UNL     1      -8.543  -4.241   8.248  0.00  0.00    +0.141 C 
BRANCH  29  30
ATOM     30  C   UNL     1      -8.483  -5.666   8.735  0.00  0.00    -0.028 A 
ATOM     31  C   UNL     1      -9.497  -6.167   9.529  0.00  0.00    +0.009 A 
ATOM     32  C   UNL     1      -9.449  -7.475   9.974  0.00  0.00    +0.050 A 
ATOM     33  C   UNL     1      -8.377  -8.284   9.634  0.00  0.00    +0.166 A 
ATOM     34  C   UNL     1      -7.353  -7.778   8.838  0.00  0.00    +0.167 A 
ATOM     35  C   UNL     1      -7.410  -6.468   8.391  0.00  0.00    +0.054 A 
ATOM     36  O   UNL     1      -6.424  -8.760   8.646  0.00  0.00    -0.453 OA
ATOM     37  C   UNL     1      -6.686  -9.742   9.666  0.00  0.00    +0.466 C 
ATOM     38  O   UNL     1      -8.091  -9.583   9.941  0.00  0.00    -0.453 OA
ENDBRANCH  29  30
ENDBRANCH  27  29
ENDBRANCH  24  27
ENDBRANCH   5  24
TORSDOF 10
