REMARK  Name = ZINC38620697
REMARK  11 active torsions:
REMARK  status: ('A' for Active; 'I' for Inactive)
REMARK    1  A    between atoms: C_1  and  C_2
REMARK    2  A    between atoms: C_2  and  C_3
REMARK    3  A    between atoms: C_2  and  C_4
REMARK    4  A    between atoms: C_7  and  O_10
REMARK    5  A    between atoms: O_10  and  C_11
REMARK    6  A    between atoms: C_11  and  C_12
REMARK    7  A    between atoms: N_14  and  C_15
REMARK    8  A    between atoms: C_15  and  C_16
REMARK    9  A    between atoms: C_16  and  C_18
REMARK   10  A    between atoms: C_16  and  N_27
REMARK   11  A    between atoms: N_30  and  C_33
REMARK                            x       y       z     vdW  Elec       q    Type
REMARK                         _______ _______ _______ _____ _____    ______ ____
ROOT
ATOM      1  C   UNL     1      -9.404  -5.315  -2.807  0.00  0.00    +0.104 C 
ENDROOT
BRANCH   1   2
ATOM      2  C   UNL     1     -10.899  -5.499  -2.747  0.00  0.00    -0.025 A 
ATOM      3  C   UNL     1     -11.737  -4.492  -3.187  0.00  0.00    +0.009 A 
ATOM      4  C   UNL     1     -13.108  -4.657  -3.134  0.00  0.00    +0.050 A 
ATOM      5  C   UNL     1     -13.646  -5.833  -2.638  0.00  0.00    +0.166 A 
ATOM      6  C   UNL     1     -12.802  -6.848  -2.195  0.00  0.00    +0.167 A 
ATOM      7  C   UNL     1     -11.429  -6.678  -2.256  0.00  0.00    +0.054 A 
ATOM      8  O   UNL     1     -13.567  -7.892  -1.759  0.00  0.00    -0.453 OA
ATOM      9  C   UNL     1     -14.884  -7.346  -1.560  0.00  0.00    +0.466 C 
ATOM     10  O   UNL     1     -14.940  -6.241  -2.480  0.00  0.00    -0.453 OA
ENDBRANCH   1   2
BRANCH   1  11
ATOM     11  N   UNL     1      -9.046  -4.631  -4.057  0.00  0.00    -0.291 NA
ATOM     12  C   UNL     1      -9.525  -5.383  -5.224  0.00  0.00    +0.104 C 
ATOM     13  C   UNL     1      -9.293  -4.553  -6.492  0.00  0.00    +0.120 C 
ATOM     14  N   UNL     1      -7.876  -4.163  -6.542  0.00  0.00    -0.325 N 
ATOM     15  C   UNL     1      -7.287  -3.526  -5.354  0.00  0.00    +0.120 C 
ATOM     16  C   UNL     1      -7.598  -4.396  -4.131  0.00  0.00    +0.104 C 
BRANCH  14  17
ATOM     17  C   UNL     1      -7.109  -4.390  -7.689  0.00  0.00    +0.065 A 
ATOM     18  C   UNL     1      -7.035  -3.421  -8.681  0.00  0.00    +0.026 A 
ATOM     19  C   UNL     1      -6.276  -3.648  -9.812  0.00  0.00    +0.002 A 
ATOM     20  C   UNL     1      -5.590  -4.840  -9.960  0.00  0.00    +0.003 A 
ATOM     21  C   UNL     1      -5.661  -5.809  -8.976  0.00  0.00    +0.040 A 
ATOM     22  C   UNL     1      -6.413  -5.586  -7.837  0.00  0.00    +0.144 A 
ATOM     23  F   UNL     1      -6.478  -6.529  -6.873  0.00  0.00    -0.204 F 
ENDBRANCH  14  17
ENDBRANCH   1  11
BRANCH   1  24
ATOM     24  C   UNL     1      -8.946  -4.472  -1.615  0.00  0.00    +0.128 C 
BRANCH  24  27
ATOM     25  C   UNL     1      -9.007  -4.596   0.818  0.00  0.00    +0.251 C 
ATOM     26  O   UNL     1      -8.573  -3.464   0.857  0.00  0.00    -0.272 OA
ATOM     27  N   UNL     1      -9.229  -5.192  -0.371  0.00  0.00    -0.311 N 
ATOM     28  H   UNL     1      -9.576  -6.097  -0.402  0.00  0.00    +0.149 HD
BRANCH  25  29
ATOM     29  C   UNL     1      -9.298  -5.337   2.098  0.00  0.00    +0.324 C 
BRANCH  29  30
ATOM     30  O   UNL     1      -8.984  -4.501   3.213  0.00  0.00    -0.483 OA
BRANCH  30  34
ATOM     31  C   UNL     1      -9.612  -6.080   6.972  0.00  0.00    -0.045 A 
ATOM     32  C   UNL     1      -9.118  -4.796   6.837  0.00  0.00    +0.007 A 
ATOM     33  C   UNL     1      -8.907  -4.265   5.579  0.00  0.00    +0.046 A 
ATOM     34  C   UNL     1      -9.190  -5.021   4.452  0.00  0.00    +0.121 A 
ATOM     35  C   UNL     1      -9.685  -6.310   4.590  0.00  0.00    +0.046 A 
ATOM     36  C   UNL     1      -9.890  -6.838   5.850  0.00  0.00    +0.007 A 
BRANCH  31  38
ATOM     37  C   UNL     1      -8.520  -6.680   9.117  0.00  0.00    +0.012 C 
ATOM     38  C   UNL     1      -9.841  -6.657   8.345  0.00  0.00    +0.013 C 
ATOM     39  C   UNL     1     -10.857  -5.794   9.098  0.00  0.00    +0.012 C 
ENDBRANCH  31  38
ENDBRANCH  30  34
ENDBRANCH  29  30
ENDBRANCH  25  29
ENDBRANCH  24  27
ENDBRANCH   1  24
TORSDOF 9
