REMARK  Name = ZINC62407020
REMARK  1 active torsions:
REMARK  status: ('A' for Active; 'I' for Inactive)
REMARK    1  A    between atoms: C_7  and  N_9
REMARK                            x       y       z     vdW  Elec       q    Type
REMARK                         _______ _______ _______ _____ _____    ______ ____
ROOT
ATOM      1  N   UNL     1       0.061  -1.887  -1.563  0.00  0.00    -0.288 N 
ATOM      2  C   UNL     1      -0.008  -2.365  -2.821  0.00  0.00    +0.303 C 
ATOM      3  O   UNL     1       0.262  -1.644  -3.762  0.00  0.00    -0.253 OA
ATOM      4  N   UNL     1      -0.378  -3.643  -3.037  0.00  0.00    -0.282 N 
ATOM      5  C   UNL     1      -0.808  -4.428  -1.914  0.00  0.00    +0.113 C 
ATOM      6  C   UNL     1      -1.880  -5.415  -2.265  0.00  0.00    +0.007 C 
ATOM      7  C   UNL     1      -2.983  -4.810  -3.118  0.00  0.00    +0.008 C 
ATOM      8  C   UNL     1      -2.717  -4.859  -4.609  0.00  0.00    -0.009 C 
ATOM      9  C   UNL     1      -2.300  -6.266  -5.047  0.00  0.00    +0.007 C 
ATOM     10  C   UNL     1      -1.032  -6.625  -4.269  0.00  0.00    -0.009 C 
ATOM     11  C   UNL     1      -1.392  -6.737  -2.787  0.00  0.00    +0.008 C 
ATOM     12  C   UNL     1       0.065  -5.609  -4.493  0.00  0.00    +0.026 C 
ATOM     13  C   UNL     1      -0.328  -4.158  -4.394  0.00  0.00    +0.078 C 
ATOM     14  C   UNL     1      -1.661  -3.867  -5.074  0.00  0.00    +0.026 C 
ATOM     15  H   UNL     1      -0.223  -2.439  -0.818  0.00  0.00    +0.151 HD
ENDROOT
BRANCH   1  22
ATOM     16  C   UNL     1      -0.009   1.509   0.017  0.00  0.00    +0.004 C 
ATOM     17  C   UNL     1       1.370   2.143  -0.000  0.00  0.00    +0.019 C 
ATOM     18  C   UNL     1       2.078   1.873  -1.329  0.00  0.00    +0.104 C 
ATOM     19  N   UNL     1       2.771   0.578  -1.239  0.00  0.00    -0.314 N 
ATOM     20  C   UNL     1       2.078  -0.561  -1.237  0.00  0.00    +0.233 C 
ATOM     21  O   UNL     1       2.659  -1.623  -1.167  0.00  0.00    -0.274 OA
ATOM     22  C   UNL     1       0.566  -0.533  -1.321  0.00  0.00    +0.160 C 
ATOM     23  C   UNL     1       0.015  -0.009   0.006  0.00  0.00    +0.032 C 
ATOM     24  H   UNL     1       3.739   0.553  -1.180  0.00  0.00    +0.149 HD
ENDBRANCH   1  22
TORSDOF 1
