REMARK  Name = ZINC29691150
REMARK  8 active torsions:
REMARK  status: ('A' for Active; 'I' for Inactive)
REMARK    1  A    between atoms: C_1  and  C_2
REMARK    2  A    between atoms: C_4  and  C_25
REMARK    3  A    between atoms: C_5  and  C_22
REMARK    4  A    between atoms: C_6  and  C_21
REMARK    5  A    between atoms: C_7  and  C_8
REMARK    6  A    between atoms: C_8  and  N_9
REMARK    7  A    between atoms: N_9  and  C_10
REMARK    8  A    between atoms: C_22  and  C_24
REMARK                            x       y       z     vdW  Elec       q    Type
REMARK                         _______ _______ _______ _____ _____    ______ ____
ROOT
ATOM      1  C   UNL     1      -1.041   1.293   0.125  0.00  0.00    +0.137 C 
ENDROOT
BRANCH   1   8
ATOM      2  C   UNL     1      -2.138   0.189   2.555  0.00  0.00    +0.044 C 
ATOM      3  C   UNL     1      -2.840  -0.043   1.242  0.00  0.00    -0.045 A 
ATOM      4  C   UNL     1      -4.008  -0.784   1.207  0.00  0.00    +0.007 A 
ATOM      5  C   UNL     1      -4.657  -1.001   0.010  0.00  0.00    -0.039 A 
ATOM      6  C   UNL     1      -4.131  -0.470  -1.172  0.00  0.00    +0.023 A 
ATOM      7  C   UNL     1      -2.953   0.283  -1.128  0.00  0.00    -0.035 A 
ATOM      8  C   UNL     1      -2.313   0.486   0.077  0.00  0.00    -0.024 A 
ATOM      9  C   UNL     1      -2.381   0.866  -2.395  0.00  0.00    +0.045 C 
ATOM     10  C   UNL     1      -5.929  -1.809  -0.025  0.00  0.00    +0.044 C 
BRANCH   6  11
ATOM     11  C   UNL     1      -4.816  -0.696  -2.454  0.00  0.00    +0.161 C 
ATOM     12  O   UNL     1      -5.708   0.047  -2.804  0.00  0.00    -0.292 OA
ATOM     13  C   UNL     1      -4.410  -1.851  -3.332  0.00  0.00    +0.091 C 
ENDBRANCH   6  11
ENDBRANCH   1   8
BRANCH   1  14
ATOM     14  N   UNL     1       0.108   0.402  -0.049  0.00  0.00    -0.338 N 
ATOM     15  H   UNL     1      -0.048  -0.679  -0.183  0.00  0.00    +0.146 HD
BRANCH  14  16
ATOM     16  C   UNL     1       1.407   0.926  -0.046  0.00  0.00    +0.050 A 
ATOM     17  C   UNL     1       1.605   2.289   0.123  0.00  0.00    +0.073 A 
ATOM     18  C   UNL     1       2.891   2.807   0.131  0.00  0.00    +0.164 A 
ATOM     19  C   UNL     1       3.980   1.961  -0.039  0.00  0.00    +0.164 A 
ATOM     20  C   UNL     1       3.779   0.600  -0.214  0.00  0.00    +0.071 A 
ATOM     21  C   UNL     1       2.497   0.082  -0.217  0.00  0.00    +0.065 A 
ATOM     22 CL   UNL     1       2.250  -1.622  -0.436  0.00  0.00    -0.082 Cl
ATOM     23  O   UNL     1       5.251   2.452  -0.034  0.00  0.00    -0.485 OA
ATOM     24  C   UNL     1       5.397   3.862  -0.229  0.00  0.00    +0.270 C 
ATOM     25  C   UNL     1       4.382   4.579   0.672  0.00  0.00    +0.270 C 
ATOM     26  O   UNL     1       3.069   4.146   0.300  0.00  0.00    -0.485 OA
ENDBRANCH  14  16
ENDBRANCH   1  14
TORSDOF 4
