REMARK  Name = ZINC15996596
REMARK  1 active torsions:
REMARK  status: ('A' for Active; 'I' for Inactive)
REMARK    1  A    between atoms: C_6  and  N_7
REMARK                            x       y       z     vdW  Elec       q    Type
REMARK                         _______ _______ _______ _____ _____    ______ ____
ROOT
ATOM      1  N   UNL     1       2.359   3.889  -0.001  0.00  0.00    -0.210 N 
ATOM      2  C   UNL     1       3.556   3.297   0.083  0.00  0.00    +0.228 C 
ATOM      3  O   UNL     1       3.742   2.102   0.172  0.00  0.00    -0.275 OA
ATOM      4  C   UNL     1       4.641   4.350   0.047  0.00  0.00    +0.074 C 
ATOM      5  C   UNL     1       5.344   4.406   1.415  0.00  0.00    -0.054 C 
ATOM      6  C   UNL     1       6.812   4.001   1.266  0.00  0.00    -0.016 C 
ATOM      7  C   UNL     1       7.477   5.248   0.645  0.00  0.00    -0.020 C 
ATOM      8  C   UNL     1       6.540   6.419   0.988  0.00  0.00    -0.076 C 
ATOM      9  N   UNL     1       5.402   5.873   1.752  0.00  0.00    +0.395 N 
ATOM     10  C   UNL     1       4.137   6.424   1.235  0.00  0.00    +0.053 C 
ATOM     11  C   UNL     1       3.847   5.679  -0.073  0.00  0.00    +0.089 C 
ATOM     12  C   UNL     1       2.405   5.223  -0.098  0.00  0.00    +0.229 C 
ATOM     13  O   UNL     1       1.441   5.952  -0.189  0.00  0.00    -0.275 OA
ATOM     14  C   UNL     1       4.236   7.907   1.012  0.00  0.00    -0.026 A 
ATOM     15  C   UNL     1       5.051   8.695   0.230  0.00  0.00    +0.024 A 
ATOM     16  C   UNL     1       4.898  10.071   0.238  0.00  0.00    +0.041 A 
ATOM     17  C   UNL     1       3.925  10.651   1.033  0.00  0.00    +0.022 A 
ATOM     18  C   UNL     1       3.108   9.864   1.818  0.00  0.00    +0.025 A 
ATOM     19  C   UNL     1       3.255   8.479   1.816  0.00  0.00    +0.036 A 
ATOM     20  N   UNL     1       2.561   7.487   2.512  0.00  0.00    -0.286 N 
ATOM     21  C   UNL     1       3.017   6.252   2.225  0.00  0.00    +0.212 C 
ATOM     22  O   UNL     1       2.606   5.205   2.678  0.00  0.00    -0.277 OA
ATOM     23 CL   UNL     1       5.924  11.066  -0.748  0.00  0.00    -0.084 Cl
ATOM     24  H   UNL     1       1.747   7.763   3.198  0.00  0.00    +0.155 HD
ATOM     25  H   UNL     1       5.523   6.115   2.818  0.00  0.00    -0.079 HD
ENDROOT
BRANCH   1  31
ATOM     26  C   UNL     1       0.758   2.493   1.152  0.00  0.00    +0.027 A 
ATOM     27  C   UNL     1      -0.428   1.785   1.158  0.00  0.00    +0.040 A 
ATOM     28  C   UNL     1      -1.218   1.746   0.022  0.00  0.00    +0.124 A 
ATOM     29  C   UNL     1      -0.826   2.426  -1.119  0.00  0.00    +0.040 A 
ATOM     30  C   UNL     1       0.359   3.135  -1.129  0.00  0.00    +0.027 A 
ATOM     31  C   UNL     1       1.155   3.170   0.008  0.00  0.00    +0.044 A 
ATOM     32  F   UNL     1      -2.375   1.049   0.028  0.00  0.00    -0.205 F 
ENDBRANCH   1  31
TORSDOF 1
