REMARK  Name = ZINC13235274
REMARK  12 active torsions:
REMARK  status: ('A' for Active; 'I' for Inactive)
REMARK    1  A    between atoms: C_1  and  C_2
REMARK    2  A    between atoms: C_2  and  C_4
REMARK    3  A    between atoms: C_2  and  N_13
REMARK    4  A    between atoms: C_7  and  C_10
REMARK    5  A    between atoms: C_10  and  C_11
REMARK    6  A    between atoms: C_10  and  C_12
REMARK    7  A    between atoms: C_14  and  C_16
REMARK    8  A    between atoms: C_16  and  N_17
REMARK    9  A    between atoms: N_20  and  CA_21
REMARK   10  A    between atoms: CA_21  and  CB_23
REMARK   11  A    between atoms: CA_21  and  C_33
REMARK   12  A    between atoms: CB_23  and  CG_24
REMARK                            x       y       z     vdW  Elec       q    Type
REMARK                         _______ _______ _______ _____ _____    ______ ____
ROOT
ATOM      1  N   UNK A   0      -0.150  -1.201   4.706  0.00  0.00    -0.291 N 
ATOM      2  C   UNK A   0       0.283  -1.623   5.911  0.00  0.00    +0.301 C 
ATOM      3  O   UNK A   0       1.446  -1.947   6.059  0.00  0.00    -0.253 OA
ATOM      4  N   TRP A   1      -0.572  -1.686   6.950  0.00  0.00    -0.286 N 
ATOM      5  H   UNK A   0      -1.077  -0.942   4.588  0.00  0.00    +0.151 HD
ATOM      6  H   TRP A   1      -1.500  -1.427   6.832  0.00  0.00    +0.151 HD
ENDROOT
BRANCH   1   7
ATOM      7  C   UNK A   0       0.780  -1.133   3.576  0.00  0.00    +0.201 C 
BRANCH   7   9
ATOM      8  N   UNK A   0       0.711  -0.489   1.189  0.00  0.00    -0.307 N 
ATOM      9  C   UNK A   0       0.051  -0.633   2.355  0.00  0.00    +0.231 C 
ATOM     10  O   UNK A   0      -1.129  -0.361   2.423  0.00  0.00    -0.274 OA
ATOM     11  H   UNK A   0       1.654  -0.707   1.135  0.00  0.00    +0.149 HD
BRANCH   8  13
ATOM     12  C   UNK A   0      -0.019   1.526   0.010  0.00  0.00    +0.033 C 
ATOM     13  C   UNK A   0       0.002  -0.004   0.002  0.00  0.00    +0.100 C 
BRANCH  13  14
ATOM     14  C   UNK A   0       0.707  -0.490  -1.238  0.00  0.00    -0.027 A 
ATOM     15  C   UNK A   0       2.089  -0.511  -1.284  0.00  0.00    +0.006 A 
ATOM     16  C   UNK A   0       2.736  -0.957  -2.421  0.00  0.00    +0.004 A 
ATOM     17  C   UNK A   0       2.002  -1.382  -3.512  0.00  0.00    -0.045 A 
ATOM     18  C   UNK A   0       0.620  -1.362  -3.466  0.00  0.00    +0.004 A 
ATOM     19  C   UNK A   0      -0.027  -0.920  -2.327  0.00  0.00    +0.006 A 
BRANCH  17  20
ATOM     20  C   UNK A   0       2.707  -1.867  -4.753  0.00  0.00    +0.013 C 
ATOM     21  C   UNK A   0       2.307  -3.317  -5.032  0.00  0.00    +0.012 C 
ATOM     22  C   UNK A   0       2.309  -0.990  -5.941  0.00  0.00    +0.012 C 
ENDBRANCH  17  20
ENDBRANCH  13  14
ENDBRANCH   8  13
ENDBRANCH   7   9
ENDBRANCH   1   7
BRANCH   4  23
ATOM     23  CA  TRP A   1      -0.102  -2.145   8.260  0.00  0.00    +0.192 C 
BRANCH  23  24
ATOM     24  C   TRP A   1       0.501  -0.986   9.012  0.00  0.00    +0.376 C 
ATOM     25  O   TRP A   1       0.373   0.150   8.586  0.00  0.00    -0.244 OA
ATOM     26  OXT TRP A   1       1.116  -1.183  10.046  0.00  0.00    -0.244 OA
ENDBRANCH  23  24
BRANCH  23  27
ATOM     27  CB  TRP A   1      -1.279  -2.712   9.055  0.00  0.00    +0.071 C 
BRANCH  27  28
ATOM     28  CG  TRP A   1      -1.804  -3.945   8.365  0.00  0.00    -0.020 A 
ATOM     29  CD2 TRP A   1      -1.296  -5.311   8.516  0.00  0.00    +0.003 A 
ATOM     30  CE3 TRP A   1      -0.267  -5.886   9.264  0.00  0.00    +0.010 A 
ATOM     31  CZ3 TRP A   1      -0.041  -7.231   9.184  0.00  0.00    +0.001 A 
ATOM     32  CH2 TRP A   1      -0.825  -8.030   8.363  0.00  0.00    +0.002 A 
ATOM     33  CZ2 TRP A   1      -1.845  -7.483   7.616  0.00  0.00    +0.026 A 
ATOM     34  CE2 TRP A   1      -2.094  -6.116   7.683  0.00  0.00    +0.047 A 
ATOM     35  NE1 TRP A   1      -3.013  -5.289   7.077  0.00  0.00    -0.360 N 
ATOM     36  CD1 TRP A   1      -2.829  -4.001   7.500  0.00  0.00    +0.087 A 
ATOM     37  HE1 TRP A   1      -3.692  -5.577   6.448  0.00  0.00    +0.165 HD
ENDBRANCH  27  28
ENDBRANCH  23  27
ENDBRANCH   4  23
TORSDOF 9
