REMARK  Name = ZINC14755387
REMARK  7 active torsions:
REMARK  status: ('A' for Active; 'I' for Inactive)
REMARK    1  A    between atoms: C_1  and  C_2
REMARK    2  A    between atoms: N_4  and  C_5
REMARK    3  A    between atoms: C_8  and  C_10
REMARK    4  A    between atoms: C_10  and  N_60
REMARK    5  A    between atoms: C_16  and  C_27
REMARK    6  A    between atoms: N_19  and  C_20
REMARK    7  A    between atoms: C_20  and  C_21
REMARK                            x       y       z     vdW  Elec       q    Type
REMARK                         _______ _______ _______ _____ _____    ______ ____
ROOT
ATOM      1  C   UNL     1       5.530   1.897   1.598  0.00  0.00    -0.072 C 
ATOM      2  C   UNL     1       5.797   2.609   2.923  0.00  0.00    +0.035 C 
ATOM      3  C   UNL     1       5.646   1.643   4.072  0.00  0.00    +0.022 A 
ATOM      4  C   UNL     1       4.999   0.465   3.929  0.00  0.00    -0.044 A 
ATOM      5  C   UNL     1       4.867  -0.397   5.030  0.00  0.00    +0.017 A 
ATOM      6  C   UNL     1       5.404  -0.033   6.252  0.00  0.00    +0.050 A 
ATOM      7  C   UNL     1       6.078   1.208   6.355  0.00  0.00    +0.260 A 
ATOM      8  O   UNL     1       6.564   1.556   7.419  0.00  0.00    -0.267 OA
ATOM      9  N   UNL     1       6.180   2.001   5.275  0.00  0.00    -0.307 N 
ATOM     10  C   UNL     1       4.404   0.028   2.616  0.00  0.00    -0.041 C 
ATOM     11  N   UNL     1       4.242   1.186   1.723  0.00  0.00    +0.386 N 
ATOM     12  H   UNL     1       3.544   1.824   2.123  0.00  0.00    -0.081 HD
ENDROOT
BRANCH   6  13
ATOM     13  C   UNL     1       5.275  -0.923   7.429  0.00  0.00    +0.023 A 
ATOM     14  C   UNL     1       6.373  -1.659   7.874  0.00  0.00    +0.011 A 
ATOM     15  C   UNL     1       6.248  -2.486   8.971  0.00  0.00    +0.001 A 
ATOM     16  C   UNL     1       5.036  -2.587   9.631  0.00  0.00    +0.003 A 
ATOM     17  C   UNL     1       3.942  -1.861   9.196  0.00  0.00    +0.039 A 
ATOM     18  C   UNL     1       4.055  -1.025   8.101  0.00  0.00    +0.131 A 
ATOM     19  F   UNL     1       2.988  -0.313   7.680  0.00  0.00    -0.205 F 
ENDBRANCH   6  13
BRANCH  11  20
ATOM     20  C   UNL     1       3.776   0.738   0.391  0.00  0.00    -0.035 C 
BRANCH  20  24
ATOM     21  C   UNL     1       0.085  -1.198   0.818  0.00  0.00    +0.072 A 
ATOM     22  C   UNL     1       0.018   0.140   0.567  0.00  0.00    +0.031 A 
ATOM     23  C   UNL     1       1.195   0.849   0.414  0.00  0.00    +0.011 A 
ATOM     24  C   UNL     1       2.377   0.193   0.517  0.00  0.00    -0.025 A 
ATOM     25  S   UNL     1       1.848  -1.480   0.841  0.00  0.00    -0.080 S 
BRANCH  21  29
ATOM     26  C   UNL     1      -1.800  -4.393   1.451  0.00  0.00    +0.109 C 
ATOM     27  C   UNL     1      -0.678  -3.408   1.247  0.00  0.00    +0.214 C 
ATOM     28  O   UNL     1       0.474  -3.783   1.298  0.00  0.00    -0.276 OA
ATOM     29  N   UNL     1      -0.955  -2.111   1.007  0.00  0.00    -0.280 N 
ATOM     30  H   UNL     1      -1.877  -1.812   0.966  0.00  0.00    +0.155 HD
ENDBRANCH  21  29
ENDBRANCH  20  24
ENDBRANCH  11  20
BRANCH   9  31
ATOM     31  C   UNL     1       6.883   3.281   5.392  0.00  0.00    +0.160 C 
BRANCH  31  32
ATOM     32  C   UNL     1       5.921   4.341   5.861  0.00  0.00    -0.025 A 
ATOM     33  C   UNL     1       5.289   5.178   4.952  0.00  0.00    +0.025 A 
ATOM     34  C   UNL     1       4.410   6.136   5.418  0.00  0.00    +0.111 A 
ATOM     35  N   UNL     1       4.176   6.266   6.710  0.00  0.00    -0.263 NA
ATOM     36  C   UNL     1       4.761   5.492   7.602  0.00  0.00    +0.111 A 
ATOM     37  C   UNL     1       5.649   4.508   7.210  0.00  0.00    +0.025 A 
ENDBRANCH  31  32
ENDBRANCH   9  31
TORSDOF 6
