REMARK  Name = ZINC21706355
REMARK  9 active torsions:
REMARK  status: ('A' for Active; 'I' for Inactive)
REMARK    1  A    between atoms: C_1  and  C_2
REMARK    2  A    between atoms: C_2  and  O_3
REMARK    3  A    between atoms: O_3  and  C_4
REMARK    4  A    between atoms: C_4  and  C_6
REMARK    5  A    between atoms: C_10  and  N_11
REMARK    6  A    between atoms: C_12  and  C_14
REMARK    7  A    between atoms: C_14  and  N_15
REMARK    8  A    between atoms: C_23  and  C_25
REMARK    9  A    between atoms: C_30  and  C_34
REMARK                            x       y       z     vdW  Elec       q    Type
REMARK                         _______ _______ _______ _____ _____    ______ ____
ROOT
ATOM      1  N   UNL     1       2.836   5.584  -1.664  0.00  0.00    -0.278 N 
ATOM      2  C   UNL     1       1.975   4.578  -1.415  0.00  0.00    +0.236 C 
ATOM      3  O   UNL     1       1.453   3.984  -2.334  0.00  0.00    -0.274 OA
ATOM      4  H   UNL     1       3.310   6.123  -0.830  0.00  0.00    +0.155 HD
ENDROOT
BRANCH   1   9
ATOM      5  C   UNL     1       3.973   6.943  -3.426  0.00  0.00    +0.091 A 
ATOM      6  C   UNL     1       4.105   7.109  -4.864  0.00  0.00    -0.021 A 
ATOM      7  C   UNL     1       3.366   6.261  -5.612  0.00  0.00    -0.004 A 
ATOM      8  S   UNL     1       2.511   5.249  -4.437  0.00  0.00    -0.077 S 
ATOM      9  C   UNL     1       3.125   5.941  -2.972  0.00  0.00    +0.086 A 
ATOM     10  C   UNL     1       3.296   6.201  -7.107  0.00  0.00    +0.046 C 
ATOM     11  C   UNL     1       4.476   7.001  -7.678  0.00  0.00    -0.009 C 
ATOM     12  C   UNL     1       4.545   8.355  -6.966  0.00  0.00    +0.008 C 
ATOM     13  C   UNL     1       4.997   8.158  -5.518  0.00  0.00    +0.037 C 
ATOM     14  C   UNL     1       4.269   7.218  -9.179  0.00  0.00    +0.008 C 
BRANCH   5  15
ATOM     15  C   UNL     1       4.709   7.797  -2.492  0.00  0.00    +0.342 C 
ATOM     16  O   UNL     1       5.817   7.469  -2.113  0.00  0.00    -0.245 OA
BRANCH  15  17
ATOM     17  O   UNL     1       4.158   8.947  -2.052  0.00  0.00    -0.461 OA
BRANCH  17  19
ATOM     18  C   UNL     1       4.162  10.999  -0.742  0.00  0.00    +0.048 C 
ATOM     19  C   UNL     1       4.945   9.743  -1.127  0.00  0.00    +0.229 C 
ENDBRANCH  17  19
ENDBRANCH  15  17
ENDBRANCH   5  15
ENDBRANCH   1   9
BRANCH   2  20
ATOM     20  C   UNL     1       1.661   4.191   0.007  0.00  0.00    +0.214 C 
BRANCH  20  21
ATOM     21  N   UNL     1       0.707   3.079   0.011  0.00  0.00    -0.215 N 
ATOM     22  C   UNL     1      -0.634   3.231   0.024  0.00  0.00    +0.247 C 
ATOM     23  O   UNL     1      -1.255   4.272   0.035  0.00  0.00    -0.273 OA
ATOM     24  C   UNL     1      -1.199   1.829   0.017  0.00  0.00    +0.115 C 
ATOM     25  C   UNL     1      -2.026   1.585   1.274  0.00  0.00    +0.035 C 
ATOM     26  C   UNL     1      -2.558   0.149   1.265  0.00  0.00    +0.003 C 
ATOM     27  C   UNL     1      -3.417  -0.067   0.017  0.00  0.00    +0.000 C 
ATOM     28  C   UNL     1      -2.569   0.161  -1.235  0.00  0.00    +0.006 C 
ATOM     29  C   UNL     1      -2.038   1.597  -1.235  0.00  0.00    +0.018 C 
ATOM     30  C   UNL     1      -1.172   1.820  -2.477  0.00  0.00    +0.010 C 
ATOM     31  N   UNL     1      -0.011   0.966   0.007  0.00  0.00    -0.285 N 
ATOM     32  C   UNL     1       1.056   1.787   0.002  0.00  0.00    +0.310 C 
ATOM     33  O   UNL     1       2.208   1.399  -0.011  0.00  0.00    -0.252 OA
ATOM     34  H   UNL     1      -0.126  -0.128   0.006  0.00  0.00    +0.151 HD
ENDBRANCH  20  21
ENDBRANCH   2  20
TORSDOF 6
