REMARK  Name = ZINC03287339
REMARK  6 active torsions:
REMARK  status: ('A' for Active; 'I' for Inactive)
REMARK    1  A    between atoms: C_1  and  C_2
REMARK    2  A    between atoms: C_11  and  N_21
REMARK    3  A    between atoms: C_13  and  C_15
REMARK    4  A    between atoms: C_15  and  N_57
REMARK    5  A    between atoms: N_21  and  C_22
REMARK    6  A    between atoms: C_22  and  C_23
REMARK                            x       y       z     vdW  Elec       q    Type
REMARK                         _______ _______ _______ _____ _____    ______ ____
ROOT
ATOM      1  C   UNL     1      -4.245  -3.928   0.009  0.00  0.00    +0.008 C 
ATOM      2  C   UNL     1      -3.191  -2.864  -0.301  0.00  0.00    -0.009 C 
ATOM      3  C   UNL     1      -3.467  -1.609   0.533  0.00  0.00    +0.008 C 
ATOM      4  C   UNL     1      -2.577  -0.462   0.054  0.00  0.00    +0.037 C 
ATOM      5  C   UNL     1      -1.126  -0.936   0.037  0.00  0.00    -0.025 A 
ATOM      6  C   UNL     1      -0.832  -2.252   0.041  0.00  0.00    -0.004 A 
ATOM      7  S   UNL     1       0.939  -2.331   0.017  0.00  0.00    -0.073 S 
ATOM      8  C   UNL     1       1.283  -0.592   0.001  0.00  0.00    +0.114 A 
ATOM      9  C   UNL     1       0.002  -0.004   0.017  0.00  0.00    +0.051 A 
ATOM     10  C   UNL     1      -0.017   1.418   0.010  0.00  0.00    +0.131 A 
ATOM     11  N   UNL     1       1.130   2.078  -0.011  0.00  0.00    -0.219 NA
ATOM     12  C   UNL     1       2.297   1.459  -0.026  0.00  0.00    +0.116 A 
ATOM     13  N   UNL     1       2.378   0.143  -0.020  0.00  0.00    -0.227 NA
ATOM     14  C   UNL     1      -1.798  -3.398   0.060  0.00  0.00    +0.046 C 
ENDROOT
BRANCH  10  15
ATOM     15  N   UNL     1      -1.219   2.103   0.019  0.00  0.00    -0.324 N 
ATOM     16  H   UNL     1      -2.055   1.616  -0.053  0.00  0.00    +0.148 HD
BRANCH  15  17
ATOM     17  C   UNL     1      -1.230   3.563   0.138  0.00  0.00    +0.139 C 
BRANCH  17  18
ATOM     18  C   UNL     1      -2.653   4.058   0.123  0.00  0.00    -0.012 A 
ATOM     19  C   UNL     1      -3.191   4.581  -1.038  0.00  0.00    +0.008 A 
ATOM     20  C   UNL     1      -4.497   5.030  -1.053  0.00  0.00    +0.020 A 
ATOM     21  C   UNL     1      -5.265   4.966   0.096  0.00  0.00    +0.042 A 
ATOM     22  C   UNL     1      -4.726   4.448   1.260  0.00  0.00    +0.040 A 
ATOM     23  C   UNL     1      -3.419   3.994   1.273  0.00  0.00    +0.047 A 
ATOM     24 CL   UNL     1      -2.742   3.342   2.733  0.00  0.00    -0.083 Cl
ATOM     25 CL   UNL     1      -6.904   5.538   0.079  0.00  0.00    -0.083 Cl
ENDBRANCH  17  18
ENDBRANCH  15  17
ENDBRANCH  10  15
BRANCH  12  26
ATOM     26  C   UNL     1       3.563   2.276  -0.051  0.00  0.00    -0.001 C 
BRANCH  26  32
ATOM     27  C   UNL     1       4.336   1.287  -2.123  0.00  0.00    -0.050 C 
ATOM     28  C   UNL     1       4.676   1.592  -3.584  0.00  0.00    +0.141 C 
ATOM     29  O   UNL     1       5.714   2.575  -3.631  0.00  0.00    -0.383 OA
ATOM     30  C   UNL     1       5.375   3.802  -2.979  0.00  0.00    +0.141 C 
ATOM     31  C   UNL     1       5.042   3.519  -1.512  0.00  0.00    -0.050 C 
ATOM     32  N   UNL     1       3.933   2.544  -1.457  0.00  0.00    +0.387 N 
ATOM     33  H   UNL     1       3.119   2.935  -1.947  0.00  0.00    -0.081 HD
ENDBRANCH  26  32
ENDBRANCH  12  26
TORSDOF 5
