REMARK  Name = ZINC66955481
REMARK  10 active torsions:
REMARK  status: ('A' for Active; 'I' for Inactive)
REMARK    1  A    between atoms: C_1  and  C_2
REMARK    2  A    between atoms: C_2  and  O_3
REMARK    3  A    between atoms: O_3  and  C_4
REMARK    4  A    between atoms: C_4  and  C_6
REMARK    5  A    between atoms: N_15  and  C_16
REMARK    6  A    between atoms: C_21  and  S_22
REMARK    7  A    between atoms: S_22  and  C_23
REMARK    8  A    between atoms: C_23  and  C_25
REMARK    9  A    between atoms: C_23  and  C_26
REMARK   10  A    between atoms: C_26  and  C_27
REMARK                            x       y       z     vdW  Elec       q    Type
REMARK                         _______ _______ _______ _____ _____    ______ ____
ROOT
ATOM      1  C   UNL     1      -4.117  -4.525  -3.280  0.00  0.00    +0.115 C 
ATOM      2  C   UNL     1      -2.715  -3.937  -3.108  0.00  0.00    +0.018 C 
ATOM      3  C   UNL     1      -2.807  -2.412  -3.019  0.00  0.00    +0.020 C 
ATOM      4  C   UNL     1      -3.647  -2.025  -1.798  0.00  0.00    +0.109 C 
ATOM      5  N   UNL     1      -4.947  -2.704  -1.884  0.00  0.00    -0.285 N 
ATOM      6  C   UNL     1      -4.973  -4.162  -2.063  0.00  0.00    +0.124 C 
ATOM      7  C   UNL     1      -6.095  -2.002  -1.802  0.00  0.00    +0.306 C 
ATOM      8  O   UNL     1      -6.064  -0.811  -1.562  0.00  0.00    -0.252 OA
ATOM      9  N   UNL     1      -7.278  -2.622  -1.985  0.00  0.00    -0.268 N 
ATOM     10  H   UNL     1      -7.308  -3.582  -2.115  0.00  0.00    +0.156 HD
ENDROOT
BRANCH   9  11
ATOM     11  C   UNL     1      -8.466  -1.877  -1.987  0.00  0.00    +0.048 A 
ATOM     12  C   UNL     1      -8.427  -0.506  -2.187  0.00  0.00    +0.024 A 
ATOM     13  C   UNL     1      -9.599   0.227  -2.189  0.00  0.00    +0.002 A 
ATOM     14  C   UNL     1     -10.814  -0.404  -1.992  0.00  0.00    +0.001 A 
ATOM     15  C   UNL     1     -10.863  -1.771  -1.793  0.00  0.00    +0.016 A 
ATOM     16  C   UNL     1      -9.692  -2.515  -1.795  0.00  0.00    +0.029 A 
BRANCH  16  17
ATOM     17  S   UNL     1      -9.752  -4.258  -1.548  0.00  0.00    -0.119 S 
BRANCH  17  18
ATOM     18  C   UNL     1     -11.525  -4.637  -1.524  0.00  0.00    +0.062 C 
ATOM     19  C   UNL     1     -12.111  -4.429  -2.922  0.00  0.00    +0.020 C 
BRANCH  18  20
ATOM     20  C   UNL     1     -11.730  -6.092  -1.097  0.00  0.00    +0.132 C 
BRANCH  20  21
ATOM     21  C   UNL     1     -11.276  -6.264   0.293  0.00  0.00    +0.064 C 
ATOM     22  N   UNL     1     -10.925  -6.397   1.365  0.00  0.00    -0.197 NA
ENDBRANCH  20  21
ENDBRANCH  18  20
ENDBRANCH  17  18
ENDBRANCH  16  17
ENDBRANCH   9  11
BRANCH   1  23
ATOM     23  C   UNL     1      -4.023  -6.024  -3.400  0.00  0.00    +0.312 C 
ATOM     24  O   UNL     1      -2.944  -6.567  -3.353  0.00  0.00    -0.250 OA
BRANCH  23  25
ATOM     25  O   UNL     1      -5.136  -6.756  -3.558  0.00  0.00    -0.465 OA
BRANCH  25  27
ATOM     26  C   UNL     1      -6.342  -8.832  -3.839  0.00  0.00    +0.048 C 
ATOM     27  C   UNL     1      -4.973  -8.172  -3.665  0.00  0.00    +0.229 C 
ENDBRANCH  25  27
ENDBRANCH  23  25
ENDBRANCH   1  23
TORSDOF 8
