REMARK  Name = ZINC66934460
REMARK  5 active torsions:
REMARK  status: ('A' for Active; 'I' for Inactive)
REMARK    1  A    between atoms: C_1  and  C_2
REMARK    2  A    between atoms: C_6  and  C_23
REMARK    3  A    between atoms: N_9  and  S_10
REMARK    4  A    between atoms: S_10  and  C_13
REMARK    5  A    between atoms: C_16  and  N_20
REMARK                            x       y       z     vdW  Elec       q    Type
REMARK                         _______ _______ _______ _____ _____    ______ ____
ROOT
ATOM      1  C   UNL     1      -0.930   1.361   0.824  0.00  0.00    +0.028 C 
ATOM      2  C   UNL     1      -0.533  -0.065   0.439  0.00  0.00    +0.102 C 
ATOM      3  C   UNL     1      -0.310  -0.148  -1.075  0.00  0.00    +0.181 C 
ATOM      4  O   UNL     1       0.238  -1.428  -1.400  0.00  0.00    -0.369 OA
ATOM      5  C   UNL     1       1.519  -1.681  -0.819  0.00  0.00    +0.164 C 
ATOM      6  C   UNL     1       1.390  -1.676   0.709  0.00  0.00    +0.146 C 
ATOM      7  N   UNL     1       0.723  -0.429   1.115  0.00  0.00    -0.169 NA
ENDROOT
BRANCH   5   8
ATOM      8  C   UNL     1       2.024  -3.025  -1.278  0.00  0.00    -0.018 A 
ATOM      9  C   UNL     1       1.135  -4.064  -1.484  0.00  0.00    +0.006 A 
ATOM     10  C   UNL     1       1.598  -5.296  -1.905  0.00  0.00    +0.000 A 
ATOM     11  C   UNL     1       2.950  -5.490  -2.120  0.00  0.00    +0.000 A 
ATOM     12  C   UNL     1       3.839  -4.451  -1.915  0.00  0.00    +0.000 A 
ATOM     13  C   UNL     1       3.375  -3.217  -1.498  0.00  0.00    +0.006 A 
ENDBRANCH   5   8
BRANCH   7  14
ATOM     14  S   UNL     1       1.366   0.537   2.296  0.00  0.00    +0.064 S 
ATOM     15  O   UNL     1       0.270   1.140   2.969  0.00  0.00    -0.153 OA
ATOM     16  O   UNL     1       2.340  -0.245   2.975  0.00  0.00    -0.153 OA
BRANCH  14  17
ATOM     17  C   UNL     1       2.239   1.837   1.488  0.00  0.00    +0.141 A 
ATOM     18  C   UNL     1       1.819   3.146   1.633  0.00  0.00    +0.034 A 
ATOM     19  C   UNL     1       2.503   4.166   1.000  0.00  0.00    +0.035 A 
ATOM     20  C   UNL     1       3.608   3.878   0.220  0.00  0.00    +0.129 A 
ATOM     21  C   UNL     1       4.030   2.571   0.074  0.00  0.00    +0.073 A 
ATOM     22  C   UNL     1       3.348   1.548   0.712  0.00  0.00    +0.152 A 
ATOM     23  F   UNL     1       3.763   0.270   0.574  0.00  0.00    -0.203 F 
BRANCH  20  24
ATOM     24  N   UNL     1       4.340   4.972  -0.458  0.00  0.00    +0.057 N 
ATOM     25  O   UNL     1       3.971   6.116  -0.331  0.00  0.00    -0.126 OA
ATOM     26  O   UNL     1       5.306   4.721  -1.140  0.00  0.00    -0.126 OA
ENDBRANCH  20  24
ENDBRANCH  14  17
ENDBRANCH   7  14
TORSDOF 4
