REMARK  Name = ZINC59227844
REMARK  11 active torsions:
REMARK  status: ('A' for Active; 'I' for Inactive)
REMARK    1  A    between atoms: C_1  and  C_2
REMARK    2  A    between atoms: C_2  and  O_3
REMARK    3  A    between atoms: O_3  and  C_4
REMARK    4  A    between atoms: C_6  and  C_19
REMARK    5  A    between atoms: C_9  and  O_10
REMARK    6  A    between atoms: O_10  and  C_11
REMARK    7  A    between atoms: C_11  and  C_12
REMARK    8  A    between atoms: C_16  and  C_18
REMARK    9  A    between atoms: C_22  and  C_27
REMARK   10  A    between atoms: C_34  and  O_36
REMARK   11  A    between atoms: O_36  and  C_37
REMARK                            x       y       z     vdW  Elec       q    Type
REMARK                         _______ _______ _______ _____ _____    ______ ____
ROOT
ATOM      1  C   UNL     1       0.627  -4.940   0.033  0.00  0.00    +0.142 C 
ATOM      2  C   UNL     1       0.933  -5.410   1.443  0.00  0.00    +0.084 C 
ATOM      3  C   UNL     1       0.959  -6.804   1.661  0.00  0.00    +0.075 C 
ATOM      4  N   UNL     1       0.724  -7.646   0.665  0.00  0.00    -0.192 NA
ATOM      5  C   UNL     1       0.453  -7.280  -0.580  0.00  0.00    +0.155 C 
ATOM      6  S   UNL     1       0.174  -8.501  -1.746  0.00  0.00    -0.017 S 
ATOM      7  N   UNL     1       0.387  -5.993  -0.969  0.00  0.00    -0.314 N 
ATOM      8  C   UNL     1       1.173  -4.527   2.453  0.00  0.00    +0.339 C 
ATOM      9  O   UNL     1       1.315  -4.972   3.718  0.00  0.00    -0.245 OA
ATOM     10  H   UNL     1       0.185  -5.764  -1.890  0.00  0.00    +0.149 HD
ENDROOT
BRANCH   3  11
ATOM     11  C   UNL     1       1.252  -7.330   3.012  0.00  0.00    -0.001 A 
ATOM     12  C   UNL     1       0.208  -7.658   3.877  0.00  0.00    +0.011 A 
ATOM     13  C   UNL     1       0.487  -8.149   5.136  0.00  0.00    +0.020 A 
ATOM     14  C   UNL     1       1.801  -8.315   5.542  0.00  0.00    +0.041 A 
ATOM     15  C   UNL     1       2.842  -7.989   4.687  0.00  0.00    +0.020 A 
ATOM     16  C   UNL     1       2.575  -7.504   3.424  0.00  0.00    +0.011 A 
ATOM     17 CL   UNL     1       2.145  -8.932   7.127  0.00  0.00    -0.084 Cl
ENDBRANCH   3  11
BRANCH   1  20
ATOM     18  C   UNL     1      -1.576  -1.875   0.196  0.00  0.00    +0.162 A 
ATOM     19  C   UNL     1      -0.454  -2.686   0.144  0.00  0.00    +0.055 A 
ATOM     20  C   UNL     1      -0.595  -4.060   0.089  0.00  0.00    -0.019 A 
ATOM     21  C   UNL     1      -1.855  -4.628   0.085  0.00  0.00    +0.009 A 
ATOM     22  C   UNL     1      -2.979  -3.825   0.136  0.00  0.00    +0.050 A 
ATOM     23  C   UNL     1      -2.844  -2.447   0.197  0.00  0.00    +0.162 A 
BRANCH  18  24
ATOM     24  O   UNL     1      -1.438  -0.523   0.251  0.00  0.00    -0.489 OA
BRANCH  24  26
ATOM     25  C   UNL     1      -0.152   1.522   0.311  0.00  0.00    +0.048 C 
ATOM     26  C   UNL     1      -0.106  -0.006   0.245  0.00  0.00    +0.226 C 
ENDBRANCH  24  26
ENDBRANCH  18  24
BRANCH  23  27
ATOM     27  O   UNL     1      -3.949  -1.656   0.253  0.00  0.00    -0.484 OA
BRANCH  27  28
ATOM     28  C   UNL     1      -5.218  -2.313   0.251  0.00  0.00    +0.264 C 
BRANCH  28  29
ATOM     29  C   UNL     1      -6.317  -1.283   0.317  0.00  0.00    -0.010 A 
ATOM     30  C   UNL     1      -6.792  -0.858   1.544  0.00  0.00    +0.007 A 
ATOM     31  C   UNL     1      -7.800   0.087   1.604  0.00  0.00    +0.001 A 
ATOM     32  C   UNL     1      -8.332   0.606   0.439  0.00  0.00    +0.003 A 
ATOM     33  C   UNL     1      -7.855   0.181  -0.787  0.00  0.00    -0.050 A 
ATOM     34  C   UNL     1      -6.845  -0.760  -0.848  0.00  0.00    +0.010 A 
ATOM     35  C   UNL     1      -8.435   0.747  -2.058  0.00  0.00    +0.044 C 
ENDBRANCH  28  29
ENDBRANCH  27  28
ENDBRANCH  23  27
ENDBRANCH   1  20
BRANCH   8  36
ATOM     36  O   UNL     1       1.267  -3.209   2.187  0.00  0.00    -0.465 OA
ATOM     37  C   UNL     1       1.520  -2.340   3.294  0.00  0.00    +0.280 C 
ENDBRANCH   8  36
TORSDOF 8
