REMARK  Name = ZINC15068725
REMARK  11 active torsions:
REMARK  status: ('A' for Active; 'I' for Inactive)
REMARK    1  A    between atoms: C_1  and  O_2
REMARK    2  A    between atoms: O_2  and  C_3
REMARK    3  A    between atoms: C_7  and  C_23
REMARK    4  A    between atoms: N_10  and  C_16
REMARK    5  A    between atoms: C_13  and  O_14
REMARK    6  A    between atoms: O_14  and  C_15
REMARK    7  A    between atoms: C_16  and  C_17
REMARK    8  A    between atoms: C_23  and  N_69
REMARK    9  A    between atoms: C_24  and  C_25
REMARK   10  A    between atoms: C_24  and  N_69
REMARK   11  A    between atoms: C_25  and  O_31
REMARK                            x       y       z     vdW  Elec       q    Type
REMARK                         _______ _______ _______ _____ _____    ______ ____
ROOT
ATOM      1  C   UNL     1      -3.945   1.063   9.702  0.00  0.00    +0.162 A 
ATOM      2  C   UNL     1      -3.307   0.546   8.595  0.00  0.00    +0.059 A 
ATOM      3  C   UNL     1      -2.344   1.314   7.929  0.00  0.00    +0.003 A 
ATOM      4  C   UNL     1      -1.653   0.797   6.748  0.00  0.00    +0.017 A 
ATOM      5  C   UNL     1      -0.725   1.582   6.144  0.00  0.00    +0.001 A 
ATOM      6  C   UNL     1      -0.447   2.869   6.647  0.00  0.00    +0.253 A 
ATOM      7  O   UNL     1       0.386   3.559   6.086  0.00  0.00    -0.267 OA
ATOM      8  N   UNL     1      -1.079   3.356   7.729  0.00  0.00    -0.308 N 
ATOM      9  C   UNL     1      -2.030   2.607   8.392  0.00  0.00    +0.056 A 
ATOM     10  C   UNL     1      -2.683   3.113   9.509  0.00  0.00    +0.076 A 
ATOM     11  C   UNL     1      -3.632   2.347  10.160  0.00  0.00    +0.163 A 
ENDROOT
BRANCH   1  13
ATOM     12  C   UNL     1      -5.153  -0.982   9.831  0.00  0.00    +0.277 C 
ATOM     13  O   UNL     1      -4.882   0.321  10.352  0.00  0.00    -0.491 OA
ENDBRANCH   1  13
BRANCH  11  14
ATOM     14  O   UNL     1      -4.267   2.845  11.252  0.00  0.00    -0.491 OA
ATOM     15  C   UNL     1      -3.903   4.163  11.669  0.00  0.00    +0.277 C 
ENDBRANCH  11  14
BRANCH   8  16
ATOM     16  C   UNL     1      -0.754   4.700   8.211  0.00  0.00    +0.129 C 
BRANCH  16  17
ATOM     17  C   UNL     1      -1.669   5.721   7.531  0.00  0.00    +0.009 C 
ATOM     18  C   UNL     1      -1.375   5.748   6.030  0.00  0.00    +0.005 C 
ATOM     19  C   UNL     1      -2.290   6.768   5.349  0.00  0.00    +0.000 C 
ATOM     20  C   UNL     1      -2.036   8.156   5.943  0.00  0.00    +0.000 C 
ATOM     21  C   UNL     1      -2.330   8.129   7.444  0.00  0.00    +0.000 C 
ATOM     22  C   UNL     1      -1.415   7.108   8.125  0.00  0.00    +0.005 C 
ENDBRANCH  16  17
ENDBRANCH   8  16
BRANCH   5  23
ATOM     23  C   UNL     1       0.008   1.078   4.928  0.00  0.00    -0.041 C 
BRANCH  23  24
ATOM     24  N   UNL     1      -0.685   1.552   3.715  0.00  0.00    +0.384 N 
ATOM     25  H   UNL     1      -0.699   2.579   3.713  0.00  0.00    -0.085 HD
ATOM     26  H   UNL     1      -1.649   1.197   3.714  0.00  0.00    -0.085 HD
BRANCH  24  27
ATOM     27  C   UNL     1       0.011   1.072   2.506  0.00  0.00    -0.047 C 
BRANCH  27  28
ATOM     28  C   UNL     1      -0.729   1.579   1.267  0.00  0.00    +0.051 C 
ATOM     29  C   UNL     1      -0.013   1.086   0.008  0.00  0.00    +0.033 C 
ATOM     30  C   UNL     1      -0.753   1.593  -1.232  0.00  0.00    +0.003 C 
ATOM     31  C   UNL     1      -0.773   3.123  -1.223  0.00  0.00    +0.000 C 
ATOM     32  C   UNL     1      -1.490   3.616   0.036  0.00  0.00    +0.003 C 
ATOM     33  C   UNL     1      -0.750   3.109   1.275  0.00  0.00    +0.033 C 
BRANCH  28  34
ATOM     34  O   UNL     1      -2.070   1.085   1.277  0.00  0.00    -0.390 OA
ATOM     35  H   UNL     1      -2.584   1.359   2.048  0.00  0.00    +0.210 HD
ENDBRANCH  28  34
ENDBRANCH  27  28
ENDBRANCH  24  27
ENDBRANCH  23  24
ENDBRANCH   5  23
TORSDOF 9
