REMARK  Name = ZINC24869688
REMARK  8 active torsions:
REMARK  status: ('A' for Active; 'I' for Inactive)
REMARK    1  A    between atoms: C_1  and  C_2
REMARK    2  A    between atoms: C_5  and  C_8
REMARK    3  A    between atoms: C_8  and  C_10
REMARK    4  A    between atoms: C_8  and  N_13
REMARK    5  A    between atoms: C_14  and  C_16
REMARK    6  A    between atoms: C_16  and  C_17
REMARK    7  A    between atoms: C_17  and  C_18
REMARK    8  A    between atoms: C_20  and  C_23
REMARK                            x       y       z     vdW  Elec       q    Type
REMARK                         _______ _______ _______ _____ _____    ______ ____
ROOT
ATOM      1  N   UNL     1      -0.721   1.571  -1.179  0.00  0.00    -0.308 N 
ATOM      2  C   UNL     1      -1.773   0.883  -1.664  0.00  0.00    +0.214 C 
ATOM      3  O   UNL     1      -2.134  -0.139  -1.118  0.00  0.00    -0.276 OA
ATOM      4  H   UNL     1      -0.395   2.497  -1.674  0.00  0.00    +0.149 HD
ENDROOT
BRANCH   1   5
ATOM      5  C   UNL     1      -0.013   1.086   0.008  0.00  0.00    +0.106 C 
BRANCH   5  10
ATOM      6  C   UNL     1       5.409   3.085  -0.035  0.00  0.00    +0.044 C 
ATOM      7  C   UNL     1       3.995   2.564  -0.023  0.00  0.00    -0.050 A 
ATOM      8  C   UNL     1       3.740   1.267   0.382  0.00  0.00    +0.004 A 
ATOM      9  C   UNL     1       2.443   0.789   0.392  0.00  0.00    +0.006 A 
ATOM     10  C   UNL     1       1.401   1.607  -0.003  0.00  0.00    -0.027 A 
ATOM     11  C   UNL     1       1.657   2.902  -0.413  0.00  0.00    +0.006 A 
ATOM     12  C   UNL     1       2.953   3.382  -0.418  0.00  0.00    +0.004 A 
ENDBRANCH   5  10
BRANCH   5  13
ATOM     13  C   UNL     1      -0.729   1.579   1.267  0.00  0.00    +0.014 C 
ATOM     14  C   UNL     1      -1.083   0.539   2.332  0.00  0.00    +0.006 C 
ATOM     15  C   UNL     1      -2.185   1.152   1.464  0.00  0.00    +0.006 C 
ENDBRANCH   5  13
ENDBRANCH   1   5
BRANCH   2  16
ATOM     16  C   UNL     1      -2.502   1.382  -2.885  0.00  0.00    +0.105 C 
BRANCH  16  17
ATOM     17  C   UNL     1      -3.647   0.424  -3.223  0.00  0.00    +0.108 C 
BRANCH  17  18
ATOM     18  C   UNL     1      -4.375   0.923  -4.444  0.00  0.00    +0.228 A 
ATOM     19  N   UNL     1      -4.103   0.623  -5.689  0.00  0.00    -0.191 NA
ATOM     20  C   UNL     1      -5.011   1.296  -6.432  0.00  0.00    +0.202 A 
ATOM     21  N   UNL     1      -5.774   1.959  -5.602  0.00  0.00    -0.056 NA
ATOM     22  O   UNL     1      -5.425   1.751  -4.459  0.00  0.00    -0.338 OA
BRANCH  20  23
ATOM     23  C   UNL     1      -5.121   1.285  -7.912  0.00  0.00    +0.023 A 
ATOM     24  C   UNL     1      -4.229   0.533  -8.673  0.00  0.00    +0.013 A 
ATOM     25  C   UNL     1      -4.339   0.521 -10.049  0.00  0.00    +0.021 A 
ATOM     26  C   UNL     1      -5.325   1.265 -10.673  0.00  0.00    +0.041 A 
ATOM     27  C   UNL     1      -6.210   2.019  -9.921  0.00  0.00    +0.021 A 
ATOM     28  C   UNL     1      -6.112   2.032  -8.545  0.00  0.00    +0.013 A 
ATOM     29 CL   UNL     1      -5.453   1.253 -12.404  0.00  0.00    -0.084 Cl
ENDBRANCH  20  23
ENDBRANCH  17  18
ENDBRANCH  16  17
ENDBRANCH   2  16
TORSDOF 7
