REMARK  Name = ZINC63294769
REMARK  5 active torsions:
REMARK  status: ('A' for Active; 'I' for Inactive)
REMARK    1  A    between atoms: C_1  and  O_2
REMARK    2  A    between atoms: O_2  and  C_3
REMARK    3  A    between atoms: C_3  and  C_5
REMARK    4  A    between atoms: C_11  and  C_13
REMARK    5  A    between atoms: C_13  and  N_14
REMARK                            x       y       z     vdW  Elec       q    Type
REMARK                         _______ _______ _______ _____ _____    ______ ____
ROOT
ATOM      1  N   UNL     1       4.738  -6.769  -2.437  0.00  0.00    -0.291 N 
ATOM      2  C   UNL     1       5.403  -7.274  -3.495  0.00  0.00    +0.303 C 
ATOM      3  O   UNL     1       5.020  -7.035  -4.624  0.00  0.00    -0.253 OA
ATOM      4  N   UNL     1       6.493  -8.042  -3.301  0.00  0.00    -0.283 N 
ATOM      5  C   UNL     1       6.879  -8.424  -1.939  0.00  0.00    +0.114 C 
ATOM      6  C   UNL     1       8.316  -7.946  -1.660  0.00  0.00    +0.052 C 
ATOM      7  C   UNL     1       9.137  -8.318  -2.869  0.00  0.00    -0.035 C 
ATOM      8  C   UNL     1      10.281  -8.983  -2.983  0.00  0.00    +0.001 A 
ATOM      9  C   UNL     1      11.216  -9.503  -1.973  0.00  0.00    +0.030 A 
ATOM     10  C   UNL     1      12.304 -10.167  -2.448  0.00  0.00    +0.042 A 
ATOM     11  C   UNL     1      12.550 -10.363  -3.812  0.00  0.00    +0.022 A 
ATOM     12  C   UNL     1      11.748  -9.912  -4.808  0.00  0.00    +0.027 A 
ATOM     13  C   UNL     1      10.577  -9.191  -4.433  0.00  0.00    +0.043 A 
ATOM     14  N   UNL     1       9.660  -8.635  -5.169  0.00  0.00    -0.376 N 
ATOM     15  C   UNL     1       8.709  -7.957  -4.287  0.00  0.00    +0.124 C 
ATOM     16  C   UNL     1       7.280  -8.495  -4.460  0.00  0.00    +0.138 C 
ATOM     17 CL   UNL     1      13.444 -10.803  -1.305  0.00  0.00    -0.084 Cl
ATOM     18  H   UNL     1       4.998  -7.018  -1.536  0.00  0.00    +0.151 HD
ATOM     19  H   UNL     1       9.614  -8.665  -6.137  0.00  0.00    +0.160 HD
ENDROOT
BRANCH   1  20
ATOM     20  C   UNL     1       3.621  -5.845  -2.647  0.00  0.00    +0.201 C 
BRANCH  20  27
ATOM     21  C   UNL     1       0.666  -2.094  -1.123  0.00  0.00    +0.101 C 
ATOM     22  C   UNL     1       1.420  -2.636   0.093  0.00  0.00    +0.033 C 
ATOM     23  C   UNL     1       1.446  -4.167   0.032  0.00  0.00    +0.108 C 
ATOM     24  N   UNL     1       2.011  -4.579  -1.260  0.00  0.00    -0.300 N 
ATOM     25  C   UNL     1       1.417  -4.043  -2.493  0.00  0.00    +0.108 C 
ATOM     26  C   UNL     1       1.391  -2.514  -2.404  0.00  0.00    +0.033 C 
ATOM     27  C   UNL     1       3.053  -5.432  -1.314  0.00  0.00    +0.233 C 
ATOM     28  O   UNL     1       3.534  -5.866  -0.289  0.00  0.00    -0.274 OA
BRANCH  21  29
ATOM     29  C   UNL     1       0.609  -0.590  -1.049  0.00  0.00    +0.310 C 
ATOM     30  O   UNL     1       1.097   0.077  -1.930  0.00  0.00    -0.251 OA
BRANCH  29  32
ATOM     31  C   UNL     1      -0.004   1.437   0.001  0.00  0.00    +0.280 C 
ATOM     32  O   UNL     1       0.014   0.008  -0.005  0.00  0.00    -0.468 OA
ENDBRANCH  29  32
ENDBRANCH  21  29
ENDBRANCH  20  27
ENDBRANCH   1  20
TORSDOF 4
