REMARK  Name = ZINC01423017
REMARK  14 active torsions:
REMARK  status: ('A' for Active; 'I' for Inactive)
REMARK    1  A    between atoms: C_1  and  C_2
REMARK    2  A    between atoms: C_2  and  O_3
REMARK    3  A    between atoms: O_3  and  C_4
REMARK    4  A    between atoms: C_4  and  C_6
REMARK    5  A    between atoms: C_10  and  N_11
REMARK    6  A    between atoms: C_12  and  C_14
REMARK    7  A    between atoms: C_15  and  C_38
REMARK    8  A    between atoms: C_19  and  C_21
REMARK    9  A    between atoms: C_25  and  O_29
REMARK   10  A    between atoms: C_26  and  O_27
REMARK   11  A    between atoms: O_27  and  C_28
REMARK   12  A    between atoms: O_29  and  C_30
REMARK   13  A    between atoms: C_34  and  C_36
REMARK   14  A    between atoms: C_34  and  C_37
REMARK                            x       y       z     vdW  Elec       q    Type
REMARK                         _______ _______ _______ _____ _____    ______ ____
ROOT
ATOM      1  C   UNL     1      -2.854  -2.608  -5.497  0.00  0.00    +0.043 C 
ATOM      2  C   UNL     1      -3.355  -3.175  -6.606  0.00  0.00    +0.014 C 
ATOM      3  N   UNL     1      -4.687  -3.071  -6.898  0.00  0.00    -0.321 N 
ATOM      4  C   UNL     1      -5.592  -2.755  -5.920  0.00  0.00    +0.016 C 
ATOM      5  C   UNL     1      -5.186  -2.164  -4.777  0.00  0.00    +0.024 C 
ATOM      6  C   UNL     1      -3.732  -1.844  -4.549  0.00  0.00    +0.094 C 
ATOM      7  C   UNL     1      -6.105  -1.832  -3.766  0.00  0.00    +0.162 C 
ATOM      8  O   UNL     1      -5.705  -1.316  -2.741  0.00  0.00    -0.292 OA
ATOM      9  C   UNL     1      -7.576  -2.104  -3.930  0.00  0.00    +0.086 C 
ATOM     10  C   UNL     1      -7.926  -2.068  -5.422  0.00  0.00    -0.023 C 
ATOM     11  C   UNL     1      -7.045  -3.086  -6.151  0.00  0.00    +0.058 C 
ATOM     12  C   UNL     1      -9.399  -2.433  -5.613  0.00  0.00    +0.011 C 
ATOM     13  C   UNL     1      -7.662  -0.668  -5.978  0.00  0.00    +0.011 C 
ATOM     14  C   UNL     1      -2.442  -3.932  -7.537  0.00  0.00    +0.061 C 
ATOM     15  H   UNL     1      -4.993  -3.221  -7.806  0.00  0.00    +0.152 HD
ENDROOT
BRANCH   6  16
ATOM     16  C   UNL     1      -3.518  -0.367  -4.757  0.00  0.00    +0.010 A 
ATOM     17  C   UNL     1      -3.839   0.214  -5.970  0.00  0.00    +0.008 A 
ATOM     18  C   UNL     1      -3.643   1.568  -6.165  0.00  0.00    +0.004 A 
ATOM     19  C   UNL     1      -3.126   2.348  -5.147  0.00  0.00    +0.049 A 
ATOM     20  C   UNL     1      -2.803   1.773  -3.929  0.00  0.00    +0.162 A 
ATOM     21  C   UNL     1      -3.005   0.410  -3.731  0.00  0.00    +0.166 A 
BRANCH  21  22
ATOM     22  O   UNL     1      -2.695  -0.159  -2.535  0.00  0.00    -0.491 OA
ATOM     23  C   UNL     1      -1.333  -0.540  -2.333  0.00  0.00    +0.277 C 
ENDBRANCH  21  22
BRANCH  20  24
ATOM     24  O   UNL     1      -2.294   2.539  -2.927  0.00  0.00    -0.491 OA
ATOM     25  C   UNL     1      -2.119   3.931  -3.200  0.00  0.00    +0.277 C 
ENDBRANCH  20  24
ENDBRANCH   6  16
BRANCH   1  27
ATOM     26  N   UNL     1      -0.584  -1.911  -5.799  0.00  0.00    -0.275 N 
ATOM     27  C   UNL     1      -1.473  -2.737  -5.213  0.00  0.00    +0.247 C 
ATOM     28  O   UNL     1      -1.088  -3.594  -4.438  0.00  0.00    -0.270 OA
ATOM     29  H   UNL     1      -0.896  -1.176  -6.351  0.00  0.00    +0.156 HD
BRANCH  26  34
ATOM     30  C   UNL     1       1.820  -1.309  -6.046  0.00  0.00    +0.091 A 
ATOM     31  C   UNL     1       3.167  -1.742  -5.715  0.00  0.00    -0.021 A 
ATOM     32  C   UNL     1       3.221  -2.897  -5.019  0.00  0.00    -0.004 A 
ATOM     33  S   UNL     1       1.531  -3.381  -4.819  0.00  0.00    -0.077 S 
ATOM     34  C   UNL     1       0.773  -2.111  -5.614  0.00  0.00    +0.087 A 
ATOM     35  C   UNL     1       4.452  -3.600  -4.535  0.00  0.00    +0.043 C 
ATOM     36  C   UNL     1       5.664  -3.009  -5.270  0.00  0.00    +0.005 C 
ATOM     37  C   UNL     1       5.582  -1.481  -5.214  0.00  0.00    +0.005 C 
ATOM     38  C   UNL     1       4.433  -0.989  -6.097  0.00  0.00    +0.037 C 
BRANCH  30  39
ATOM     39  C   UNL     1       1.578  -0.076  -6.797  0.00  0.00    +0.342 C 
ATOM     40  O   UNL     1       1.344   0.961  -6.205  0.00  0.00    -0.245 OA
BRANCH  39  41
ATOM     41  O   UNL     1       1.613  -0.090  -8.145  0.00  0.00    -0.461 OA
BRANCH  41  43
ATOM     42  C   UNL     1       1.420   0.941 -10.323  0.00  0.00    +0.048 C 
ATOM     43  C   UNL     1       1.479   1.168  -8.811  0.00  0.00    +0.229 C 
ENDBRANCH  41  43
ENDBRANCH  39  41
ENDBRANCH  30  39
ENDBRANCH  26  34
ENDBRANCH   1  27
TORSDOF 8
