REMARK  Name = ZINC14548257
REMARK  6 active torsions:
REMARK  status: ('A' for Active; 'I' for Inactive)
REMARK    1  A    between atoms: C_9  and  O_38
REMARK    2  A    between atoms: C_10  and  C_11
REMARK    3  A    between atoms: C_22  and  S_27
REMARK    4  A    between atoms: S_27  and  N_30
REMARK    5  A    between atoms: N_30  and  C_31
REMARK    6  A    between atoms: C_31  and  C_32
REMARK                            x       y       z     vdW  Elec       q    Type
REMARK                         _______ _______ _______ _____ _____    ______ ____
ROOT
ATOM      1  C   UNL     1      -0.803   1.628   1.177  0.00  0.00    +0.109 C 
ATOM      2  C   UNL     1      -0.072   1.265  -0.101  0.00  0.00    +0.029 C 
ATOM      3  C   UNL     1       1.357   1.858  -0.113  0.00  0.00    +0.033 C 
ATOM      4  C   UNL     1       1.645   2.018  -1.595  0.00  0.00    -0.030 C 
ATOM      5  C   UNL     1       0.527   2.068  -2.276  0.00  0.00    -0.023 C 
ATOM      6  C   UNL     1      -0.670   1.954  -1.342  0.00  0.00    +0.049 C 
ATOM      7  C   UNL     1      -1.147   3.350  -1.047  0.00  0.00    -0.018 A 
ATOM      8  C   UNL     1      -1.550   4.141  -2.115  0.00  0.00    +0.034 A 
ATOM      9  C   UNL     1      -1.994   5.430  -1.904  0.00  0.00    +0.106 A 
ATOM     10  C   UNL     1      -2.044   5.949  -0.623  0.00  0.00    +0.030 A 
ATOM     11  C   UNL     1      -1.647   5.171   0.447  0.00  0.00    +0.025 A 
ATOM     12  C   UNL     1      -1.200   3.872   0.233  0.00  0.00    +0.031 A 
ATOM     13  N   UNL     1      -0.806   3.098   1.330  0.00  0.00    -0.336 N 
ATOM     14  H   UNL     1      -0.540   3.511   2.166  0.00  0.00    +0.147 HD
ENDROOT
BRANCH   1  24
ATOM     15  C   UNL     1      -5.159   2.639   3.667  0.00  0.00    +0.001 A 
ATOM     16  C   UNL     1      -3.849   3.107   3.752  0.00  0.00    +0.001 A 
ATOM     17  C   UNL     1      -2.879   2.630   2.926  0.00  0.00    +0.009 A 
ATOM     18  C   UNL     1      -3.199   1.649   1.971  0.00  0.00    -0.009 A 
ATOM     19  C   UNL     1      -4.531   1.173   1.884  0.00  0.00    -0.017 A 
ATOM     20  C   UNL     1      -5.506   1.690   2.755  0.00  0.00    +0.008 A 
ATOM     21  C   UNL     1      -4.854   0.193   0.929  0.00  0.00    +0.012 A 
ATOM     22  C   UNL     1      -3.887  -0.286   0.101  0.00  0.00    +0.046 A 
ATOM     23  C   UNL     1      -2.573   0.186   0.181  0.00  0.00    +0.122 A 
ATOM     24  C   UNL     1      -2.224   1.134   1.101  0.00  0.00    +0.022 A 
BRANCH  23  25
ATOM     25  O   UNL     1      -1.631  -0.308  -0.663  0.00  0.00    -0.506 OA
ATOM     26  H   UNL     1      -1.230  -1.136  -0.365  0.00  0.00    +0.292 HD
ENDBRANCH  23  25
ENDBRANCH   1  24
BRANCH   9  27
ATOM     27  S   UNL     1      -2.502   6.419  -3.271  0.00  0.00    +0.058 S 
ATOM     28  O   UNL     1      -2.877   5.519  -4.306  0.00  0.00    -0.153 OA
ATOM     29  O   UNL     1      -3.391   7.400  -2.755  0.00  0.00    -0.153 OA
BRANCH  27  30
ATOM     30  N   UNL     1      -1.163   7.230  -3.812  0.00  0.00    -0.187 NA
ATOM     31  H   UNL     1      -1.124   8.197  -3.748  0.00  0.00    +0.148 HD
BRANCH  30  32
ATOM     32  C   UNL     1      -0.038   6.488  -4.385  0.00  0.00    +0.137 C 
BRANCH  32  33
ATOM     33  C   UNL     1       0.882   7.454  -5.134  0.00  0.00    +0.134 C 
ATOM     34  C   UNL     1       2.007   6.666  -5.838  0.00  0.00    +0.035 C 
ATOM     35  C   UNL     1       3.239   7.588  -5.626  0.00  0.00    +0.031 C 
ATOM     36  C   UNL     1       2.925   8.181  -4.229  0.00  0.00    +0.160 C 
ATOM     37  O   UNL     1       1.499   8.354  -4.206  0.00  0.00    -0.375 OA
ENDBRANCH  32  33
ENDBRANCH  30  32
ENDBRANCH  27  30
ENDBRANCH   9  27
TORSDOF 6
