REMARK  Name = ZINC09159848
REMARK  5 active torsions:
REMARK  status: ('A' for Active; 'I' for Inactive)
REMARK    1  A    between atoms: C_1  and  C_2
REMARK    2  A    between atoms: C_9  and  N_34
REMARK    3  A    between atoms: C_10  and  C_32
REMARK    4  A    between atoms: N_18  and  C_21
REMARK    5  A    between atoms: C_21  and  C_22
REMARK                            x       y       z     vdW  Elec       q    Type
REMARK                         _______ _______ _______ _____ _____    ______ ____
ROOT
ATOM      1  C   UNL     1       0.001   1.514   0.009  0.00  0.00    +0.065 C 
ATOM      2  C   UNL     1       0.011   0.007   0.008  0.00  0.00    +0.042 A 
ATOM      3  C   UNL     1       0.003  -0.783  -1.075  0.00  0.00    +0.061 A 
ATOM      4  C   UNL     1       0.017  -2.128  -0.636  0.00  0.00    +0.245 A 
ATOM      5  N   UNL     1       0.034  -2.126   0.664  0.00  0.00    -0.135 NA
ATOM      6  N   UNL     1       0.036  -0.791   1.100  0.00  0.00    -0.278 N 
ATOM      7  H   UNL     1       0.051  -0.494   2.023  0.00  0.00    +0.189 HD
ATOM      8  O   UNL     1       0.012  -3.169  -1.511  0.00  0.00    -0.421 OA
ATOM      9  C   UNL     1      -0.271  -2.904  -2.802  0.00  0.00    +0.201 C 
ATOM     10  C   UNL     1      -0.302  -1.664  -3.338  0.00  0.00    +0.110 C 
ATOM     11  C   UNL     1      -0.016  -0.425  -2.535  0.00  0.00    +0.145 C 
ATOM     12  C   UNL     1       1.269   0.212  -2.955  0.00  0.00    -0.001 A 
ATOM     13  C   UNL     1       2.566  -0.255  -2.952  0.00  0.00    +0.007 A 
ATOM     14  C   UNL     1       3.549   0.611  -3.419  0.00  0.00    +0.000 A 
ATOM     15  C   UNL     1       3.237   1.880  -3.864  0.00  0.00    +0.002 A 
ATOM     16  C   UNL     1       1.935   2.356  -3.871  0.00  0.00    +0.024 A 
ATOM     17  C   UNL     1       0.939   1.496  -3.405  0.00  0.00    +0.041 A 
ATOM     18  N   UNL     1      -0.425   1.706  -3.303  0.00  0.00    -0.265 N 
ATOM     19  C   UNL     1      -1.067   0.629  -2.802  0.00  0.00    +0.241 C 
ATOM     20  O   UNL     1      -2.259   0.527  -2.605  0.00  0.00    -0.274 OA
ENDROOT
BRANCH   9  21
ATOM     21  N   UNL     1      -0.545  -3.965  -3.628  0.00  0.00    -0.328 N 
ATOM     22  H   UNL     1      -0.532  -4.870  -3.277  0.00  0.00    +0.145 HD
ATOM     23  H   UNL     1      -0.753  -3.811  -4.563  0.00  0.00    +0.145 HD
ENDBRANCH   9  21
BRANCH  10  24
ATOM     24  C   UNL     1      -0.619  -1.523  -4.727  0.00  0.00    +0.102 C 
ATOM     25  N   UNL     1      -0.871  -1.412  -5.829  0.00  0.00    -0.191 NA
ENDBRANCH  10  24
BRANCH  18  26
ATOM     26  C   UNL     1      -1.094   2.950  -3.692  0.00  0.00    +0.149 C 
BRANCH  26  27
ATOM     27  C   UNL     1      -1.378   2.926  -5.172  0.00  0.00    -0.022 A 
ATOM     28  C   UNL     1      -1.104   1.811  -5.903  0.00  0.00    +0.006 A 
ATOM     29  C   UNL     1      -1.360   1.770  -7.272  0.00  0.00    +0.001 A 
ATOM     30  C   UNL     1      -1.890   2.845  -7.919  0.00  0.00    +0.008 A 
ATOM     31  C   UNL     1      -2.186   4.013  -7.197  0.00  0.00    -0.018 A 
ATOM     32  C   UNL     1      -1.932   4.053  -5.803  0.00  0.00    -0.013 A 
ATOM     33  C   UNL     1      -2.233   5.220  -5.081  0.00  0.00    +0.009 A 
ATOM     34  C   UNL     1      -2.770   6.292  -5.726  0.00  0.00    +0.001 A 
ATOM     35  C   UNL     1      -3.026   6.251  -7.095  0.00  0.00    +0.001 A 
ATOM     36  C   UNL     1      -2.734   5.143  -7.830  0.00  0.00    +0.008 A 
ENDBRANCH  26  27
ENDBRANCH  18  26
TORSDOF 4
