REMARK  Name = ZINC14624145
REMARK  12 active torsions:
REMARK  status: ('A' for Active; 'I' for Inactive)
REMARK    1  A    between atoms: C_1  and  C_2
REMARK    2  A    between atoms: C_2  and  C_3
REMARK    3  A    between atoms: C_3  and  C_4
REMARK    4  A    between atoms: C_4  and  N_5
REMARK    5  A    between atoms: C_6  and  N_36
REMARK    6  A    between atoms: C_7  and  N_14
REMARK    7  A    between atoms: N_14  and  C_15
REMARK    8  A    between atoms: C_15  and  C_16
REMARK    9  A    between atoms: C_16  and  C_17
REMARK   10  A    between atoms: C_17  and  C_18
REMARK   11  A    between atoms: C_19  and  C_21
REMARK   12  A    between atoms: C_23  and  C_31
REMARK                            x       y       z     vdW  Elec       q    Type
REMARK                         _______ _______ _______ _____ _____    ______ ____
ROOT
ATOM      1  N   UNL     1      -1.276   3.578   0.007  0.00  0.00    -0.260 N 
ATOM      2  C   UNL     1      -1.245   2.242   0.176  0.00  0.00    +0.252 C 
ATOM      3  O   UNL     1      -2.282   1.623   0.321  0.00  0.00    -0.270 OA
ENDROOT
BRANCH   2   4
ATOM      4  C   UNL     1       0.050   1.527   0.186  0.00  0.00    +0.048 A 
ATOM      5  C   UNL     1       1.070   1.898   1.048  0.00  0.00    +0.042 A 
ATOM      6  C   UNL     1       2.287   1.194   1.019  0.00  0.00    +0.079 A 
ATOM      7  N   UNL     1       2.497   0.185   0.196  0.00  0.00    -0.246 NA
ATOM      8  C   UNL     1       1.569  -0.236  -0.666  0.00  0.00    +0.072 A 
ATOM      9  C   UNL     1       0.306   0.405  -0.718  0.00  0.00    +0.013 A 
ATOM     10  C   UNL     1      -0.663  -0.040  -1.623  0.00  0.00    +0.011 A 
ATOM     11  C   UNL     1      -0.384  -1.090  -2.448  0.00  0.00    +0.001 A 
ATOM     12  C   UNL     1       0.856  -1.724  -2.401  0.00  0.00    +0.002 A 
ATOM     13  C   UNL     1       1.821  -1.316  -1.532  0.00  0.00    +0.028 A 
BRANCH   6  14
ATOM     14  C   UNL     1       3.365   1.597   1.942  0.00  0.00    +0.038 A 
ATOM     15  C   UNL     1       4.649   1.122   2.031  0.00  0.00    +0.017 A 
ATOM     16  C   UNL     1       5.488   1.660   2.979  0.00  0.00    +0.008 A 
ATOM     17  C   UNL     1       5.019   2.634   3.803  0.00  0.00    +0.046 A 
ATOM     18  S   UNL     1       3.337   2.825   3.238  0.00  0.00    -0.095 S 
ENDBRANCH   6  14
ENDBRANCH   2   4
BRANCH   1  21
ATOM     19  N   UNL     1      -3.900   5.856   1.198  0.00  0.00    -0.280 N 
ATOM     20  C   UNL     1      -2.697   5.193   1.122  0.00  0.00    +0.127 A 
ATOM     21  C   UNL     1      -2.497   4.274   0.112  0.00  0.00    +0.140 A 
ATOM     22  C   UNL     1      -3.532   4.048  -0.816  0.00  0.00    +0.277 A 
ATOM     23  O   UNL     1      -3.380   3.246  -1.722  0.00  0.00    -0.266 OA
ATOM     24  N   UNL     1      -4.693   4.720  -0.693  0.00  0.00    -0.273 N 
ATOM     25  H   UNL     1      -5.432   4.554  -1.346  0.00  0.00    +0.173 HD
ATOM     26  C   UNL     1      -4.870   5.612   0.298  0.00  0.00    +0.331 A 
ATOM     27  O   UNL     1      -5.926   6.209   0.382  0.00  0.00    -0.246 OA
BRANCH  20  28
ATOM     28  N   UNL     1      -1.707   5.442   2.041  0.00  0.00    -0.343 N 
ATOM     29  H   UNL     1      -0.848   4.999   1.961  0.00  0.00    +0.144 HD
ATOM     30  H   UNL     1      -1.867   6.061   2.771  0.00  0.00    +0.144 HD
ENDBRANCH  20  28
BRANCH  19  31
ATOM     31  C   UNL     1      -4.126   6.834   2.265  0.00  0.00    +0.128 C 
BRANCH  31  32
ATOM     32  C   UNL     1      -3.682   8.219   1.790  0.00  0.00    +0.021 C 
BRANCH  32  34
ATOM     33  C   UNL     1      -3.475  10.625   2.429  0.00  0.00    +0.004 C 
ATOM     34  C   UNL     1      -3.919   9.240   2.905  0.00  0.00    -0.002 C 
ENDBRANCH  32  34
ENDBRANCH  31  32
ENDBRANCH  19  31
ENDBRANCH   1  21
BRANCH   1  35
ATOM     35  C   UNL     1      -0.040   4.308  -0.286  0.00  0.00    +0.114 C 
BRANCH  35  36
ATOM     36  C   UNL     1       0.232   4.268  -1.791  0.00  0.00    +0.019 C 
BRANCH  36  37
ATOM     37  C   UNL     1       1.584   4.922  -2.083  0.00  0.00    -0.002 C 
ATOM     38  C   UNL     1       1.800   4.993  -3.596  0.00  0.00    +0.004 C 
ENDBRANCH  36  37
ENDBRANCH  35  36
ENDBRANCH   1  35
TORSDOF 10
