REMARK  Name = ZINC10003848
REMARK  10 active torsions:
REMARK  status: ('A' for Active; 'I' for Inactive)
REMARK    1  A    between atoms: C_1  and  C_2
REMARK    2  A    between atoms: C_2  and  C_3
REMARK    3  A    between atoms: C_3  and  C_5
REMARK    4  A    between atoms: C_3  and  C_6
REMARK    5  A    between atoms: C_13  and  C_15
REMARK    6  A    between atoms: C_18  and  N_22
REMARK    7  A    between atoms: C_20  and  O_21
REMARK    8  A    between atoms: N_22  and  C_23
REMARK    9  A    between atoms: C_23  and  N_25
REMARK   10  A    between atoms: C_26  and  C_28
REMARK                            x       y       z     vdW  Elec       q    Type
REMARK                         _______ _______ _______ _____ _____    ______ ____
ROOT
ATOM      1  C   UNL     1      -0.812  -7.332  -3.608  0.00  0.00    +0.078 A 
ATOM      2  C   UNL     1      -1.790  -7.250  -4.603  0.00  0.00    +0.018 A 
ATOM      3  C   UNL     1      -2.183  -8.385  -5.276  0.00  0.00    +0.024 A 
ATOM      4  C   UNL     1      -1.610  -9.616  -4.970  0.00  0.00    +0.036 A 
ATOM      5  C   UNL     1      -0.637  -9.707  -3.983  0.00  0.00    +0.069 A 
ATOM      6  C   UNL     1      -0.231  -8.571  -3.304  0.00  0.00    +0.131 A 
ENDROOT
BRANCH   1  14
ATOM      7  C   UNL     1       0.438  -2.071  -1.078  0.00  0.00    -0.042 A 
ATOM      8  C   UNL     1       1.335  -2.821  -0.333  0.00  0.00    +0.007 A 
ATOM      9  C   UNL     1       1.450  -4.181  -0.537  0.00  0.00    +0.049 A 
ATOM     10  C   UNL     1       0.664  -4.805  -1.492  0.00  0.00    +0.156 A 
ATOM     11  C   UNL     1      -0.246  -4.050  -2.249  0.00  0.00    +0.110 A 
ATOM     12  C   UNL     1      -0.355  -2.675  -2.028  0.00  0.00    +0.035 A 
ATOM     13  N   UNL     1      -0.866  -4.916  -3.092  0.00  0.00    -0.209 NA
ATOM     14  C   UNL     1      -0.389  -6.119  -2.886  0.00  0.00    +0.232 A 
ATOM     15  O   UNL     1       0.546  -6.083  -1.917  0.00  0.00    -0.435 OA
BRANCH   7  16
ATOM     16  C   UNL     1       0.326  -0.587  -0.843  0.00  0.00    +0.016 C 
ATOM     17  C   UNL     1       1.677   0.077  -1.118  0.00  0.00    +0.012 C 
BRANCH  16  19
ATOM     18  C   UNL     1      -0.318   1.168   0.816  0.00  0.00    +0.004 C 
ATOM     19  C   UNL     1      -0.083  -0.330   0.609  0.00  0.00    +0.004 C 
ENDBRANCH  16  19
ENDBRANCH   7  16
ENDBRANCH   1  14
BRANCH   6  20
ATOM     20  O   UNL     1       0.724  -8.658  -2.342  0.00  0.00    -0.506 OA
ATOM     21  H   UNL     1       0.375  -8.827  -1.456  0.00  0.00    +0.292 HD
ENDBRANCH   6  20
BRANCH   4  22
ATOM     22  N   UNL     1      -2.014 -10.762  -5.656  0.00  0.00    -0.296 N 
ATOM     23  H   UNL     1      -2.958 -10.935  -5.797  0.00  0.00    +0.154 HD
BRANCH  22  24
ATOM     24  C   UNL     1      -1.093 -11.628  -6.122  0.00  0.00    +0.141 C 
ATOM     25  S   UNL     1       0.566 -11.380  -5.779  0.00  0.00    -0.018 S 
BRANCH  24  26
ATOM     26  N   UNL     1      -1.477 -12.690  -6.857  0.00  0.00    -0.264 N 
ATOM     27  C   UNL     1      -0.556 -13.556  -7.323  0.00  0.00    +0.250 C 
ATOM     28  O   UNL     1       0.622 -13.380  -7.080  0.00  0.00    -0.270 OA
ATOM     29  H   UNL     1      -2.417 -12.831  -7.051  0.00  0.00    +0.157 HD
BRANCH  27  30
ATOM     30  C   UNL     1      -0.977 -14.719  -8.128  0.00  0.00    +0.041 A 
ATOM     31  C   UNL     1      -2.330 -14.920  -8.414  0.00  0.00    +0.017 A 
ATOM     32  C   UNL     1      -2.721 -16.005  -9.166  0.00  0.00    +0.050 A 
ATOM     33  C   UNL     1      -1.775 -16.903  -9.643  0.00  0.00    +0.166 A 
ATOM     34  C   UNL     1      -0.422 -16.708  -9.361  0.00  0.00    +0.167 A 
ATOM     35  C   UNL     1      -0.023 -15.618  -8.613  0.00  0.00    +0.062 A 
ATOM     36  O   UNL     1       0.292 -17.719  -9.938  0.00  0.00    -0.453 OA
ATOM     37  C   UNL     1      -0.668 -18.752 -10.226  0.00  0.00    +0.466 C 
ATOM     38  O   UNL     1      -1.904 -18.033 -10.395  0.00  0.00    -0.453 OA
ENDBRANCH  27  30
ENDBRANCH  24  26
ENDBRANCH  22  24
ENDBRANCH   4  22
TORSDOF 8
