REMARK  Name = ZINC39664162
REMARK  13 active torsions:
REMARK  status: ('A' for Active; 'I' for Inactive)
REMARK    1  A    between atoms: C_1  and  C_2
REMARK    2  A    between atoms: C_2  and  C_3
REMARK    3  A    between atoms: C_3  and  C_4
REMARK    4  A    between atoms: C_4  and  C_5
REMARK    5  A    between atoms: C_5  and  C_7
REMARK    6  A    between atoms: C_5  and  C_8
REMARK    7  A    between atoms: C_12  and  C_21
REMARK    8  A    between atoms: N_23  and  C_24
REMARK    9  A    between atoms: C_24  and  C_25
REMARK   10  A    between atoms: C_25  and  C_27
REMARK   11  A    between atoms: C_25  and  N_35
REMARK   12  A    between atoms: C_30  and  O_33
REMARK   13  A    between atoms: O_33  and  C_34
REMARK                            x       y       z     vdW  Elec       q    Type
REMARK                         _______ _______ _______ _____ _____    ______ ____
ROOT
ATOM      1  C   UNL     1       1.896  -3.226   2.705  0.00  0.00    +0.218 C 
ATOM      2  O   UNL     1       1.374  -3.720   1.728  0.00  0.00    -0.275 OA
ATOM      3  N   UNL     1       2.408  -4.017   3.668  0.00  0.00    -0.300 N 
ATOM      4  C   UNL     1       3.072  -3.603   4.926  0.00  0.00    +0.121 C 
ATOM      5  C   UNL     1       2.564  -4.607   5.985  0.00  0.00    +0.100 C 
ATOM      6  C   UNL     1       2.149  -5.849   5.180  0.00  0.00    -0.004 C 
ATOM      7  C   UNL     1       2.429  -5.499   3.711  0.00  0.00    +0.115 C 
ATOM      8  C   UNL     1       2.981  -7.056   5.604  0.00  0.00    -0.010 C 
ATOM      9  C   UNL     1       2.510  -8.292   4.832  0.00  0.00    -0.082 C 
ATOM     10  N   UNL     1       1.088  -8.531   5.107  0.00  0.00    +0.379 N 
ATOM     11  C   UNL     1       0.286  -7.406   4.612  0.00  0.00    -0.082 C 
ATOM     12  C   UNL     1       0.663  -6.133   5.375  0.00  0.00    -0.010 C 
ATOM     13  H   UNL     1       0.796  -9.380   4.646  0.00  0.00    -0.086 HD
ATOM     14  H   UNL     1       0.951  -8.628   6.102  0.00  0.00    -0.086 HD
ENDROOT
BRANCH   5  15
ATOM     15  C   UNL     1       1.380  -4.037   6.723  0.00  0.00    +0.218 C 
ATOM     16  O   UNL     1       0.654  -3.234   6.176  0.00  0.00    -0.275 OA
ATOM     17  N   UNL     1       1.129  -4.418   7.991  0.00  0.00    -0.316 N 
ATOM     18  H   UNL     1       1.710  -5.060   8.428  0.00  0.00    +0.149 HD
BRANCH  17  19
ATOM     19  C   UNL     1      -0.022  -3.864   8.708  0.00  0.00    +0.093 C 
BRANCH  19  20
ATOM     20  C   UNL     1      -0.001  -4.350  10.159  0.00  0.00    -0.020 C 
BRANCH  20  21
ATOM     21  C   UNL     1       1.206  -3.783  10.861  0.00  0.00    -0.059 A 
ATOM     22  C   UNL     1       1.181  -2.486  11.337  0.00  0.00    +0.005 A 
ATOM     23  C   UNL     1       2.287  -1.964  11.980  0.00  0.00    +0.046 A 
ATOM     24  C   UNL     1       3.422  -2.743  12.149  0.00  0.00    +0.120 A 
ATOM     25  C   UNL     1       3.444  -4.045  11.671  0.00  0.00    +0.046 A 
ATOM     26  C   UNL     1       2.334  -4.564  11.032  0.00  0.00    +0.005 A 
BRANCH  24  27
ATOM     27  O   UNL     1       4.511  -2.231  12.781  0.00  0.00    -0.495 OA
ATOM     28  C   UNL     1       5.644  -3.090  12.919  0.00  0.00    +0.277 C 
ENDBRANCH  24  27
ENDBRANCH  20  21
BRANCH  20  29
ATOM     29  N   UNL     1      -1.221  -3.902  10.843  0.00  0.00    +0.385 N 
ATOM     30  C   UNL     1      -2.417  -4.522  10.217  0.00  0.00    -0.078 C 
ATOM     31  C   UNL     1      -3.488  -4.431  11.332  0.00  0.00    -0.020 C 
ATOM     32  C   UNL     1      -2.673  -4.699  12.618  0.00  0.00    -0.020 C 
ATOM     33  C   UNL     1      -1.216  -4.363  12.248  0.00  0.00    -0.078 C 
ATOM     34  H   UNL     1      -1.290  -2.896  10.807  0.00  0.00    -0.081 HD
ENDBRANCH  20  29
ENDBRANCH  19  20
ENDBRANCH  17  19
ENDBRANCH   5  15
BRANCH   1  35
ATOM     35  C   UNL     1       1.971  -1.727   2.841  0.00  0.00    +0.072 C 
ATOM     36  C   UNL     1       3.437  -1.297   2.933  0.00  0.00    +0.017 C 
BRANCH  35  37
ATOM     37  C   UNL     1       1.322  -1.070   1.622  0.00  0.00    +0.012 C 
BRANCH  37  38
ATOM     38  C   UNL     1       1.286   0.447   1.818  0.00  0.00    +0.000 C 
BRANCH  38  40
ATOM     39  C   UNL     1       0.602   2.620   0.794  0.00  0.00    +0.004 C 
ATOM     40  C   UNL     1       0.637   1.103   0.598  0.00  0.00    -0.003 C 
ENDBRANCH  38  40
ENDBRANCH  37  38
ENDBRANCH  35  37
ENDBRANCH   1  35
TORSDOF 10
