REMARK  Name = ZINC62038791
REMARK  8 active torsions:
REMARK  status: ('A' for Active; 'I' for Inactive)
REMARK    1  A    between atoms: C_1  and  C_2
REMARK    2  A    between atoms: C_2  and  C_4
REMARK    3  A    between atoms: C_2  and  S_16
REMARK    4  A    between atoms: N_6  and  C_7
REMARK    5  A    between atoms: C_9  and  C_14
REMARK    6  A    between atoms: C_12  and  O_13
REMARK    7  A    between atoms: S_16  and  C_17
REMARK    8  A    between atoms: C_20  and  C_26
REMARK                            x       y       z     vdW  Elec       q    Type
REMARK                         _______ _______ _______ _____ _____    ______ ____
ROOT
ATOM      1  C   UNL     1      -0.028   1.508   0.025  0.00  0.00    +0.029 C 
ATOM      2  C   UNL     1      -0.002  -0.021   0.006  0.00  0.00    +0.136 C 
ENDROOT
BRANCH   2   3
ATOM      3  C   UNL     1       0.706  -0.496  -1.237  0.00  0.00    +0.230 C 
ATOM      4  O   UNL     1       1.864  -0.852  -1.176  0.00  0.00    -0.274 OA
ATOM      5  N   UNL     1       0.053  -0.526  -2.415  0.00  0.00    -0.282 N 
ATOM      6  H   UNL     1      -0.891  -0.304  -2.453  0.00  0.00    +0.155 HD
BRANCH   5   7
ATOM      7  C   UNL     1       0.737  -0.878  -3.587  0.00  0.00    +0.076 A 
ATOM      8  C   UNL     1       1.744  -1.823  -3.542  0.00  0.00    +0.038 A 
ATOM      9  C   UNL     1       2.425  -2.171  -4.715  0.00  0.00    +0.016 A 
ATOM     10  C   UNL     1       2.081  -1.559  -5.927  0.00  0.00    +0.015 A 
ATOM     11  C   UNL     1       1.076  -0.619  -5.963  0.00  0.00    +0.048 A 
ATOM     12  C   UNL     1       0.397  -0.277  -4.801  0.00  0.00    +0.138 A 
BRANCH  12  13
ATOM     13  O   UNL     1      -0.597   0.647  -4.844  0.00  0.00    -0.505 OA
ATOM     14  H   UNL     1      -0.296   1.555  -4.705  0.00  0.00    +0.292 HD
ENDBRANCH  12  13
BRANCH   9  15
ATOM     15  C   UNL     1       3.496  -3.174  -4.674  0.00  0.00    +0.258 C 
ATOM     16  O   UNL     1       4.085  -3.474  -5.691  0.00  0.00    -0.296 OA
ENDBRANCH   9  15
ENDBRANCH   5   7
ENDBRANCH   2   3
BRANCH   2  17
ATOM     17  S   UNL     1       0.875  -0.630   1.472  0.00  0.00    -0.093 S 
BRANCH  17  18
ATOM     18  C   UNL     1      -0.143  -0.125   2.818  0.00  0.00    +0.109 A 
ATOM     19  C   UNL     1       0.233  -0.425   4.159  0.00  0.00    +0.040 A 
ATOM     20  C   UNL     1       1.397  -1.129   4.657  0.00  0.00    +0.029 A 
ATOM     21  C   UNL     1       1.541  -1.295   5.995  0.00  0.00    +0.022 A 
ATOM     22  S   UNL     1       0.094  -0.500   6.669  0.00  0.00    -0.069 S 
ATOM     23  C   UNL     1      -0.661   0.030   5.155  0.00  0.00    +0.113 A 
ATOM     24  N   UNL     1      -1.761   0.686   4.841  0.00  0.00    -0.228 NA
ATOM     25  C   UNL     1      -2.055   0.935   3.580  0.00  0.00    +0.223 A 
ATOM     26  N   UNL     1      -1.264   0.544   2.597  0.00  0.00    -0.229 NA
BRANCH  21  27
ATOM     27  C   UNL     1       2.636  -1.973   6.721  0.00  0.00    -0.011 A 
ATOM     28  C   UNL     1       3.699  -2.538   6.016  0.00  0.00    +0.009 A 
ATOM     29  C   UNL     1       4.718  -3.170   6.700  0.00  0.00    +0.001 A 
ATOM     30  C   UNL     1       4.686  -3.244   8.081  0.00  0.00    +0.000 A 
ATOM     31  C   UNL     1       3.634  -2.685   8.786  0.00  0.00    +0.001 A 
ATOM     32  C   UNL     1       2.613  -2.046   8.115  0.00  0.00    +0.009 A 
ENDBRANCH  21  27
ENDBRANCH  17  18
ENDBRANCH   2  17
TORSDOF 7
