REMARK  Name = ZINC33932961
REMARK  10 active torsions:
REMARK  status: ('A' for Active; 'I' for Inactive)
REMARK    1  A    between atoms: C_5  and  O_7
REMARK    2  A    between atoms: O_7  and  C_8
REMARK    3  A    between atoms: C_8  and  C_9
REMARK    4  A    between atoms: C_9  and  C_11
REMARK    5  A    between atoms: C_9  and  O_28
REMARK    6  A    between atoms: C_11  and  O_12
REMARK    7  A    between atoms: O_12  and  C_13
REMARK    8  A    between atoms: C_19  and  O_27
REMARK    9  A    between atoms: C_22  and  C_24
REMARK   10  A    between atoms: C_32  and  C_34
REMARK                            x       y       z     vdW  Elec       q    Type
REMARK                         _______ _______ _______ _____ _____    ______ ____
ROOT
ATOM      1  C   UNL     1       0.195  -4.223  -0.032  0.00  0.00    +0.189 C 
ENDROOT
BRANCH   1   2
ATOM      2  O   UNL     1       0.834  -4.620   1.182  0.00  0.00    -0.385 OA
ATOM      3  H   UNL     1       0.327  -4.414   1.979  0.00  0.00    +0.210 HD
ENDBRANCH   1   2
BRANCH   1   4
ATOM      4  C   UNL     1      -0.031  -2.710  -0.019  0.00  0.00    +0.263 C 
BRANCH   4   5
ATOM      5  O   UNL     1       1.232  -2.040  -0.020  0.00  0.00    -0.488 OA
BRANCH   5  10
ATOM      6  C   UNL     1      -0.017   1.381   0.010  0.00  0.00    +0.007 A 
ATOM      7  C   UNL     1       1.157   2.106   0.002  0.00  0.00    +0.047 A 
ATOM      8  C   UNL     1       2.382   1.450  -0.011  0.00  0.00    +0.143 A 
ATOM      9  C   UNL     1       2.405   0.043  -0.009  0.00  0.00    +0.105 A 
ATOM     10  C   UNL     1       1.209  -0.683  -0.009  0.00  0.00    +0.135 A 
ATOM     11  C   UNL     1       0.002  -0.004   0.002  0.00  0.00    +0.046 A 
ATOM     12  C   UNL     1       3.716  -0.629  -0.000  0.00  0.00    +0.197 A 
ATOM     13  O   UNL     1       3.830  -1.822  -0.219  0.00  0.00    -0.287 OA
ATOM     14  C   UNL     1       4.881   0.229   0.290  0.00  0.00    +0.105 A 
ATOM     15  C   UNL     1       4.710   1.572   0.264  0.00  0.00    +0.220 A 
ATOM     16  O   UNL     1       3.534   2.147  -0.026  0.00  0.00    -0.448 OA
BRANCH  15  17
ATOM     17  C   UNL     1       5.869   2.441   0.570  0.00  0.00    +0.421 C 
ATOM     18  O   UNL     1       6.952   1.943   0.838  0.00  0.00    -0.237 OA
ATOM     19  O   UNL     1       5.742   3.657   0.554  0.00  0.00    -0.237 OA
ENDBRANCH  15  17
ENDBRANCH   5  10
ENDBRANCH   4   5
ENDBRANCH   1   4
BRANCH   1  20
ATOM     20  C   UNL     1      -1.152  -4.938  -0.157  0.00  0.00    +0.263 C 
BRANCH  20  21
ATOM     21  O   UNL     1      -0.934  -6.345  -0.287  0.00  0.00    -0.489 OA
BRANCH  21  22
ATOM     22  C   UNL     1      -2.035  -7.131  -0.409  0.00  0.00    +0.130 A 
ATOM     23  C   UNL     1      -3.299  -6.559  -0.409  0.00  0.00    +0.046 A 
ATOM     24  C   UNL     1      -4.420  -7.358  -0.533  0.00  0.00    +0.007 A 
ATOM     25  C   UNL     1      -4.284  -8.727  -0.656  0.00  0.00    +0.047 A 
ATOM     26  C   UNL     1      -3.020  -9.306  -0.655  0.00  0.00    +0.138 A 
ATOM     27  C   UNL     1      -1.895  -8.505  -0.538  0.00  0.00    +0.069 A 
ATOM     28  C   UNL     1      -0.520  -9.117  -0.545  0.00  0.00    +0.178 C 
ATOM     29  C   UNL     1      -0.607 -10.595  -0.292  0.00  0.00    +0.062 C 
ATOM     30  C   UNL     1      -1.750 -11.259  -0.423  0.00  0.00    +0.215 C 
ATOM     31  O   UNL     1      -2.901 -10.651  -0.776  0.00  0.00    -0.448 OA
BRANCH  30  32
ATOM     32  C   UNL     1      -1.764 -12.707  -0.160  0.00  0.00    +0.421 C 
ATOM     33  O   UNL     1      -0.735 -13.279   0.172  0.00  0.00    -0.237 OA
ATOM     34  O   UNL     1      -2.806 -13.339  -0.274  0.00  0.00    -0.237 OA
ENDBRANCH  30  32
BRANCH  28  35
ATOM     35  O   UNL     1       0.091  -8.892  -1.817  0.00  0.00    -0.383 OA
ATOM     36  H   UNL     1       0.983  -9.259  -1.896  0.00  0.00    +0.211 HD
ENDBRANCH  28  35
ENDBRANCH  21  22
ENDBRANCH  20  21
ENDBRANCH   1  20
TORSDOF 10
