REMARK  Name = ZINC31118584
REMARK  9 active torsions:
REMARK  status: ('A' for Active; 'I' for Inactive)
REMARK    1  A    between atoms: C_6  and  C_7
REMARK    2  A    between atoms: C_13  and  C_16
REMARK    3  A    between atoms: N_18  and  C_19
REMARK    4  A    between atoms: C_19  and  C_20
REMARK    5  A    between atoms: C_20  and  C_21
REMARK    6  A    between atoms: C_21  and  C_22
REMARK    7  A    between atoms: C_23  and  C_35
REMARK    8  A    between atoms: C_24  and  N_34
REMARK    9  A    between atoms: N_25  and  C_27
REMARK                            x       y       z     vdW  Elec       q    Type
REMARK                         _______ _______ _______ _____ _____    ______ ____
ROOT
ATOM      1  C   UNL     1      -1.038  -6.292   1.615  0.00  0.00    +0.104 C 
ENDROOT
BRANCH   1   4
ATOM      2  C   UNL     1      -2.044  -4.075   1.507  0.00  0.00    +0.218 C 
ATOM      3  O   UNL     1      -3.135  -4.603   1.494  0.00  0.00    -0.275 OA
ATOM      4  N   UNL     1      -0.930  -4.832   1.567  0.00  0.00    -0.315 N 
ATOM      5  H   UNL     1       0.060  -4.353   1.579  0.00  0.00    +0.149 HD
BRANCH   2  12
ATOM      6  C   UNL     1       0.002  -0.004   0.002  0.00  0.00    +0.247 C 
ATOM      7  O   UNL     1       1.060  -0.597  -0.079  0.00  0.00    -0.270 OA
ATOM      8  N   UNL     1      -1.150  -0.694   0.111  0.00  0.00    -0.297 N 
ATOM      9  C   UNL     1      -2.442   0.005   0.135  0.00  0.00    +0.108 C 
ATOM     10  C   UNL     1      -3.222  -0.433   1.373  0.00  0.00    +0.020 C 
ATOM     11  C   UNL     1      -3.333  -1.959   1.391  0.00  0.00    +0.016 C 
ATOM     12  C   UNL     1      -1.933  -2.573   1.458  0.00  0.00    +0.092 C 
ATOM     13  C   UNL     1      -1.138  -2.160   0.214  0.00  0.00    +0.120 C 
BRANCH   6  19
ATOM     14  C   UNL     1      -0.876   2.148  -0.892  0.00  0.00    +0.016 A 
ATOM     15  C   UNL     1      -0.897   3.526  -0.903  0.00  0.00    +0.039 A 
ATOM     16  C   UNL     1      -0.064   4.242  -0.058  0.00  0.00    +0.123 A 
ATOM     17  C   UNL     1       0.792   3.577   0.807  0.00  0.00    +0.039 A 
ATOM     18  C   UNL     1       0.817   2.199   0.830  0.00  0.00    +0.016 A 
ATOM     19  C   UNL     1      -0.021   1.473  -0.019  0.00  0.00    +0.037 A 
ATOM     20  F   UNL     1      -0.084   5.593  -0.077  0.00  0.00    -0.205 F 
ENDBRANCH   6  19
ENDBRANCH   2  12
ENDBRANCH   1   4
BRANCH   1  21
ATOM     21  C   UNL     1       0.362  -6.905   1.678  0.00  0.00    +0.025 C 
BRANCH  21  22
ATOM     22  C   UNL     1       0.249  -8.430   1.728  0.00  0.00    +0.060 C 
BRANCH  22  23
ATOM     23  C   UNL     1       1.629  -9.034   1.790  0.00  0.00    +0.083 A 
ATOM     24  C   UNL     1       2.419  -9.412   0.679  0.00  0.00    +0.114 A 
ATOM     25  C   UNL     1       3.614  -9.919   1.183  0.00  0.00    +0.138 A 
ATOM     26  N   UNL     1       3.535  -9.855   2.531  0.00  0.00    -0.217 N 
ATOM     27  N   UNL     1       2.297  -9.304   2.877  0.00  0.00    -0.168 NA
BRANCH  26  28
ATOM     28  C   UNL     1       4.527 -10.271   3.431  0.00  0.00    +0.068 A 
ATOM     29  C   UNL     1       5.311 -11.379   3.138  0.00  0.00    +0.030 A 
ATOM     30  C   UNL     1       6.291 -11.783   4.022  0.00  0.00    +0.040 A 
ATOM     31  C   UNL     1       6.486 -11.091   5.206  0.00  0.00    +0.124 A 
ATOM     32  C   UNL     1       5.701  -9.989   5.503  0.00  0.00    +0.040 A 
ATOM     33  C   UNL     1       4.723  -9.578   4.618  0.00  0.00    +0.030 A 
ATOM     34  F   UNL     1       7.441 -11.492   6.073  0.00  0.00    -0.205 F 
ENDBRANCH  26  28
BRANCH  25  35
ATOM     35  N   UNL     1       4.677 -10.402   0.444  0.00  0.00    -0.342 N 
ATOM     36  H   UNL     1       5.575 -10.779   0.955  0.00  0.00    +0.144 HD
ATOM     37  H   UNL     1       4.625 -10.409  -0.655  0.00  0.00    +0.144 HD
ENDBRANCH  25  35
BRANCH  24  38
ATOM     38  C   UNL     1       2.059  -9.293  -0.702  0.00  0.00    +0.104 C 
ATOM     39  N   UNL     1       1.774  -9.198  -1.797  0.00  0.00    -0.191 NA
ENDBRANCH  24  38
ENDBRANCH  22  23
ENDBRANCH  21  22
ENDBRANCH   1  21
TORSDOF 9
