REMARK  Name = ZINC40036417
REMARK  9 active torsions:
REMARK  status: ('A' for Active; 'I' for Inactive)
REMARK    1  A    between atoms: C_1  and  C_2
REMARK    2  A    between atoms: C_2  and  C_3
REMARK    3  A    between atoms: C_3  and  C_4
REMARK    4  A    between atoms: C_4  and  C_36
REMARK    5  A    between atoms: N_16  and  C_34
REMARK    6  A    between atoms: N_19  and  N_20
REMARK    7  A    between atoms: C_21  and  C_22
REMARK    8  A    between atoms: C_31  and  C_33
REMARK    9  A    between atoms: C_34  and  C_35
REMARK                            x       y       z     vdW  Elec       q    Type
REMARK                         _______ _______ _______ _____ _____    ______ ____
ROOT
ATOM      1  C   UNL     1       0.763  -2.041   1.233  0.00  0.00    +0.004 C 
ATOM      2  C   UNL     1       1.440  -2.440   2.542  0.00  0.00    +0.047 C 
ATOM      3  C   UNL     1       2.912  -2.130   2.491  0.00  0.00    -0.037 A 
ATOM      4  C   UNL     1       3.575  -1.703   3.623  0.00  0.00    +0.004 A 
ATOM      5  C   UNL     1       4.929  -1.424   3.569  0.00  0.00    +0.000 A 
ATOM      6  C   UNL     1       5.628  -1.570   2.384  0.00  0.00    +0.001 A 
ATOM      7  C   UNL     1       4.976  -1.996   1.244  0.00  0.00    +0.010 A 
ATOM      8  C   UNL     1       3.613  -2.276   1.293  0.00  0.00    +0.004 A 
ATOM      9  C   UNL     1       2.884  -2.725   0.085  0.00  0.00    +0.084 A 
ATOM     10  C   UNL     1       1.502  -2.615   0.058  0.00  0.00    +0.049 A 
ATOM     11  C   UNL     1       0.813  -3.047  -1.083  0.00  0.00    +0.260 A 
ATOM     12  O   UNL     1      -0.404  -2.969  -1.144  0.00  0.00    -0.267 OA
ATOM     13  N   UNL     1       1.524  -3.553  -2.114  0.00  0.00    -0.280 N 
ATOM     14  C   UNL     1       2.881  -3.634  -2.038  0.00  0.00    +0.219 A 
ATOM     15  N   UNL     1       3.535  -3.230  -0.968  0.00  0.00    -0.214 NA
ATOM     16  N   UNL     1       3.583  -4.147  -3.097  0.00  0.00    -0.206 N 
ATOM     17  C   UNL     1      -0.675  -2.564   1.230  0.00  0.00    +0.017 C 
ATOM     18  H   UNL     1       3.112  -4.448  -3.890  0.00  0.00    +0.177 HD
ENDROOT
BRANCH  16  19
ATOM     19  N   UNL     1       4.979  -4.236  -3.035  0.00  0.00    -0.188 NA
ATOM     20  C   UNL     1       5.646  -4.724  -4.043  0.00  0.00    +0.137 C 
BRANCH  20  21
ATOM     21  C   UNL     1       7.059  -4.815  -3.980  0.00  0.00    +0.013 C 
ATOM     22  C   UNL     1       7.719  -4.400  -2.871  0.00  0.00    +0.020 C 
ATOM     23  C   UNL     1       9.189  -4.498  -2.868  0.00  0.00    +0.017 A 
ATOM     24  C   UNL     1       9.921  -4.416  -1.685  0.00  0.00    +0.011 A 
ATOM     25  C   UNL     1      11.297  -4.514  -1.728  0.00  0.00    +0.001 A 
ATOM     26  C   UNL     1      11.947  -4.692  -2.938  0.00  0.00    +0.004 A 
ATOM     27  C   UNL     1      11.230  -4.774  -4.118  0.00  0.00    +0.046 A 
ATOM     28  C   UNL     1       9.851  -4.678  -4.093  0.00  0.00    +0.128 A 
ATOM     29  O   UNL     1       9.119  -4.755  -5.233  0.00  0.00    -0.484 OA
ATOM     30  C   UNL     1       7.834  -5.378  -5.143  0.00  0.00    +0.202 C 
ATOM     31  C   UNL     1       7.058  -5.125  -6.437  0.00  0.00    +0.057 C 
ENDBRANCH  20  21
ENDBRANCH  16  19
BRANCH  13  32
ATOM     32  C   UNL     1       0.832  -4.018  -3.319  0.00  0.00    +0.125 C 
ATOM     33  C   UNL     1       0.701  -2.860  -4.311  0.00  0.00    +0.027 C 
ENDBRANCH  13  32
BRANCH   1  34
ATOM     34  C   UNL     1       0.744  -0.515   1.121  0.00  0.00    +0.011 C 
BRANCH  34  36
ATOM     35  C   UNL     1       0.021   1.418  -0.288  0.00  0.00    +0.004 C 
ATOM     36  C   UNL     1       0.040  -0.108  -0.176  0.00  0.00    -0.003 C 
ENDBRANCH  34  36
ENDBRANCH   1  34
TORSDOF 5
