REMARK  Name = ZINC33937349
REMARK  14 active torsions:
REMARK  status: ('A' for Active; 'I' for Inactive)
REMARK    1  A    between atoms: C_1  and  C_2
REMARK    2  A    between atoms: C_2  and  C_3
REMARK    3  A    between atoms: C_3  and  C_4
REMARK    4  A    between atoms: C_4  and  C_6
REMARK    5  A    between atoms: C_4  and  N_18
REMARK    6  A    between atoms: N_10  and  C_11
REMARK    7  A    between atoms: C_11  and  C_12
REMARK    8  A    between atoms: N_18  and  C_19
REMARK    9  A    between atoms: N_18  and  C_26
REMARK   10  A    between atoms: C_19  and  C_20
REMARK   11  A    between atoms: C_26  and  C_27
REMARK   12  A    between atoms: C_31  and  O_39
REMARK   13  A    between atoms: O_39  and  C_40
REMARK   14  A    between atoms: C_40  and  C_41
REMARK                            x       y       z     vdW  Elec       q    Type
REMARK                         _______ _______ _______ _____ _____    ______ ____
ROOT
ATOM      1  N   UNL     1      -1.701  -2.760  -1.452  0.00  0.00    +0.392 N 
ATOM      2  H   UNL     1      -2.490  -2.398  -1.966  0.00  0.00    -0.080 HD
ENDROOT
BRANCH   1   3
ATOM      3  C   UNL     1      -0.455  -2.314  -2.090  0.00  0.00    +0.003 C 
BRANCH   3   4
ATOM      4  C   UNL     1      -0.697  -1.013  -2.810  0.00  0.00    +0.138 A 
ATOM      5  N   UNL     1      -1.439  -0.015  -2.395  0.00  0.00    -0.115 NA
ATOM      6  N   UNL     1      -1.392   0.913  -3.287  0.00  0.00    -0.023 NA
ATOM      7  N   UNL     1      -0.640   0.533  -4.260  0.00  0.00    -0.044 NA
ATOM      8  N   UNL     1      -0.188  -0.647  -4.001  0.00  0.00    -0.228 N 
BRANCH   8   9
ATOM      9  C   UNL     1       0.708  -1.440  -4.846  0.00  0.00    +0.178 C 
BRANCH   9  10
ATOM     10  C   UNL     1      -0.121  -2.296  -5.805  0.00  0.00    +0.140 C 
ATOM     11  C   UNL     1       0.808  -3.076  -6.769  0.00  0.00    +0.035 C 
ATOM     12  C   UNL     1      -0.102  -4.277  -7.148  0.00  0.00    +0.031 C 
ATOM     13  C   UNL     1      -0.889  -4.517  -5.842  0.00  0.00    +0.160 C 
ATOM     14  O   UNL     1      -0.842  -3.304  -5.078  0.00  0.00    -0.375 OA
ENDBRANCH   9  10
ENDBRANCH   8   9
ENDBRANCH   3   4
BRANCH   3  15
ATOM     15  C   UNL     1       0.622  -2.114  -1.021  0.00  0.00    -0.008 C 
BRANCH  15  17
ATOM     16  C   UNL     1       2.178  -3.287   0.542  0.00  0.00    +0.004 C 
ATOM     17  C   UNL     1       1.001  -3.468  -0.419  0.00  0.00    -0.005 C 
ENDBRANCH  15  17
ENDBRANCH   3  15
ENDBRANCH   1   3
BRANCH   1  18
ATOM     18  C   UNL     1      -1.748  -2.266  -0.070  0.00  0.00    -0.042 C 
BRANCH  18  19
ATOM     19  C   UNL     1      -1.961  -0.774  -0.077  0.00  0.00    -0.064 A 
ATOM     20  C   UNL     1      -1.022   0.061   0.500  0.00  0.00    +0.002 A 
ATOM     21  C   UNL     1      -1.217   1.430   0.493  0.00  0.00    +0.000 A 
ATOM     22  C   UNL     1      -2.351   1.963  -0.091  0.00  0.00    +0.000 A 
ATOM     23  C   UNL     1      -3.289   1.129  -0.669  0.00  0.00    +0.000 A 
ATOM     24  C   UNL     1      -3.091  -0.240  -0.666  0.00  0.00    +0.002 A 
ENDBRANCH  18  19
ENDBRANCH   1  18
BRANCH   1  25
ATOM     25  C   UNL     1      -1.751  -4.228  -1.449  0.00  0.00    -0.036 C 
BRANCH  25  26
ATOM     26  C   UNL     1      -3.075  -4.684  -0.892  0.00  0.00    +0.001 A 
ATOM     27  C   UNL     1      -4.097  -4.979  -1.733  0.00  0.00    +0.017 A 
ATOM     28  C   UNL     1      -5.370  -5.419  -1.161  0.00  0.00    +0.002 A 
ATOM     29  C   UNL     1      -6.459  -5.736  -1.980  0.00  0.00    +0.055 A 
ATOM     30  C   UNL     1      -7.645  -6.149  -1.407  0.00  0.00    +0.121 A 
ATOM     31  C   UNL     1      -7.760  -6.249  -0.022  0.00  0.00    +0.047 A 
ATOM     32  C   UNL     1      -6.695  -5.939   0.795  0.00  0.00    +0.030 A 
ATOM     33  C   UNL     1      -5.491  -5.522   0.238  0.00  0.00    +0.049 A 
ATOM     34  N   UNL     1      -4.412  -5.207   1.040  0.00  0.00    -0.322 N 
ATOM     35  H   UNL     1      -4.496  -5.278   2.003  0.00  0.00    +0.169 HD
ATOM     36  C   UNL     1      -3.245  -4.809   0.504  0.00  0.00    +0.251 A 
ATOM     37  O   UNL     1      -2.312  -4.545   1.242  0.00  0.00    -0.268 OA
BRANCH  30  38
ATOM     38  O   UNL     1      -8.707  -6.458  -2.198  0.00  0.00    -0.492 OA
BRANCH  38  39
ATOM     39  C   UNL     1      -9.905  -6.878  -1.541  0.00  0.00    +0.225 C 
ATOM     40  C   UNL     1     -10.980  -7.180  -2.586  0.00  0.00    +0.048 C 
ENDBRANCH  38  39
ENDBRANCH  30  38
ENDBRANCH  25  26
ENDBRANCH   1  25
TORSDOF 12
