REMARK  Name = ZINC65734077
REMARK  6 active torsions:
REMARK  status: ('A' for Active; 'I' for Inactive)
REMARK    1  A    between atoms: C_1  and  C_2
REMARK    2  A    between atoms: C_2  and  O_4
REMARK    3  A    between atoms: O_4  and  C_5
REMARK    4  A    between atoms: C_5  and  C_29
REMARK    5  A    between atoms: C_10  and  C_28
REMARK    6  A    between atoms: C_24  and  O_27
REMARK                            x       y       z     vdW  Elec       q    Type
REMARK                         _______ _______ _______ _____ _____    ______ ____
ROOT
ATOM      1  C   UNL     1      -1.057  -2.117   0.001  0.00  0.00    +0.116 C 
ATOM      2  C   UNL     1      -0.376  -2.618   1.299  0.00  0.00    +0.048 C 
ATOM      3  C   UNL     1      -1.380  -3.591   1.974  0.00  0.00    +0.008 C 
ATOM      4  C   UNL     1      -2.245  -4.060   0.798  0.00  0.00    +0.003 C 
ATOM      5  C   UNL     1      -2.450  -2.739   0.011  0.00  0.00    +0.011 C 
ATOM      6  C   UNL     1      -3.033  -3.110  -1.339  0.00  0.00    +0.011 C 
ATOM      7  C   UNL     1      -4.421  -3.716  -1.082  0.00  0.00    +0.005 C 
ATOM      8  C   UNL     1      -4.349  -4.921  -0.149  0.00  0.00    -0.000 C 
ATOM      9  C   UNL     1      -3.615  -4.604   1.162  0.00  0.00    +0.000 C 
ATOM     10  C   UNL     1      -3.455  -5.902   1.962  0.00  0.00    +0.031 C 
ATOM     11  C   UNL     1      -4.805  -6.523   2.171  0.00  0.00    -0.027 C 
ATOM     12  C   UNL     1      -5.806  -6.331   1.362  0.00  0.00    -0.068 C 
ATOM     13  C   UNL     1      -5.751  -5.434   0.136  0.00  0.00    +0.018 C 
ATOM     14  C   UNL     1      -6.277  -6.220  -1.068  0.00  0.00    +0.010 C 
ATOM     15  C   UNL     1      -7.681  -6.742  -0.759  0.00  0.00    +0.032 C 
ATOM     16  C   UNL     1      -7.623  -7.712   0.422  0.00  0.00    +0.119 C 
ATOM     17  C   UNL     1      -7.124  -7.021   1.672  0.00  0.00    +0.062 C 
ATOM     18  C   UNL     1      -3.419  -1.828   0.767  0.00  0.00    +0.015 C 
ATOM     19  C   UNL     1      -0.275  -2.588  -1.227  0.00  0.00    +0.056 C 
ENDROOT
BRANCH  16  20
ATOM     20  O   UNL     1      -8.922  -8.262   0.651  0.00  0.00    -0.391 OA
ATOM     21  H   UNL     1      -9.280  -8.752  -0.102  0.00  0.00    +0.210 HD
ENDBRANCH  16  20
BRANCH   1  22
ATOM     22  O   UNL     1      -1.151  -0.691   0.009  0.00  0.00    -0.458 OA
BRANCH  22  24
ATOM     23  C   UNL     1      -0.018   1.503   0.010  0.00  0.00    +0.136 C 
ATOM     24  C   UNL     1       0.002  -0.004   0.002  0.00  0.00    +0.304 C 
ATOM     25  O   UNL     1       1.056  -0.594  -0.011  0.00  0.00    -0.251 OA
ENDBRANCH  22  24
ENDBRANCH   1  22
TORSDOF 3
