REMARK  Name = ZINC36531177
REMARK  8 active torsions:
REMARK  status: ('A' for Active; 'I' for Inactive)
REMARK    1  A    between atoms: C_1  and  N_2
REMARK    2  A    between atoms: N_2  and  C_3
REMARK    3  A    between atoms: C_3  and  C_5
REMARK    4  A    between atoms: C_3  and  C_12
REMARK    5  A    between atoms: N_14  and  C_15
REMARK    6  A    between atoms: C_21  and  C_23
REMARK    7  A    between atoms: C_24  and  O_30
REMARK    8  A    between atoms: C_28  and  O_29
REMARK                            x       y       z     vdW  Elec       q    Type
REMARK                         _______ _______ _______ _____ _____    ______ ____
ROOT
ATOM      1  C   UNL     1       0.135  -0.742   1.261  0.00  0.00    +0.192 C 
ENDROOT
BRANCH   1   2
ATOM      2  C   UNL     1      -1.079  -0.494   2.118  0.00  0.00    -0.018 A 
ATOM      3  C   UNL     1      -1.137   0.625   2.928  0.00  0.00    +0.007 A 
ATOM      4  C   UNL     1      -2.250   0.853   3.715  0.00  0.00    +0.020 A 
ATOM      5  C   UNL     1      -3.307  -0.040   3.692  0.00  0.00    +0.041 A 
ATOM      6  C   UNL     1      -3.249  -1.160   2.882  0.00  0.00    +0.020 A 
ATOM      7  C   UNL     1      -2.138  -1.383   2.091  0.00  0.00    +0.007 A 
ATOM      8 CL   UNL     1      -4.706   0.245   4.681  0.00  0.00    -0.084 Cl
ENDBRANCH   1   2
BRANCH   1  10
ATOM      9  C   UNL     1       0.312   1.671   0.497  0.00  0.00    +0.133 C 
ATOM     10  N   UNL     1       0.180   0.247   0.181  0.00  0.00    -0.285 N 
ATOM     11  C   UNL     1       0.100  -0.153  -1.103  0.00  0.00    +0.254 C 
ATOM     12  O   UNL     1      -0.010  -1.336  -1.366  0.00  0.00    -0.270 OA
BRANCH  11  13
ATOM     13  C   UNL     1       0.145   0.841  -2.189  0.00  0.00    +0.119 A 
ATOM     14  C   UNL     1       1.373   1.211  -2.757  0.00  0.00    +0.133 A 
ATOM     15  C   UNL     1       1.404   2.147  -3.778  0.00  0.00    +0.046 A 
ATOM     16  C   UNL     1       0.230   2.715  -4.237  0.00  0.00    +0.007 A 
ATOM     17  C   UNL     1      -0.985   2.358  -3.684  0.00  0.00    +0.046 A 
ATOM     18  C   UNL     1      -1.040   1.419  -2.666  0.00  0.00    +0.133 A 
BRANCH  18  19
ATOM     19  O   UNL     1      -2.235   1.066  -2.130  0.00  0.00    -0.506 OA
ATOM     20  H   UNL     1      -2.505   1.611  -1.378  0.00  0.00    +0.292 HD
ENDBRANCH  18  19
BRANCH  14  21
ATOM     21  O   UNL     1       2.526   0.655  -2.308  0.00  0.00    -0.506 OA
ATOM     22  H   UNL     1       2.780  -0.154  -2.773  0.00  0.00    +0.292 HD
ENDBRANCH  14  21
ENDBRANCH  11  13
ENDBRANCH   1  10
BRANCH   1  23
ATOM     23  C   UNL     1       1.378  -0.622   2.104  0.00  0.00    +0.238 C 
ATOM     24  O   UNL     1       2.219   0.208   1.829  0.00  0.00    -0.273 OA
ATOM     25  N   UNL     1       1.556  -1.437   3.162  0.00  0.00    -0.311 N 
ATOM     26  H   UNL     1       0.883  -2.101   3.382  0.00  0.00    +0.149 HD
BRANCH  25  27
ATOM     27  C   UNL     1       2.764  -1.321   3.982  0.00  0.00    +0.073 C 
ATOM     28  C   UNL     1       3.891  -2.140   3.349  0.00  0.00    +0.022 C 
ATOM     29  C   UNL     1       5.153  -2.018   4.204  0.00  0.00    +0.002 C 
ATOM     30  C   UNL     1       4.868  -2.546   5.612  0.00  0.00    +0.000 C 
ATOM     31  C   UNL     1       3.741  -1.727   6.245  0.00  0.00    +0.002 C 
ATOM     32  C   UNL     1       2.479  -1.848   5.389  0.00  0.00    +0.022 C 
ENDBRANCH  25  27
ENDBRANCH   1  23
TORSDOF 7
