REMARK  Name = ZINC10275464
REMARK  8 active torsions:
REMARK  status: ('A' for Active; 'I' for Inactive)
REMARK    1  A    between atoms: C_1  and  C_2
REMARK    2  A    between atoms: C_7  and  N_8
REMARK    3  A    between atoms: C_9  and  C_11
REMARK    4  A    between atoms: C_11  and  S_12
REMARK    5  A    between atoms: S_12  and  C_13
REMARK    6  A    between atoms: N_23  and  C_24
REMARK    7  A    between atoms: C_28  and  C_31
REMARK    8  A    between atoms: C_29  and  C_30
REMARK                            x       y       z     vdW  Elec       q    Type
REMARK                         _______ _______ _______ _____ _____    ______ ____
ROOT
ATOM      1  C   UNL     1      -1.121  -2.038  -0.028  0.00  0.00    +0.177 A 
ATOM      2  N   UNL     1      -1.141  -0.728  -0.027  0.00  0.00    -0.223 NA
ATOM      3  C   UNL     1       0.001  -0.003  -0.045  0.00  0.00    +0.079 A 
ATOM      4  C   UNL     1      -0.018   1.395  -0.044  0.00  0.00    +0.028 A 
ATOM      5  C   UNL     1       1.160   2.088  -0.062  0.00  0.00    +0.002 A 
ATOM      6  C   UNL     1       2.379   1.423  -0.083  0.00  0.00    +0.001 A 
ATOM      7  C   UNL     1       2.431   0.057  -0.085  0.00  0.00    +0.015 A 
ATOM      8  C   UNL     1       1.244  -0.675  -0.067  0.00  0.00    +0.065 A 
ATOM      9  C   UNL     1       1.239  -2.144  -0.068  0.00  0.00    +0.267 A 
ATOM     10  O   UNL     1       2.277  -2.779  -0.085  0.00  0.00    -0.267 OA
ATOM     11  N   UNL     1       0.037  -2.766  -0.048  0.00  0.00    -0.255 N 
ENDROOT
BRANCH  11  12
ATOM     12  C   UNL     1      -0.022  -4.165  -0.049  0.00  0.00    +0.055 A 
ATOM     13  C   UNL     1      -0.031  -4.862   1.153  0.00  0.00    +0.026 A 
ATOM     14  C   UNL     1      -0.089  -6.241   1.149  0.00  0.00    +0.002 A 
ATOM     15  C   UNL     1      -0.139  -6.930  -0.049  0.00  0.00    +0.004 A 
ATOM     16  C   UNL     1      -0.130  -6.239  -1.247  0.00  0.00    -0.046 A 
ATOM     17  C   UNL     1      -0.077  -4.859  -1.250  0.00  0.00    -0.024 A 
ATOM     18  C   UNL     1      -0.073  -4.107  -2.556  0.00  0.00    +0.046 C 
ATOM     19  C   UNL     1      -0.183  -6.993  -2.551  0.00  0.00    +0.044 C 
ENDBRANCH  11  12
BRANCH   1  20
ATOM     20  S   UNL     1      -2.656  -2.902  -0.003  0.00  0.00    -0.078 S 
BRANCH  20  21
ATOM     21  C   UNL     1      -3.804  -1.503   0.017  0.00  0.00    +0.173 C 
BRANCH  21  23
ATOM     22  N   UNL     1      -6.252  -1.148   0.058  0.00  0.00    -0.285 N 
ATOM     23  C   UNL     1      -5.221  -2.016   0.040  0.00  0.00    +0.227 C 
ATOM     24  O   UNL     1      -5.434  -3.210   0.043  0.00  0.00    -0.275 OA
ATOM     25  H   UNL     1      -6.083  -0.196   0.136  0.00  0.00    +0.155 HD
BRANCH  22  32
ATOM     26  C   UNL     1      -8.339   0.463   1.129  0.00  0.00    +0.045 C 
ATOM     27  C   UNL     1      -8.614  -0.866   0.473  0.00  0.00    -0.029 A 
ATOM     28  C   UNL     1      -9.910  -1.334   0.378  0.00  0.00    +0.005 A 
ATOM     29  C   UNL     1     -10.164  -2.553  -0.225  0.00  0.00    +0.000 A 
ATOM     30  C   UNL     1      -9.122  -3.306  -0.734  0.00  0.00    +0.002 A 
ATOM     31  C   UNL     1      -7.824  -2.841  -0.646  0.00  0.00    +0.023 A 
ATOM     32  C   UNL     1      -7.566  -1.620  -0.037  0.00  0.00    +0.036 A 
ENDBRANCH  22  32
ENDBRANCH  21  23
ENDBRANCH  20  21
ENDBRANCH   1  20
TORSDOF 5
