REMARK  Name = ZINC67641568
REMARK  4 active torsions:
REMARK  status: ('A' for Active; 'I' for Inactive)
REMARK    1  A    between atoms: C_1  and  C_2
REMARK    2  A    between atoms: C_7  and  O_8
REMARK    3  A    between atoms: C_13  and  C_15
REMARK    4  A    between atoms: C_18  and  C_20
REMARK                            x       y       z     vdW  Elec       q    Type
REMARK                         _______ _______ _______ _____ _____    ______ ____
ROOT
ATOM      1  C   UNL     1      -0.018   1.503   0.010  0.00  0.00    +0.047 C 
ATOM      2  C   UNL     1       0.002  -0.004   0.002  0.00  0.00    -0.009 A 
ATOM      3  C   UNL     1       0.006  -0.688  -1.199  0.00  0.00    +0.013 A 
ATOM      4  C   UNL     1       0.024  -2.068  -1.210  0.00  0.00    -0.015 A 
ATOM      5  C   UNL     1       0.040  -2.774  -0.014  0.00  0.00    +0.041 A 
ATOM      6  C   UNL     1       0.037  -2.090   1.193  0.00  0.00    +0.069 A 
ATOM      7  C   UNL     1       0.023  -0.703   1.200  0.00  0.00    +0.122 A 
ATOM      8  N   UNL     1       0.059  -4.172  -0.028  0.00  0.00    -0.285 N 
ATOM      9  C   UNL     1      -0.306  -4.848  -1.133  0.00  0.00    +0.218 C 
ATOM     10  O   UNL     1      -0.269  -6.060  -1.134  0.00  0.00    -0.275 OA
ATOM     11  C   UNL     1      -0.759  -4.117  -2.368  0.00  0.00    +0.112 C 
ATOM     12  C   UNL     1       0.028  -2.814  -2.520  0.00  0.00    +0.095 C 
ATOM     13  H   UNL     1       0.337  -4.658   0.764  0.00  0.00    +0.155 HD
ENDROOT
BRANCH  12  14
ATOM     14  C   UNL     1       1.447  -3.129  -2.915  0.00  0.00    +0.114 A 
ATOM     15  C   UNL     1       2.060  -2.713  -4.040  0.00  0.00    +0.046 A 
ATOM     16  C   UNL     1       3.371  -3.231  -4.012  0.00  0.00    +0.052 A 
ATOM     17  C   UNL     1       3.487  -3.941  -2.859  0.00  0.00    +0.155 A 
ATOM     18  O   UNL     1       2.314  -3.866  -2.201  0.00  0.00    -0.457 OA
BRANCH  17  19
ATOM     19  C   UNL     1       4.692  -4.665  -2.404  0.00  0.00    +0.127 A 
ATOM     20  C   UNL     1       4.814  -5.408  -1.211  0.00  0.00    +0.052 A 
ATOM     21  C   UNL     1       6.066  -5.913  -1.164  0.00  0.00    +0.105 A 
ATOM     22  N   UNL     1       6.720  -5.513  -2.276  0.00  0.00    -0.284 N 
ATOM     23  H   UNL     1       7.638  -5.729  -2.504  0.00  0.00    +0.188 HD
ATOM     24  N   UNL     1       5.843  -4.737  -3.043  0.00  0.00    -0.171 NA
ENDBRANCH  17  19
ENDBRANCH  12  14
BRANCH   7  25
ATOM     25  O   UNL     1       0.025  -0.030   2.381  0.00  0.00    -0.506 OA
ATOM     26  H   UNL     1      -0.858   0.153   2.731  0.00  0.00    +0.292 HD
ENDBRANCH   7  25
TORSDOF 3
