REMARK  Name = ZINC04201225
REMARK  4 active torsions:
REMARK  status: ('A' for Active; 'I' for Inactive)
REMARK    1  A    between atoms: C_7  and  C_11
REMARK    2  A    between atoms: C_7  and  O_31
REMARK    3  A    between atoms: C_16  and  C_20
REMARK    4  A    between atoms: C_20  and  O_30
REMARK                            x       y       z     vdW  Elec       q    Type
REMARK                         _______ _______ _______ _____ _____    ______ ____
ROOT
ATOM      1  C   UNL     1       1.010  -2.820  -1.279  0.00  0.00    +0.101 C 
ATOM      2  C   UNL     1       1.482  -4.277  -1.327  0.00  0.00    +0.015 C 
ATOM      3  C   UNL     1       0.872  -5.047  -0.154  0.00  0.00    +0.002 C 
ATOM      4  C   UNL     1      -0.651  -5.082  -0.292  0.00  0.00    +0.015 C 
ATOM      5  C   UNL     1      -1.202  -3.655  -0.205  0.00  0.00    +0.101 C 
ATOM      6  C   UNL     1      -0.502  -2.800  -1.244  0.00  0.00    +0.147 C 
ATOM      7  O   UNL     1      -1.131  -2.125  -2.023  0.00  0.00    -0.297 OA
ENDROOT
BRANCH   1  14
ATOM      8  C   UNL     1       0.059   1.413  -0.042  0.00  0.00    +0.000 A 
ATOM      9  C   UNL     1       1.265   2.091  -0.042  0.00  0.00    +0.002 A 
ATOM     10  C   UNL     1       2.456   1.396  -0.037  0.00  0.00    +0.024 A 
ATOM     11  C   UNL     1       2.453   0.003  -0.032  0.00  0.00    +0.040 A 
ATOM     12  C   UNL     1       1.236  -0.667  -0.031  0.00  0.00    +0.015 A 
ATOM     13  C   UNL     1       0.048   0.029  -0.036  0.00  0.00    +0.009 A 
ATOM     14  C   UNL     1       1.563  -2.143  -0.024  0.00  0.00    +0.178 C 
ATOM     15  C   UNL     1       3.076  -2.185  -0.021  0.00  0.00    +0.254 C 
ATOM     16  O   UNL     1       3.769  -3.180  -0.015  0.00  0.00    -0.272 OA
ATOM     17  N   UNL     1       3.507  -0.912  -0.025  0.00  0.00    -0.282 N 
ATOM     18  H   UNL     1       4.443  -0.658  -0.025  0.00  0.00    +0.155 HD
BRANCH  14  19
ATOM     19  O   UNL     1       1.042  -2.765   1.153  0.00  0.00    -0.374 OA
ATOM     20  H   UNL     1       1.383  -2.394   1.978  0.00  0.00    +0.211 HD
ENDBRANCH  14  19
ENDBRANCH   1  14
BRANCH   5  21
ATOM     21  C   UNL     1      -2.708  -3.668  -0.477  0.00  0.00    +0.178 C 
ATOM     22  C   UNL     1      -3.234  -2.258  -0.612  0.00  0.00    +0.015 A 
ATOM     23  C   UNL     1      -3.272  -1.186   0.252  0.00  0.00    +0.009 A 
ATOM     24  C   UNL     1      -3.830   0.012  -0.160  0.00  0.00    +0.000 A 
ATOM     25  C   UNL     1      -4.347   0.127  -1.437  0.00  0.00    +0.002 A 
ATOM     26  C   UNL     1      -4.310  -0.945  -2.304  0.00  0.00    +0.024 A 
ATOM     27  C   UNL     1      -3.750  -2.154  -1.897  0.00  0.00    +0.040 A 
ATOM     28  N   UNL     1      -3.596  -3.363  -2.577  0.00  0.00    -0.282 N 
ATOM     29  C   UNL     1      -2.998  -4.299  -1.822  0.00  0.00    +0.254 C 
ATOM     30  O   UNL     1      -2.739  -5.437  -2.155  0.00  0.00    -0.272 OA
ATOM     31  H   UNL     1      -3.888  -3.510  -3.491  0.00  0.00    +0.155 HD
BRANCH  21  32
ATOM     32  O   UNL     1      -3.397  -4.365   0.563  0.00  0.00    -0.374 OA
ATOM     33  H   UNL     1      -4.355  -4.404   0.442  0.00  0.00    +0.211 HD
ENDBRANCH  21  32
ENDBRANCH   5  21
TORSDOF 4
