REMARK  Name = ZINC20343641
REMARK  1 active torsions:
REMARK  status: ('A' for Active; 'I' for Inactive)
REMARK    1  A    between atoms: C_1  and  C_2
REMARK                            x       y       z     vdW  Elec       q    Type
REMARK                         _______ _______ _______ _____ _____    ______ ____
ROOT
ATOM      1  C   UNL     1       2.182  -1.450  -3.526  0.00  0.00    +0.065 C 
ATOM      2  C   UNL     1       1.863  -2.570  -2.569  0.00  0.00    +0.040 A 
ATOM      3  C   UNL     1       1.900  -2.499  -1.224  0.00  0.00    +0.040 A 
ATOM      4  C   UNL     1       1.534  -3.754  -0.704  0.00  0.00    +0.152 A 
ATOM      5  N   UNL     1       1.288  -4.548  -1.725  0.00  0.00    -0.158 NA
ATOM      6  N   UNL     1       1.488  -3.822  -2.906  0.00  0.00    -0.280 N 
ATOM      7  H   UNL     1       1.393  -4.101  -3.966  0.00  0.00    +0.189 HD
ATOM      8  N   UNL     1       1.560  -3.719   0.694  0.00  0.00    -0.267 N 
ATOM      9  C   UNL     1       1.923  -2.512   1.165  0.00  0.00    +0.239 C 
ATOM     10  O   UNL     1       2.028  -2.195   2.331  0.00  0.00    -0.274 OA
ATOM     11  C   UNL     1       2.174  -1.626  -0.028  0.00  0.00    +0.148 C 
ATOM     12  C   UNL     1       3.585  -1.109  -0.039  0.00  0.00    -0.010 A 
ATOM     13  C   UNL     1       4.816  -1.725  -0.054  0.00  0.00    +0.021 A 
ATOM     14  C   UNL     1       5.973  -0.963  -0.062  0.00  0.00    +0.018 A 
ATOM     15  C   UNL     1       5.895   0.419  -0.053  0.00  0.00    +0.016 A 
ATOM     16  C   UNL     1       4.668   1.047  -0.038  0.00  0.00    +0.013 A 
ATOM     17  C   UNL     1       3.495   0.286  -0.030  0.00  0.00    +0.024 A 
ATOM     18  C   UNL     1       2.072   0.681  -0.014  0.00  0.00    +0.162 A 
ATOM     19  C   UNL     1       1.279  -0.419  -0.013  0.00  0.00    +0.113 A 
ATOM     20  N   UNL     1       0.002  -0.004   0.002  0.00  0.00    -0.198 NA
ATOM     21  C   UNL     1      -0.016   1.308   0.009  0.00  0.00    +0.286 A 
ATOM     22  O   UNL     1       1.248   1.759  -0.000  0.00  0.00    -0.424 OA
ATOM     23  N   UNL     1      -1.149   2.095   0.019  0.00  0.00    -0.313 N 
ATOM     24 BR   UNL     1       7.662  -1.813  -0.083  0.00  0.00    -0.050 Br
ATOM     25  H   UNL     1       1.300  -4.618   1.272  0.00  0.00    +0.156 HD
ATOM     26  H   UNL     1      -1.057   3.191   0.025  0.00  0.00    +0.147 HD
ATOM     27  H   UNL     1      -2.144   1.626   0.021  0.00  0.00    +0.147 HD
ENDROOT
TORSDOF 0
