REMARK  Name = ZINC09597968
REMARK  11 active torsions:
REMARK  status: ('A' for Active; 'I' for Inactive)
REMARK    1  A    between atoms: C_1  and  C_2
REMARK    2  A    between atoms: N_6  and  C_7
REMARK    3  A    between atoms: C_7  and  C_8
REMARK    4  A    between atoms: C_8  and  C_9
REMARK    5  A    between atoms: C_9  and  C_10
REMARK    6  A    between atoms: N_12  and  C_13
REMARK    7  A    between atoms: C_14  and  C_27
REMARK    8  A    between atoms: C_19  and  C_23
REMARK    9  A    between atoms: C_23  and  C_24
REMARK   10  A    between atoms: C_23  and  C_25
REMARK   11  A    between atoms: C_23  and  C_26
REMARK                            x       y       z     vdW  Elec       q    Type
REMARK                         _______ _______ _______ _____ _____    ______ ____
ROOT
ATOM      1  C   UNL     1       2.799  -2.413  -0.036  0.00  0.00    +0.218 C 
ATOM      2  O   UNL     1       3.705  -1.608  -0.040  0.00  0.00    -0.275 OA
ATOM      3  N   UNL     1       1.520  -1.989  -0.022  0.00  0.00    -0.279 N 
ATOM      4  H   UNL     1       0.794  -2.633  -0.018  0.00  0.00    +0.155 HD
ENDROOT
BRANCH   3   5
ATOM      5  C   UNL     1       1.240  -0.629  -0.013  0.00  0.00    +0.090 A 
ATOM      6  C   UNL     1       0.002  -0.004   0.002  0.00  0.00    +0.084 A 
ATOM      7  C   UNL     1      -0.018   1.448   0.010  0.00  0.00    -0.018 A 
ATOM      8  C   UNL     1       1.197   2.040   0.002  0.00  0.00    -0.004 A 
ATOM      9  S   UNL     1       2.353   0.699  -0.016  0.00  0.00    -0.077 S 
ATOM     10  C   UNL     1       1.486   3.509   0.005  0.00  0.00    +0.047 C 
ATOM     11  C   UNL     1       0.195   4.257  -0.357  0.00  0.00    -0.000 C 
ATOM     12  C   UNL     1      -0.953   3.697   0.488  0.00  0.00    +0.009 C 
ATOM     13  C   UNL     1      -1.295   2.279   0.033  0.00  0.00    +0.037 C 
BRANCH  11  14
ATOM     14  C   UNL     1       0.367   5.749  -0.065  0.00  0.00    -0.035 C 
ATOM     15  C   UNL     1       1.525   6.302  -0.898  0.00  0.00    +0.011 C 
ATOM     16  C   UNL     1      -0.921   6.491  -0.427  0.00  0.00    +0.011 C 
ATOM     17  C   UNL     1       0.668   5.946   1.422  0.00  0.00    +0.011 C 
ENDBRANCH  11  14
BRANCH   6  18
ATOM     18  C   UNL     1      -1.212  -0.763   0.008  0.00  0.00    +0.102 C 
ATOM     19  N   UNL     1      -2.176  -1.365   0.013  0.00  0.00    -0.191 NA
ENDBRANCH   6  18
ENDBRANCH   3   5
BRANCH   1  20
ATOM     20  C   UNL     1       3.102  -3.889  -0.046  0.00  0.00    +0.098 C 
BRANCH  20  21
ATOM     21  C   UNL     1       4.618  -4.098  -0.061  0.00  0.00    +0.032 C 
BRANCH  21  22
ATOM     22  C   UNL     1       4.926  -5.597  -0.071  0.00  0.00    +0.144 C 
BRANCH  22  28
ATOM     23  C   UNL     1       6.730  -5.855   2.438  0.00  0.00    +0.066 C 
ATOM     24  C   UNL     1       7.174  -5.911   0.999  0.00  0.00    +0.052 A 
ATOM     25  C   UNL     1       8.443  -6.084   0.561  0.00  0.00    +0.089 A 
ATOM     26  C   UNL     1       8.421  -6.076  -0.838  0.00  0.00    +0.249 A 
ATOM     27  N   UNL     1       7.182  -5.910  -1.226  0.00  0.00    -0.145 NA
ATOM     28  N   UNL     1       6.377  -5.797  -0.086  0.00  0.00    -0.265 N 
ATOM     29  N   UNL     1       9.594  -6.235  -1.726  0.00  0.00    +0.078 N 
ATOM     30  O   UNL     1      10.704  -6.390  -1.247  0.00  0.00    -0.125 OA
ATOM     31  O   UNL     1       9.451  -6.211  -2.935  0.00  0.00    -0.125 OA
ATOM     32 BR   UNL     1       9.976  -6.298   1.648  0.00  0.00    -0.044 Br
ENDBRANCH  22  28
ENDBRANCH  21  22
ENDBRANCH  20  21
ENDBRANCH   1  20
TORSDOF 7
