REMARK  Name = ZINC39597493
REMARK  6 active torsions:
REMARK  status: ('A' for Active; 'I' for Inactive)
REMARK    1  A    between atoms: C_1  and  O_2
REMARK    2  A    between atoms: O_2  and  C_3
REMARK    3  A    between atoms: C_8  and  C_9
REMARK    4  A    between atoms: C_9  and  N_10
REMARK    5  A    between atoms: C_11  and  C_13
REMARK    6  A    between atoms: C_24  and  C_26
REMARK                            x       y       z     vdW  Elec       q    Type
REMARK                         _______ _______ _______ _____ _____    ______ ____
ROOT
ATOM      1  C   UNL     1      -3.649  -3.704   0.430  0.00  0.00    +0.100 C 
ATOM      2  C   UNL     1      -4.305  -2.324   0.654  0.00  0.00    +0.121 C 
ATOM      3  N   UNL     1      -5.590  -2.624   1.328  0.00  0.00    -0.295 N 
ATOM      4  C   UNL     1      -5.264  -3.722   2.270  0.00  0.00    +0.115 C 
ATOM      5  C   UNL     1      -4.280  -4.619   1.493  0.00  0.00    -0.004 C 
ATOM      6  C   UNL     1      -3.205  -5.159   2.432  0.00  0.00    -0.010 C 
ATOM      7  C   UNL     1      -3.849  -6.111   3.443  0.00  0.00    -0.082 C 
ATOM      8  N   UNL     1      -4.504  -7.215   2.731  0.00  0.00    +0.379 N 
ATOM      9  C   UNL     1      -5.598  -6.696   1.901  0.00  0.00    -0.082 C 
ATOM     10  C   UNL     1      -5.029  -5.768   0.825  0.00  0.00    -0.010 C 
ATOM     11  C   UNL     1      -6.785  -2.034   1.129  0.00  0.00    +0.265 C 
ATOM     12  O   UNL     1      -7.735  -2.337   1.823  0.00  0.00    -0.268 OA
ATOM     13  H   UNL     1      -3.830  -7.681   2.143  0.00  0.00    -0.086 HD
ATOM     14  H   UNL     1      -4.875  -7.872   3.401  0.00  0.00    -0.086 HD
ENDROOT
BRANCH  11  15
ATOM     15  C   UNL     1      -6.940  -1.016   0.063  0.00  0.00    +0.126 A 
ATOM     16  C   UNL     1      -8.158  -0.330  -0.057  0.00  0.00    +0.033 A 
ATOM     17  C   UNL     1      -8.314   0.611  -1.034  0.00  0.00    +0.012 A 
ATOM     18  C   UNL     1      -7.230   0.861  -1.897  0.00  0.00    +0.000 A 
ATOM     19  C   UNL     1      -7.320   1.815  -2.923  0.00  0.00    +0.010 A 
ATOM     20  C   UNL     1      -6.251   2.030  -3.739  0.00  0.00    +0.001 A 
ATOM     21  C   UNL     1      -5.066   1.316  -3.570  0.00  0.00    +0.002 A 
ATOM     22  C   UNL     1      -4.942   0.384  -2.587  0.00  0.00    +0.028 A 
ATOM     23  C   UNL     1      -6.025   0.132  -1.722  0.00  0.00    +0.072 A 
ATOM     24  N   UNL     1      -5.928  -0.771  -0.747  0.00  0.00    -0.242 NA
ENDBRANCH  11  15
BRANCH   1  26
ATOM     25  N   UNL     1      -1.349  -4.552   0.098  0.00  0.00    -0.311 N 
ATOM     26  C   UNL     1      -2.158  -3.616   0.633  0.00  0.00    +0.218 C 
ATOM     27  O   UNL     1      -1.686  -2.703   1.277  0.00  0.00    -0.275 OA
ATOM     28  H   UNL     1      -1.726  -5.282  -0.418  0.00  0.00    +0.149 HD
BRANCH  25  29
ATOM     29  C   UNL     1       0.101  -4.466   0.294  0.00  0.00    +0.143 C 
BRANCH  29  35
ATOM     30  C   UNL     1       0.990  -5.580  -1.769  0.00  0.00    +0.125 A 
ATOM     31  C   UNL     1       1.612  -6.645  -2.404  0.00  0.00    +0.046 A 
ATOM     32  C   UNL     1       2.008  -7.748  -1.673  0.00  0.00    +0.004 A 
ATOM     33  C   UNL     1       1.784  -7.791  -0.309  0.00  0.00    +0.001 A 
ATOM     34  C   UNL     1       1.164  -6.731   0.326  0.00  0.00    +0.009 A 
ATOM     35  C   UNL     1       0.771  -5.623  -0.400  0.00  0.00    +0.011 A 
BRANCH  30  37
ATOM     36  C   UNL     1       0.857  -4.518  -3.892  0.00  0.00    +0.277 C 
ATOM     37  O   UNL     1       0.600  -4.493  -2.486  0.00  0.00    -0.495 OA
ENDBRANCH  30  37
ENDBRANCH  29  35
ENDBRANCH  25  29
ENDBRANCH   1  26
TORSDOF 5
