REMARK  Name = ZINC64519750
REMARK  8 active torsions:
REMARK  status: ('A' for Active; 'I' for Inactive)
REMARK    1  A    between atoms: C_1  and  C_2
REMARK    2  A    between atoms: C_11  and  C_13
REMARK    3  A    between atoms: C_16  and  C_19
REMARK    4  A    between atoms: N_21  and  C_22
REMARK    5  A    between atoms: C_22  and  C_23
REMARK    6  A    between atoms: C_23  and  C_24
REMARK    7  A    between atoms: C_27  and  O_33
REMARK    8  A    between atoms: O_33  and  C_34
REMARK                            x       y       z     vdW  Elec       q    Type
REMARK                         _______ _______ _______ _____ _____    ______ ____
ROOT
ATOM      1  C   UNL     1       0.492   1.172  -6.496  0.00  0.00    -0.018 A 
ATOM      2  C   UNL     1       0.578   0.216  -7.509  0.00  0.00    +0.009 A 
ATOM      3  C   UNL     1       0.675   0.612  -8.823  0.00  0.00    +0.013 A 
ATOM      4  C   UNL     1       0.688   1.972  -9.143  0.00  0.00    +0.037 A 
ATOM      5  C   UNL     1       0.602   2.929  -8.129  0.00  0.00    +0.013 A 
ATOM      6  C   UNL     1       0.499   2.530  -6.815  0.00  0.00    +0.009 A 
ENDROOT
BRANCH   1  17
ATOM      7  C   UNL     1       0.027  -0.764   1.303  0.00  0.00    +0.109 C 
ATOM      8  C   UNL     1       0.002  -0.004   0.002  0.00  0.00    +0.217 C 
ATOM      9  O   UNL     1      -0.108   1.204   0.007  0.00  0.00    -0.276 OA
ATOM     10  N   UNL     1       0.102  -0.666  -1.168  0.00  0.00    -0.271 N 
ATOM     11  C   UNL     1       0.126  -2.125  -1.307  0.00  0.00    +0.118 C 
ATOM     12  C   UNL     1       0.249  -2.384  -2.817  0.00  0.00    +0.056 C 
ATOM     13  C   UNL     1       0.287  -1.005  -3.438  0.00  0.00    -0.024 A 
ATOM     14  C   UNL     1       0.191  -0.062  -2.424  0.00  0.00    +0.040 A 
ATOM     15  C   UNL     1       0.199   1.296  -2.752  0.00  0.00    +0.024 A 
ATOM     16  C   UNL     1       0.296   1.696  -4.065  0.00  0.00    +0.010 A 
ATOM     17  C   UNL     1       0.387   0.745  -5.081  0.00  0.00    -0.018 A 
ATOM     18  C   UNL     1       0.389  -0.612  -4.755  0.00  0.00    +0.014 A 
ENDBRANCH   1  17
BRANCH   4  19
ATOM     19  C   UNL     1       0.793   2.398 -10.553  0.00  0.00    +0.244 C 
ATOM     20  O   UNL     1       0.869   1.565 -11.436  0.00  0.00    -0.270 OA
ATOM     21  N   UNL     1       0.806   3.710 -10.862  0.00  0.00    -0.311 N 
ATOM     22  H   UNL     1       0.746   4.374 -10.158  0.00  0.00    +0.149 HD
BRANCH  21  23
ATOM     23  C   UNL     1       0.910   4.132 -12.261  0.00  0.00    +0.109 C 
BRANCH  23  24
ATOM     24  C   UNL     1       0.902   5.660 -12.334  0.00  0.00    +0.052 C 
BRANCH  24  25
ATOM     25  C   UNL     1       1.010   6.095 -13.773  0.00  0.00    -0.040 C 
ATOM     26  C   UNL     1      -0.008   6.416 -14.603  0.00  0.00    +0.002 A 
ATOM     27  C   UNL     1      -1.464   6.454 -14.425  0.00  0.00    +0.055 A 
ATOM     28  C   UNL     1      -2.253   6.822 -15.462  0.00  0.00    +0.121 A 
ATOM     29  C   UNL     1      -1.727   7.174 -16.718  0.00  0.00    +0.047 A 
ATOM     30  C   UNL     1      -0.403   7.169 -16.979  0.00  0.00    +0.029 A 
ATOM     31  C   UNL     1       0.545   6.786 -15.927  0.00  0.00    +0.043 A 
ATOM     32  N   UNL     1       1.851   6.698 -15.914  0.00  0.00    -0.380 N 
ATOM     33  C   UNL     1       2.278   6.267 -14.578  0.00  0.00    +0.144 C 
ATOM     34  H   UNL     1       2.439   6.889 -16.662  0.00  0.00    +0.160 HD
BRANCH  28  35
ATOM     35  O   UNL     1      -3.600   6.853 -15.283  0.00  0.00    -0.495 OA
ATOM     36  C   UNL     1      -4.395   7.247 -16.403  0.00  0.00    +0.277 C 
ENDBRANCH  28  35
ENDBRANCH  24  25
ENDBRANCH  23  24
ENDBRANCH  21  23
ENDBRANCH   4  19
TORSDOF 6
