REMARK  Name = ZINC41217508
REMARK  5 active torsions:
REMARK  status: ('A' for Active; 'I' for Inactive)
REMARK    1  A    between atoms: C_4  and  C_7
REMARK    2  A    between atoms: C_7  and  C_9
REMARK    3  A    between atoms: C_7  and  N_12
REMARK    4  A    between atoms: C_13  and  C_15
REMARK    5  A    between atoms: N_17  and  C_18
REMARK                            x       y       z     vdW  Elec       q    Type
REMARK                         _______ _______ _______ _____ _____    ______ ____
ROOT
ATOM      1  C   UNL     1       4.669  -3.572   2.292  0.00  0.00    +0.303 C 
ATOM      2  O   UNL     1       3.591  -4.072   2.540  0.00  0.00    -0.265 OA
ATOM      3  N   UNL     1       5.790  -4.085   2.836  0.00  0.00    -0.278 N 
ATOM      4  H   UNL     1       6.657  -3.729   2.587  0.00  0.00    +0.155 HD
ENDROOT
BRANCH   3   5
ATOM      5  C   UNL     1       5.704  -5.132   3.760  0.00  0.00    +0.038 A 
ATOM      6  C   UNL     1       6.598  -5.196   4.821  0.00  0.00    +0.027 A 
ATOM      7  C   UNL     1       6.516  -6.230   5.735  0.00  0.00    +0.051 A 
ATOM      8  C   UNL     1       5.541  -7.203   5.595  0.00  0.00    +0.167 A 
ATOM      9  C   UNL     1       4.641  -7.140   4.531  0.00  0.00    +0.169 A 
ATOM     10  C   UNL     1       4.720  -6.103   3.620  0.00  0.00    +0.073 A 
ATOM     11  O   UNL     1       3.788  -8.209   4.625  0.00  0.00    -0.447 OA
ATOM     12  C   UNL     1       4.503  -9.147   5.442  0.00  0.00    +0.254 C 
ATOM     13  O   UNL     1       5.245  -8.313   6.343  0.00  0.00    -0.448 OA
ATOM     14  C   UNL     1       5.436 -10.021   4.597  0.00  0.00    +0.093 C 
ATOM     15  C   UNL     1       5.402 -11.399   5.307  0.00  0.00    +0.008 C 
ATOM     16  C   UNL     1       3.928 -11.514   5.771  0.00  0.00    +0.008 C 
ATOM     17  C   UNL     1       3.550 -10.076   6.193  0.00  0.00    +0.093 C 
ENDBRANCH   3   5
BRANCH   1  19
ATOM     18  N   UNL     1       3.631  -1.876   0.842  0.00  0.00    -0.300 N 
ATOM     19  C   UNL     1       4.752  -2.389   1.385  0.00  0.00    +0.300 C 
ATOM     20  O   UNL     1       5.830  -1.889   1.138  0.00  0.00    -0.265 OA
ATOM     21  H   UNL     1       2.769  -2.275   1.039  0.00  0.00    +0.150 HD
BRANCH  18  22
ATOM     22  C   UNL     1       3.713  -0.715  -0.048  0.00  0.00    +0.107 C 
BRANCH  22  26
ATOM     23  C   UNL     1      -0.006   1.385   0.002  0.00  0.00    +0.000 A 
ATOM     24  C   UNL     1       1.184   2.088  -0.014  0.00  0.00    +0.000 A 
ATOM     25  C   UNL     1       2.388   1.409  -0.030  0.00  0.00    +0.005 A 
ATOM     26  C   UNL     1       2.401   0.026  -0.029  0.00  0.00    -0.027 A 
ATOM     27  C   UNL     1       1.211  -0.676  -0.012  0.00  0.00    +0.005 A 
ATOM     28  C   UNL     1       0.007   0.003   0.002  0.00  0.00    +0.000 A 
ENDBRANCH  22  26
BRANCH  22  29
ATOM     29  C   UNL     1       4.014  -1.184  -1.473  0.00  0.00    +0.014 C 
ATOM     30  C   UNL     1       3.966  -2.689  -1.746  0.00  0.00    +0.006 C 
ATOM     31  C   UNL     1       5.311  -1.962  -1.702  0.00  0.00    +0.006 C 
ENDBRANCH  22  29
ENDBRANCH  18  22
ENDBRANCH   1  19
TORSDOF 5
