REMARK  Name = ZINC28826801
REMARK  12 active torsions:
REMARK  status: ('A' for Active; 'I' for Inactive)
REMARK    1  A    between atoms: C_1  and  C_2
REMARK    2  A    between atoms: C_2  and  C_4
REMARK    3  A    between atoms: C_2  and  C_13
REMARK    4  A    between atoms: C_4  and  C_5
REMARK    5  A    between atoms: C_22  and  C_27
REMARK    6  A    between atoms: C_27  and  C_29
REMARK    7  A    between atoms: C_27  and  N_33
REMARK    8  A    between atoms: C_29  and  C_30
REMARK    9  A    between atoms: C_30  and  C_31
REMARK   10  A    between atoms: C_30  and  C_32
REMARK   11  A    between atoms: C_34  and  C_36
REMARK   12  A    between atoms: C_36  and  N_37
REMARK                            x       y       z     vdW  Elec       q    Type
REMARK                         _______ _______ _______ _____ _____    ______ ____
ROOT
ATOM      1  C   UNL     1      -0.459   0.002   0.750  0.00  0.00    +0.219 C 
ATOM      2  O   UNL     1       0.376   0.751   0.288  0.00  0.00    -0.275 OA
ATOM      3  N   UNL     1      -0.837   0.128   2.038  0.00  0.00    -0.298 N 
ATOM      4  C   UNL     1      -1.759  -0.843   2.644  0.00  0.00    +0.126 C 
ATOM      5  C   UNL     1      -1.101  -1.423   3.902  0.00  0.00    +0.125 C 
ATOM      6  N   UNL     1      -0.600  -0.313   4.724  0.00  0.00    -0.313 N 
ATOM      7  C   UNL     1       0.322   0.657   4.118  0.00  0.00    +0.125 C 
ATOM      8  C   UNL     1      -0.332   1.235   2.862  0.00  0.00    +0.126 C 
ATOM      9  C   UNL     1      -0.990  -0.184   6.052  0.00  0.00    +0.104 A 
ATOM     10  C   UNL     1      -0.305  -0.879   7.044  0.00  0.00    +0.011 A 
ATOM     11  C   UNL     1      -0.704  -0.741   8.361  0.00  0.00    +0.010 A 
ATOM     12  C   UNL     1      -1.780   0.091   8.643  0.00  0.00    +0.018 A 
ATOM     13  C   UNL     1      -2.415   0.750   7.610  0.00  0.00    +0.084 A 
ATOM     14  N   UNL     1      -2.008   0.604   6.363  0.00  0.00    -0.349 N 
ATOM     15  H   UNL     1      -2.470   1.082   5.656  0.00  0.00    +0.167 HD
ENDROOT
BRANCH   1  17
ATOM     16  C   UNL     1      -1.000  -0.642  -1.582  0.00  0.00    +0.017 C 
ATOM     17  C   UNL     1      -1.072  -1.068  -0.115  0.00  0.00    +0.076 C 
BRANCH  17  18
ATOM     18  C   UNL     1      -0.305  -2.378   0.074  0.00  0.00    +0.049 C 
BRANCH  18  19
ATOM     19  C   UNL     1      -0.992  -3.478  -0.695  0.00  0.00    -0.028 A 
ATOM     20  C   UNL     1      -1.905  -4.299  -0.060  0.00  0.00    +0.006 A 
ATOM     21  C   UNL     1      -2.535  -5.307  -0.765  0.00  0.00    +0.020 A 
ATOM     22  C   UNL     1      -2.252  -5.495  -2.106  0.00  0.00    +0.042 A 
ATOM     23  C   UNL     1      -1.338  -4.674  -2.742  0.00  0.00    +0.040 A 
ATOM     24  C   UNL     1      -0.712  -3.662  -2.037  0.00  0.00    +0.046 A 
ATOM     25 CL   UNL     1       0.430  -2.626  -2.836  0.00  0.00    -0.083 Cl
ATOM     26 CL   UNL     1      -3.043  -6.762  -2.991  0.00  0.00    -0.083 Cl
ENDBRANCH  18  19
ENDBRANCH  17  18
ENDBRANCH   1  17
BRANCH  10  27
ATOM     27  C   UNL     1       0.857  -1.770   6.687  0.00  0.00    +0.107 C 
BRANCH  27  28
ATOM     28  N   UNL     1       0.980  -2.835   7.686  0.00  0.00    -0.310 N 
ATOM     29  C   UNL     1       1.569  -4.002   7.358  0.00  0.00    +0.196 C 
ATOM     30  O   UNL     1       1.998  -4.170   6.236  0.00  0.00    -0.278 OA
ATOM     31  H   UNL     1       0.637  -2.700   8.583  0.00  0.00    +0.149 HD
BRANCH  29  32
ATOM     32  C   UNL     1       1.696  -5.097   8.385  0.00  0.00    +0.011 C 
BRANCH  32  33
ATOM     33  N   UNL     1       2.369  -6.256   7.785  0.00  0.00    +0.384 N 
ATOM     34  H   UNL     1       1.828  -6.591   7.001  0.00  0.00    -0.089 HD
ATOM     35  H   UNL     1       3.288  -5.985   7.468  0.00  0.00    -0.089 HD
ATOM     36  H   UNL     1       2.454  -6.990   8.472  0.00  0.00    -0.089 HD
ENDBRANCH  32  33
ENDBRANCH  29  32
ENDBRANCH  27  28
BRANCH  27  37
ATOM     37  C   UNL     1       2.145  -0.944   6.662  0.00  0.00    +0.030 C 
BRANCH  37  38
ATOM     38  C   UNL     1       3.294  -1.806   6.136  0.00  0.00    -0.015 C 
ATOM     39  C   UNL     1       3.029  -2.171   4.674  0.00  0.00    +0.007 C 
ATOM     40  C   UNL     1       4.605  -1.025   6.237  0.00  0.00    +0.007 C 
ENDBRANCH  37  38
ENDBRANCH  27  37
ENDBRANCH  10  27
TORSDOF 9
