REMARK  Name = ZINC02415389
REMARK  11 active torsions:
REMARK  status: ('A' for Active; 'I' for Inactive)
REMARK    1  A    between atoms: C_1  and  C_2
REMARK    2  A    between atoms: C_2  and  C_3
REMARK    3  A    between atoms: C_3  and  C_4
REMARK    4  A    between atoms: C_4  and  O_5
REMARK    5  A    between atoms: O_5  and  C_6
REMARK    6  A    between atoms: C_6  and  C_8
REMARK    7  A    between atoms: C_11  and  N_14
REMARK    8  A    between atoms: C_15  and  N_36
REMARK    9  A    between atoms: C_16  and  C_27
REMARK   10  A    between atoms: C_27  and  O_29
REMARK   11  A    between atoms: O_29  and  C_30
REMARK                            x       y       z     vdW  Elec       q    Type
REMARK                         _______ _______ _______ _____ _____    ______ ____
ROOT
ATOM      1  N   UNL     1      -0.016   1.359   0.009  0.00  0.00    -0.280 N 
ATOM      2  C   UNL     1       0.002  -0.004   0.002  0.00  0.00    +0.119 A 
ATOM      3  C   UNL     1       1.312  -0.471  -0.013  0.00  0.00    +0.126 A 
ATOM      4  C   UNL     1       2.181   0.718  -0.015  0.00  0.00    +0.125 A 
ATOM      5  C   UNL     1       1.270   1.865   0.000  0.00  0.00    +0.167 A 
ATOM      6  N   UNL     1       1.765   3.084   0.002  0.00  0.00    -0.225 NA
ATOM      7  C   UNL     1       3.092   3.266  -0.009  0.00  0.00    +0.092 A 
ATOM      8  C   UNL     1       3.630   4.566  -0.008  0.00  0.00    +0.030 A 
ATOM      9  C   UNL     1       4.979   4.741  -0.019  0.00  0.00    +0.002 A 
ATOM     10  C   UNL     1       5.843   3.647  -0.034  0.00  0.00    +0.002 A 
ATOM     11  C   UNL     1       5.361   2.376  -0.036  0.00  0.00    +0.030 A 
ATOM     12  C   UNL     1       3.971   2.154  -0.024  0.00  0.00    +0.090 A 
ATOM     13  N   UNL     1       3.485   0.907  -0.026  0.00  0.00    -0.241 NA
ENDROOT
BRANCH   1  17
ATOM     14  C   UNL     1      -3.476   3.683   0.040  0.00  0.00    +0.059 A 
ATOM     15  C   UNL     1      -3.174   2.862   1.130  0.00  0.00    +0.017 A 
ATOM     16  C   UNL     1      -2.030   2.096   1.117  0.00  0.00    +0.027 A 
ATOM     17  C   UNL     1      -1.176   2.138   0.019  0.00  0.00    +0.050 A 
ATOM     18  C   UNL     1      -1.470   2.957  -1.065  0.00  0.00    +0.027 A 
ATOM     19  C   UNL     1      -2.615   3.722  -1.061  0.00  0.00    +0.017 A 
BRANCH  14  20
ATOM     20  C   UNL     1      -4.699   4.506   0.051  0.00  0.00    +0.339 C 
ATOM     21  O   UNL     1      -5.446   4.471   1.009  0.00  0.00    -0.245 OA
BRANCH  20  22
ATOM     22  O   UNL     1      -4.989   5.297  -1.001  0.00  0.00    -0.461 OA
BRANCH  22  23
ATOM     23  C   UNL     1      -6.210   6.079  -0.921  0.00  0.00    +0.232 C 
BRANCH  23  24
ATOM     24  C   UNL     1      -6.369   6.908  -2.198  0.00  0.00    +0.041 C 
BRANCH  24  26
ATOM     25  C   UNL     1      -7.814   8.561  -3.390  0.00  0.00    +0.004 C 
ATOM     26  C   UNL     1      -7.655   7.732  -2.114  0.00  0.00    -0.000 C 
ENDBRANCH  24  26
ENDBRANCH  23  24
ENDBRANCH  22  23
ENDBRANCH  20  22
ENDBRANCH  14  20
ENDBRANCH   1  17
BRANCH   2  27
ATOM     27  N   UNL     1      -1.112  -0.801   0.009  0.00  0.00    -0.343 N 
ATOM     28  H   UNL     1      -1.995  -0.400   0.020  0.00  0.00    +0.144 HD
ATOM     29  H   UNL     1      -1.018  -1.766   0.003  0.00  0.00    +0.144 HD
ENDBRANCH   2  27
BRANCH   3  30
ATOM     30  C   UNL     1       1.729  -1.825  -0.024  0.00  0.00    +0.345 C 
ATOM     31  O   UNL     1       1.898  -2.401  -1.082  0.00  0.00    -0.245 OA
BRANCH  30  32
ATOM     32  O   UNL     1       1.938  -2.476   1.140  0.00  0.00    -0.458 OA
BRANCH  32  33
ATOM     33  C   UNL     1       2.357  -3.840   1.054  0.00  0.00    +0.177 C 
ATOM     34  C   UNL     1       1.128  -4.751   1.034  0.00  0.00    +0.044 C 
ATOM     35  C   UNL     1       1.577  -6.210   0.942  0.00  0.00    +0.004 C 
ATOM     36  C   UNL     1       2.447  -6.554   2.153  0.00  0.00    +0.000 C 
ATOM     37  C   UNL     1       3.676  -5.643   2.173  0.00  0.00    +0.004 C 
ATOM     38  C   UNL     1       3.227  -4.183   2.265  0.00  0.00    +0.044 C 
ENDBRANCH  32  33
ENDBRANCH  30  32
ENDBRANCH   3  30
TORSDOF 10
