REMARK  Name = ZINC08938490
REMARK  6 active torsions:
REMARK  status: ('A' for Active; 'I' for Inactive)
REMARK    1  A    between atoms: C_1  and  C_2
REMARK    2  A    between atoms: C_2  and  C_4
REMARK    3  A    between atoms: C_2  and  S_20
REMARK    4  A    between atoms: C_10  and  C_15
REMARK    5  A    between atoms: S_20  and  C_21
REMARK    6  A    between atoms: C_24  and  C_27
REMARK                            x       y       z     vdW  Elec       q    Type
REMARK                         _______ _______ _______ _____ _____    ______ ____
ROOT
ATOM      1  C   UNL     1      -1.203   1.615   0.017  0.00  0.00    +0.124 A 
ATOM      2  N   UNL     1      -0.011   0.966   0.007  0.00  0.00    -0.309 N 
ATOM      3  H   UNL     1       0.002  -0.004   0.002  0.00  0.00    +0.170 HD
ATOM      4  C   UNL     1       1.153   1.641  -0.000  0.00  0.00    +0.260 A 
ATOM      5  O   UNL     1       2.215   1.044  -0.014  0.00  0.00    -0.267 OA
ATOM      6  C   UNL     1       1.125   3.072   0.008  0.00  0.00    +0.083 A 
ATOM      7  C   UNL     1       2.236   4.017   0.002  0.00  0.00    +0.039 A 
ATOM      8  C   UNL     1       1.961   5.346   0.011  0.00  0.00    +0.059 A 
ATOM      9  S   UNL     1       0.179   5.398   0.029  0.00  0.00    -0.076 S 
ATOM     10  C   UNL     1      -0.153   3.655   0.023  0.00  0.00    +0.116 A 
ATOM     11  N   UNL     1      -1.261   2.920   0.029  0.00  0.00    -0.225 NA
ENDROOT
BRANCH   7  12
ATOM     12  C   UNL     1       3.633   3.537  -0.014  0.00  0.00    +0.136 A 
ATOM     13  C   UNL     1       4.609   3.948  -0.868  0.00  0.00    +0.050 A 
ATOM     14  C   UNL     1       5.776   3.236  -0.524  0.00  0.00    +0.042 A 
ATOM     15  C   UNL     1       5.456   2.429   0.506  0.00  0.00    +0.196 A 
ATOM     16  O   UNL     1       4.160   2.613   0.812  0.00  0.00    -0.463 OA
ENDBRANCH   7  12
BRANCH   1  18
ATOM     17  C   UNL     1      -2.988   0.661  -1.417  0.00  0.00    +0.027 C 
ATOM     18  C   UNL     1      -2.482   0.817   0.018  0.00  0.00    +0.116 C 
BRANCH  18  19
ATOM     19  S   UNL     1      -3.732   1.679   1.010  0.00  0.00    -0.094 S 
BRANCH  19  20
ATOM     20  C   UNL     1      -5.097   0.566   1.038  0.00  0.00    +0.116 A 
ATOM     21  C   UNL     1      -6.258   0.913   1.725  0.00  0.00    +0.073 A 
ATOM     22  C   UNL     1      -7.321   0.028   1.738  0.00  0.00    +0.036 A 
ATOM     23  C   UNL     1      -7.189  -1.177   1.061  0.00  0.00    +0.074 A 
ATOM     24  C   UNL     1      -6.010  -1.456   0.400  0.00  0.00    +0.124 A 
ATOM     25  N   UNL     1      -5.013  -0.592   0.400  0.00  0.00    -0.247 NA
ATOM     26 CL   UNL     1      -6.368   2.434   2.555  0.00  0.00    -0.081 Cl
BRANCH  23  27
ATOM     27  C   UNL     1      -8.322  -2.171   1.048  0.00  0.00    +0.419 C 
ATOM     28  F   UNL     1      -9.153  -1.918  -0.048  0.00  0.00    -0.166 F 
ATOM     29  F   UNL     1      -7.804  -3.467   0.952  0.00  0.00    -0.166 F 
ATOM     30  F   UNL     1      -9.060  -2.051   2.231  0.00  0.00    -0.166 F 
ENDBRANCH  23  27
ENDBRANCH  19  20
ENDBRANCH  18  19
ENDBRANCH   1  18
TORSDOF 5
