REMARK  Name = ZINC62561338
REMARK  6 active torsions:
REMARK  status: ('A' for Active; 'I' for Inactive)
REMARK    1  A    between atoms: C_1  and  C_2
REMARK    2  A    between atoms: C_5  and  C_8
REMARK    3  A    between atoms: N_12  and  C_23
REMARK    4  A    between atoms: C_14  and  C_22
REMARK    5  A    between atoms: C_16  and  C_21
REMARK    6  A    between atoms: C_17  and  N_20
REMARK                            x       y       z     vdW  Elec       q    Type
REMARK                         _______ _______ _______ _____ _____    ______ ____
ROOT
ATOM      1  C   UNL     1       0.059  -4.273  -0.021  0.00  0.00    +0.289 C 
ATOM      2  C   UNL     1      -1.324  -4.807   0.244  0.00  0.00    +0.265 C 
ATOM      3  O   UNL     1      -2.138  -4.885  -0.649  0.00  0.00    -0.271 OA
ATOM      4  N   UNL     1      -1.650  -5.201   1.501  0.00  0.00    -0.268 N 
ATOM      5  C   UNL     1      -0.865  -4.737   2.563  0.00  0.00    +0.083 A 
ATOM      6  C   UNL     1      -1.333  -4.393   3.814  0.00  0.00    -0.025 A 
ATOM      7  C   UNL     1      -0.441  -4.027   4.815  0.00  0.00    +0.010 A 
ATOM      8  C   UNL     1       0.911  -3.939   4.561  0.00  0.00    -0.026 A 
ATOM      9  C   UNL     1       1.387  -4.200   3.283  0.00  0.00    +0.072 A 
ATOM     10  C   UNL     1       0.501  -4.576   2.286  0.00  0.00    +0.164 A 
ATOM     11  O   UNL     1       0.936  -4.753   1.006  0.00  0.00    -0.471 OA
ATOM     12  C   UNL     1       1.869  -3.562   5.661  0.00  0.00    +0.046 C 
ATOM     13  C   UNL     1      -2.802  -4.339   4.154  0.00  0.00    +0.046 C 
ATOM     14  C   UNL     1      -2.747  -6.157   1.665  0.00  0.00    +0.138 C 
ENDROOT
BRANCH   1  19
ATOM     15  C   UNL     1      -0.018   1.503   0.010  0.00  0.00    +0.044 C 
ATOM     16  C   UNL     1       0.002  -0.004   0.002  0.00  0.00    -0.050 A 
ATOM     17  C   UNL     1       0.138  -0.687  -1.192  0.00  0.00    +0.004 A 
ATOM     18  C   UNL     1       0.157  -2.069  -1.200  0.00  0.00    +0.008 A 
ATOM     19  C   UNL     1       0.040  -2.768  -0.013  0.00  0.00    +0.002 A 
ATOM     20  C   UNL     1      -0.095  -2.086   1.181  0.00  0.00    +0.008 A 
ATOM     21  C   UNL     1      -0.109  -0.703   1.189  0.00  0.00    +0.004 A 
ENDBRANCH   1  19
BRANCH   9  22
ATOM     22  N   UNL     1       2.755  -4.084   3.006  0.00  0.00    -0.355 N 
ATOM     23  H   UNL     1       3.371  -3.820   3.708  0.00  0.00    +0.142 HD
ATOM     24  H   UNL     1       3.086  -4.266   2.113  0.00  0.00    +0.142 HD
ENDBRANCH   9  22
TORSDOF 2
