REMARK  Name = ZINC31829118
REMARK  8 active torsions:
REMARK  status: ('A' for Active; 'I' for Inactive)
REMARK    1  A    between atoms: C_1  and  C_2
REMARK    2  A    between atoms: N_13  and  C_16
REMARK    3  A    between atoms: C_16  and  C_17
REMARK    4  A    between atoms: N_19  and  N_20
REMARK    5  A    between atoms: C_21  and  C_22
REMARK    6  A    between atoms: C_25  and  O_30
REMARK    7  A    between atoms: C_26  and  O_28
REMARK    8  A    between atoms: O_28  and  C_29
REMARK                            x       y       z     vdW  Elec       q    Type
REMARK                         _______ _______ _______ _____ _____    ______ ____
ROOT
ATOM      1  C   UNL     1       0.024  -3.055   0.289  0.00  0.00    +0.223 C 
ENDROOT
BRANCH   1  13
ATOM      2  C   UNL     1       1.115  -9.438   6.848  0.00  0.00    +0.008 C 
ATOM      3  C   UNL     1       1.279  -8.516   5.638  0.00  0.00    -0.009 C 
ATOM      4  C   UNL     1       0.193  -7.436   5.663  0.00  0.00    +0.008 C 
ATOM      5  C   UNL     1       0.496  -6.370   4.610  0.00  0.00    +0.037 C 
ATOM      6  C   UNL     1       0.711  -7.055   3.264  0.00  0.00    -0.023 A 
ATOM      7  C   UNL     1       0.992  -8.373   3.198  0.00  0.00    -0.004 A 
ATOM      8  S   UNL     1       1.153  -8.723   1.468  0.00  0.00    -0.073 S 
ATOM      9  C   UNL     1       0.843  -7.093   0.837  0.00  0.00    +0.116 A 
ATOM     10  C   UNL     1       0.624  -6.331   1.996  0.00  0.00    +0.076 A 
ATOM     11  C   UNL     1       0.344  -4.942   1.781  0.00  0.00    +0.263 A 
ATOM     12  O   UNL     1       0.140  -4.198   2.725  0.00  0.00    -0.267 OA
ATOM     13  N   UNL     1       0.310  -4.473   0.520  0.00  0.00    -0.290 N 
ATOM     14  C   UNL     1       0.529  -5.288  -0.543  0.00  0.00    +0.203 A 
ATOM     15  N   UNL     1       0.793  -6.557  -0.379  0.00  0.00    -0.230 NA
ATOM     16  C   UNL     1       1.135  -9.329   4.343  0.00  0.00    +0.046 C 
ENDBRANCH   1  13
BRANCH   1  17
ATOM     17  C   UNL     1       1.315  -2.277   0.281  0.00  0.00    +0.252 C 
ATOM     18  O   UNL     1       2.370  -2.852   0.451  0.00  0.00    -0.272 OA
ATOM     19  N   UNL     1       1.298  -0.944   0.085  0.00  0.00    -0.206 N 
ATOM     20  H   UNL     1       0.341  -0.423  -0.069  0.00  0.00    +0.177 HD
BRANCH  19  21
ATOM     21  N   UNL     1       2.498  -0.221   0.077  0.00  0.00    -0.188 NA
ATOM     22  C   UNL     1       2.475   1.075   0.015  0.00  0.00    +0.138 C 
BRANCH  22  23
ATOM     23  C   UNL     1       1.300   1.815   0.510  0.00  0.00    -0.002 A 
ATOM     24  C   UNL     1       0.357   1.174   1.317  0.00  0.00    +0.013 A 
ATOM     25  C   UNL     1      -0.744   1.867   1.775  0.00  0.00    +0.050 A 
ATOM     26  C   UNL     1      -0.913   3.204   1.445  0.00  0.00    +0.158 A 
ATOM     27  C   UNL     1       0.023   3.850   0.640  0.00  0.00    +0.162 A 
ATOM     28  C   UNL     1       1.126   3.160   0.173  0.00  0.00    +0.058 A 
BRANCH  27  29
ATOM     29  O   UNL     1      -0.149   5.159   0.314  0.00  0.00    -0.491 OA
ATOM     30  C   UNL     1       0.850   5.758  -0.514  0.00  0.00    +0.277 C 
ENDBRANCH  27  29
BRANCH  26  31
ATOM     31  O   UNL     1      -1.997   3.884   1.903  0.00  0.00    -0.503 OA
ATOM     32  H   UNL     1      -2.133   4.944   1.641  0.00  0.00    +0.292 HD
ENDBRANCH  26  31
ENDBRANCH  22  23
ENDBRANCH  19  21
ENDBRANCH   1  17
TORSDOF 6
