REMARK  Name = ZINC37308819
REMARK  5 active torsions:
REMARK  status: ('A' for Active; 'I' for Inactive)
REMARK    1  A    between atoms: C_4  and  O_18
REMARK    2  A    between atoms: C_5  and  C_7
REMARK    3  A    between atoms: C_7  and  C_9
REMARK    4  A    between atoms: C_7  and  N_17
REMARK    5  A    between atoms: O_18  and  C_19
REMARK                            x       y       z     vdW  Elec       q    Type
REMARK                         _______ _______ _______ _____ _____    ______ ____
ROOT
ATOM      1  C   UNL     1       1.227  -2.187  -0.022  0.00  0.00    -0.009 C 
ENDROOT
BRANCH   1   2
ATOM      2  C   UNL     1       1.494  -2.693   1.372  0.00  0.00    -0.043 A 
ATOM      3  C   UNL     1       1.270  -1.873   2.461  0.00  0.00    +0.018 A 
ATOM      4  C   UNL     1       1.515  -2.338   3.740  0.00  0.00    +0.018 A 
ATOM      5  C   UNL     1       1.986  -3.625   3.930  0.00  0.00    +0.016 A 
ATOM      6  C   UNL     1       2.210  -4.446   2.841  0.00  0.00    +0.016 A 
ATOM      7  C   UNL     1       1.959  -3.982   1.562  0.00  0.00    +0.020 A 
ATOM      8 BR   UNL     1       2.259  -5.108   0.072  0.00  0.00    -0.050 Br
ATOM      9 BR   UNL     1       1.208  -1.214   5.230  0.00  0.00    -0.050 Br
ENDBRANCH   1   2
BRANCH   1  14
ATOM     10  C   UNL     1      -0.163   1.321   0.134  0.00  0.00    +0.000 A 
ATOM     11  C   UNL     1       0.988   2.082   0.035  0.00  0.00    +0.004 A 
ATOM     12  C   UNL     1       2.218   1.464  -0.083  0.00  0.00    +0.046 A 
ATOM     13  C   UNL     1       2.298   0.079  -0.102  0.00  0.00    +0.129 A 
ATOM     14  C   UNL     1       1.143  -0.682  -0.002  0.00  0.00    -0.016 A 
ATOM     15  C   UNL     1      -0.085  -0.059   0.116  0.00  0.00    +0.006 A 
BRANCH  13  16
ATOM     16  O   UNL     1       3.507  -0.531  -0.218  0.00  0.00    -0.434 OA
BRANCH  16  17
ATOM     17  C   UNL     1       4.654   0.316  -0.317  0.00  0.00    +0.541 C 
ATOM     18  F   UNL     1       4.535   1.132  -1.447  0.00  0.00    -0.166 F 
ATOM     19  F   UNL     1       4.745   1.114   0.828  0.00  0.00    -0.166 F 
ENDBRANCH  16  17
ENDBRANCH  13  16
ENDBRANCH   1  14
BRANCH   1  20
ATOM     20  N   UNL     1      -0.043  -2.741  -0.509  0.00  0.00    +0.385 N 
ATOM     21  H   UNL     1      -0.222  -2.402  -1.442  0.00  0.00    -0.089 HD
ATOM     22  H   UNL     1       0.013  -3.749  -0.523  0.00  0.00    -0.089 HD
ATOM     23  H   UNL     1      -0.792  -2.454   0.102  0.00  0.00    -0.089 HD
ENDBRANCH   1  20
TORSDOF 5
