REMARK  Name = ZINC22060839
REMARK  12 active torsions:
REMARK  status: ('A' for Active; 'I' for Inactive)
REMARK    1  A    between atoms: C_1  and  C_2
REMARK    2  A    between atoms: C_2  and  C_3
REMARK    3  A    between atoms: C_2  and  C_4
REMARK    4  A    between atoms: C_7  and  C_40
REMARK    5  A    between atoms: N_8  and  C_9
REMARK    6  A    between atoms: N_18  and  C_19
REMARK    7  A    between atoms: C_19  and  C_20
REMARK    8  A    between atoms: C_20  and  C_21
REMARK    9  A    between atoms: C_21  and  C_23
REMARK   10  A    between atoms: C_21  and  N_29
REMARK   11  A    between atoms: C_30  and  C_32
REMARK   12  A    between atoms: C_40  and  O_41
REMARK                            x       y       z     vdW  Elec       q    Type
REMARK                         _______ _______ _______ _____ _____    ______ ____
ROOT
ATOM      1  C   UNL     1      -5.353  -3.668  -3.619  0.00  0.00    -0.076 C 
ENDROOT
BRANCH   1   9
ATOM      2  C   UNL     1      -1.655  -1.954  -2.224  0.00  0.00    +0.087 C 
ATOM      3  C   UNL     1      -1.888  -3.467  -2.200  0.00  0.00    +0.010 C 
ATOM      4  C   UNL     1      -3.401  -3.737  -2.172  0.00  0.00    -0.066 C 
ATOM      5  C   UNL     1      -4.021  -2.841  -1.075  0.00  0.00    -0.017 C 
ATOM      6  C   UNL     1      -4.357  -1.516  -1.791  0.00  0.00    -0.017 C 
ATOM      7  C   UNL     1      -3.910  -1.732  -3.255  0.00  0.00    -0.066 C 
ATOM      8  C   UNL     1      -2.432  -1.329  -3.386  0.00  0.00    +0.010 C 
ATOM      9  N   UNL     1      -3.965  -3.220  -3.448  0.00  0.00    +0.384 N 
ATOM     10  H   UNL     1      -3.397  -3.510  -4.230  0.00  0.00    -0.081 HD
BRANCH   2  15
ATOM     11  C   UNL     1      -2.597  -0.118  -0.769  0.00  0.00    +0.136 A 
ATOM     12  N   UNL     1      -2.895  -0.007   0.496  0.00  0.00    -0.134 NA
ATOM     13  N   UNL     1      -2.624  -1.107   1.104  0.00  0.00    -0.132 NA
ATOM     14  C   UNL     1      -2.141  -1.971   0.253  0.00  0.00    +0.159 A 
ATOM     15  N   UNL     1      -2.115  -1.370  -0.961  0.00  0.00    -0.310 N 
BRANCH  11  17
ATOM     16  C   UNL     1      -4.216   0.956  -2.310  0.00  0.00    +0.015 C 
ATOM     17  C   UNL     1      -2.765   0.945  -1.824  0.00  0.00    +0.051 C 
ATOM     18  C   UNL     1      -2.416   2.311  -1.230  0.00  0.00    +0.015 C 
ENDBRANCH  11  17
BRANCH  14  19
ATOM     19  C   UNL     1      -1.699  -3.378   0.563  0.00  0.00    +0.232 C 
BRANCH  19  20
ATOM     20  O   UNL     1      -2.750  -4.290   0.236  0.00  0.00    -0.387 OA
ATOM     21  H   UNL     1      -2.508  -5.221   0.338  0.00  0.00    +0.210 HD
ENDBRANCH  19  20
ENDBRANCH  14  19
ENDBRANCH   2  15
ENDBRANCH   1   9
BRANCH   1  22
ATOM     22  C   UNL     1      -5.865  -3.228  -4.992  0.00  0.00    +0.008 C 
BRANCH  22  23
ATOM     23  C   UNL     1      -7.311  -3.695  -5.171  0.00  0.00    +0.101 C 
BRANCH  23  24
ATOM     24  C   UNL     1      -7.856  -3.158  -6.469  0.00  0.00    -0.027 A 
ATOM     25  C   UNL     1      -7.548  -3.786  -7.661  0.00  0.00    +0.005 A 
ATOM     26  C   UNL     1      -8.047  -3.293  -8.852  0.00  0.00    +0.000 A 
ATOM     27  C   UNL     1      -8.855  -2.172  -8.851  0.00  0.00    +0.000 A 
ATOM     28  C   UNL     1      -9.164  -1.544  -7.659  0.00  0.00    +0.000 A 
ATOM     29  C   UNL     1      -8.668  -2.039  -6.468  0.00  0.00    +0.005 A 
ENDBRANCH  23  24
BRANCH  23  30
ATOM     30  N   UNL     1      -7.353  -5.159  -5.193  0.00  0.00    -0.308 N 
ATOM     31  C   UNL     1      -8.480  -5.807  -4.839  0.00  0.00    +0.217 C 
ATOM     32  O   UNL     1      -9.461  -5.178  -4.502  0.00  0.00    -0.275 OA
ATOM     33  H   UNL     1      -6.568  -5.662  -5.463  0.00  0.00    +0.149 HD
BRANCH  31  34
ATOM     34  C   UNL     1      -8.523  -7.313  -4.861  0.00  0.00    +0.075 C 
ATOM     35  C   UNL     1      -8.241  -7.810  -6.281  0.00  0.00    +0.018 C 
ATOM     36  C   UNL     1      -8.285  -9.339  -6.304  0.00  0.00    +0.076 C 
ATOM     37  C   UNL     1      -9.669  -9.817  -5.861  0.00  0.00    +0.249 C 
ATOM     38  C   UNL     1      -9.950  -9.320  -4.442  0.00  0.00    +0.076 C 
ATOM     39  C   UNL     1      -9.907  -7.791  -4.419  0.00  0.00    +0.018 C 
ATOM     40  F   UNL     1     -10.638  -9.310  -6.733  0.00  0.00    -0.206 F 
ATOM     41  F   UNL     1      -9.709 -11.215  -5.882  0.00  0.00    -0.206 F 
ENDBRANCH  31  34
ENDBRANCH  23  30
ENDBRANCH  22  23
ENDBRANCH   1  22
TORSDOF 10
