REMARK  Name = ZINC43417525
REMARK  6 active torsions:
REMARK  status: ('A' for Active; 'I' for Inactive)
REMARK    1  A    between atoms: C_1  and  C_2
REMARK    2  A    between atoms: C_2  and  C_4
REMARK    3  A    between atoms: C_2  and  N_13
REMARK    4  A    between atoms: N_16  and  C_17
REMARK    5  A    between atoms: C_20  and  S_23
REMARK    6  A    between atoms: S_23  and  C_26
REMARK                            x       y       z     vdW  Elec       q    Type
REMARK                         _______ _______ _______ _____ _____    ______ ____
ROOT
ATOM      1  N   UNL     1      -1.375  -0.506   0.012  0.00  0.00    -0.293 N 
ATOM      2  C   UNL     1      -2.028  -0.657   1.181  0.00  0.00    +0.304 C 
ATOM      3  O   UNL     1      -1.476  -0.374   2.227  0.00  0.00    -0.252 OA
ATOM      4  N   UNL     1      -3.293  -1.122   1.190  0.00  0.00    -0.269 N 
ATOM      5  H   UNL     1      -1.815  -0.731  -0.823  0.00  0.00    +0.151 HD
ATOM      6  H   UNL     1      -3.756  -1.284   0.354  0.00  0.00    +0.156 HD
ENDROOT
BRANCH   4   7
ATOM      7  C   UNL     1      -3.938  -1.370   2.407  0.00  0.00    +0.035 A 
ATOM      8  C   UNL     1      -4.820  -2.437   2.522  0.00  0.00    +0.025 A 
ATOM      9  C   UNL     1      -5.455  -2.680   3.724  0.00  0.00    +0.029 A 
ATOM     10  C   UNL     1      -5.212  -1.863   4.813  0.00  0.00    +0.088 A 
ATOM     11  C   UNL     1      -4.335  -0.800   4.702  0.00  0.00    +0.029 A 
ATOM     12  C   UNL     1      -3.693  -0.555   3.504  0.00  0.00    +0.025 A 
BRANCH  10  13
ATOM     13  S   UNL     1      -6.024  -2.176   6.346  0.00  0.00    -0.006 S 
ATOM     14  O   UNL     1      -6.069  -0.914   6.997  0.00  0.00    -0.170 OA
ATOM     15  O   UNL     1      -7.223  -2.851   5.989  0.00  0.00    -0.170 OA
ATOM     16  C   UNL     1      -4.916  -3.301   7.238  0.00  0.00    +0.200 C 
ENDBRANCH  10  13
ENDBRANCH   4   7
BRANCH   1  18
ATOM     17  C   UNL     1      -0.018   1.529   0.020  0.00  0.00    +0.033 C 
ATOM     18  C   UNL     1       0.001  -0.001   0.001  0.00  0.00    +0.102 C 
BRANCH  18  19
ATOM     19  C   UNL     1       0.702  -0.479  -1.244  0.00  0.00    -0.024 A 
ATOM     20  C   UNL     1       0.028  -0.500  -2.450  0.00  0.00    +0.009 A 
ATOM     21  C   UNL     1       0.667  -0.938  -3.595  0.00  0.00    +0.050 A 
ATOM     22  C   UNL     1       1.986  -1.357  -3.536  0.00  0.00    +0.166 A 
ATOM     23  C   UNL     1       2.666  -1.335  -2.320  0.00  0.00    +0.167 A 
ATOM     24  C   UNL     1       2.020  -0.890  -1.178  0.00  0.00    +0.055 A 
ATOM     25  O   UNL     1       3.937  -1.790  -2.522  0.00  0.00    -0.453 OA
ATOM     26  C   UNL     1       3.903  -2.474  -3.789  0.00  0.00    +0.466 C 
ATOM     27  O   UNL     1       2.832  -1.825  -4.500  0.00  0.00    -0.453 OA
ENDBRANCH  18  19
ENDBRANCH   1  18
TORSDOF 4
