REMARK  Name = ZINC27971716
REMARK  7 active torsions:
REMARK  status: ('A' for Active; 'I' for Inactive)
REMARK    1  A    between atoms: C_1  and  C_2
REMARK    2  A    between atoms: C_6  and  N_8
REMARK    3  A    between atoms: C_9  and  C_11
REMARK    4  A    between atoms: C_11  and  N_12
REMARK    5  A    between atoms: C_17  and  C_24
REMARK    6  A    between atoms: C_20  and  C_22
REMARK    7  A    between atoms: C_20  and  C_23
REMARK                            x       y       z     vdW  Elec       q    Type
REMARK                         _______ _______ _______ _____ _____    ______ ____
ROOT
ATOM      1  N   UNL     1      -1.850   0.169   5.216  0.00  0.00    -0.215 N 
ATOM      2  C   UNL     1      -1.956   0.717   3.986  0.00  0.00    +0.247 C 
ATOM      3  O   UNL     1      -2.880   0.565   3.215  0.00  0.00    -0.273 OA
ATOM      4  C   UNL     1      -0.692   1.516   3.781  0.00  0.00    +0.113 C 
ATOM      5  C   UNL     1       0.036   1.058   2.524  0.00  0.00    +0.038 C 
ATOM      6  C   UNL     1      -0.702   1.558   1.281  0.00  0.00    -0.011 C 
ATOM      7  C   UNL     1      -0.697   3.085   1.294  0.00  0.00    +0.009 C 
ATOM      8  C   UNL     1      -1.439   3.621   2.513  0.00  0.00    -0.032 C 
ATOM      9  C   UNL     1      -0.949   3.008   3.813  0.00  0.00    +0.041 C 
ATOM     10  C   UNL     1      -2.946   3.408   2.347  0.00  0.00    +0.011 C 
ATOM     11  C   UNL     1      -1.193   5.144   2.582  0.00  0.00    +0.011 C 
ATOM     12  C   UNL     1       0.023   1.059   0.027  0.00  0.00    +0.007 C 
ATOM     13  N   UNL     1       0.131   1.154   4.958  0.00  0.00    -0.285 N 
ATOM     14  C   UNL     1      -0.653   0.413   5.760  0.00  0.00    +0.310 C 
ATOM     15  O   UNL     1      -0.313   0.010   6.855  0.00  0.00    -0.252 OA
ATOM     16  H   UNL     1       1.173   1.499   5.028  0.00  0.00    +0.151 HD
ENDROOT
BRANCH   1  17
ATOM     17  C   UNL     1      -2.913  -0.597   5.870  0.00  0.00    +0.214 C 
BRANCH  17  19
ATOM     18  N   UNL     1      -4.834  -0.150   7.364  0.00  0.00    -0.282 N 
ATOM     19  C   UNL     1      -3.784   0.336   6.672  0.00  0.00    +0.235 C 
ATOM     20  O   UNL     1      -3.540   1.524   6.696  0.00  0.00    -0.274 OA
ATOM     21  H   UNL     1      -5.110  -1.211   7.271  0.00  0.00    +0.155 HD
BRANCH  18  27
ATOM     22  C   UNL     1      -5.079   3.907  10.131  0.00  0.00    +0.044 C 
ATOM     23  C   UNL     1      -5.717   2.669   9.556  0.00  0.00    -0.049 A 
ATOM     24  C   UNL     1      -7.033   2.368   9.855  0.00  0.00    +0.006 A 
ATOM     25  C   UNL     1      -7.622   1.233   9.329  0.00  0.00    +0.040 A 
ATOM     26  C   UNL     1      -6.898   0.398   8.498  0.00  0.00    +0.144 A 
ATOM     27  C   UNL     1      -5.573   0.696   8.201  0.00  0.00    +0.069 A 
ATOM     28  C   UNL     1      -4.986   1.836   8.731  0.00  0.00    +0.029 A 
ATOM     29  F   UNL     1      -7.475  -0.708   7.979  0.00  0.00    -0.204 F 
ENDBRANCH  18  27
ENDBRANCH  17  19
ENDBRANCH   1  17
TORSDOF 3
