REMARK  Name = ZINC39121742
REMARK  3 active torsions:
REMARK  status: ('A' for Active; 'I' for Inactive)
REMARK    1  A    between atoms: C_10  and  N_12
REMARK    2  A    between atoms: N_12  and  S_13
REMARK    3  A    between atoms: S_13  and  N_16
REMARK                            x       y       z     vdW  Elec       q    Type
REMARK                         _______ _______ _______ _____ _____    ______ ____
ROOT
ATOM      1  C   UNL     1      -0.206   0.666  -0.225  0.00  0.00    +0.000 A 
ATOM      2  C   UNL     1       0.863   1.542  -0.197  0.00  0.00    +0.000 A 
ATOM      3  C   UNL     1       2.150   1.050  -0.141  0.00  0.00    +0.005 A 
ATOM      4  C   UNL     1       2.382  -0.319  -0.115  0.00  0.00    -0.026 A 
ATOM      5  C   UNL     1       1.317  -1.192  -0.147  0.00  0.00    -0.043 A 
ATOM      6  C   UNL     1       0.021  -0.694  -0.199  0.00  0.00    +0.004 A 
ATOM      7  C   UNL     1       1.494  -2.687  -0.138  0.00  0.00    +0.035 C 
ATOM      8  C   UNL     1       2.894  -3.060   0.348  0.00  0.00    +0.007 C 
ATOM      9  C   UNL     1       3.917  -2.254  -0.461  0.00  0.00    +0.025 C 
ATOM     10  C   UNL     1       3.812  -0.788  -0.047  0.00  0.00    +0.108 C 
ENDROOT
BRANCH  10  11
ATOM     11  N   UNL     1       4.631   0.029  -0.946  0.00  0.00    -0.173 NA
ATOM     12  H   UNL     1       4.386   0.115  -1.881  0.00  0.00    +0.150 HD
BRANCH  11  13
ATOM     13  S   UNL     1       5.975   0.804  -0.367  0.00  0.00    +0.093 S 
ATOM     14  O   UNL     1       6.576   1.457  -1.477  0.00  0.00    -0.142 OA
ATOM     15  O   UNL     1       5.568   1.505   0.800  0.00  0.00    -0.142 OA
BRANCH  13  16
ATOM     16  N   UNL     1       7.039  -0.364   0.128  0.00  0.00    -0.193 NA
ATOM     17  H   UNL     1       7.994  -0.198   0.088  0.00  0.00    +0.145 HD
ATOM     18  H   UNL     1       6.707  -1.213   0.459  0.00  0.00    +0.145 HD
ENDBRANCH  13  16
ENDBRANCH  11  13
ENDBRANCH  10  11
TORSDOF 3
