REMARK  Name = ZINC14270163
REMARK  11 active torsions:
REMARK  status: ('A' for Active; 'I' for Inactive)
REMARK    1  A    between atoms: C_1  and  C_2
REMARK    2  A    between atoms: C_9  and  C_11
REMARK    3  A    between atoms: C_14  and  N_18
REMARK    4  A    between atoms: C_16  and  O_17
REMARK    5  A    between atoms: N_18  and  C_19
REMARK    6  A    between atoms: C_19  and  N_21
REMARK    7  A    between atoms: C_22  and  C_24
REMARK    8  A    between atoms: C_25  and  C_26
REMARK    9  A    between atoms: C_29  and  C_32
REMARK   10  A    between atoms: C_32  and  C_33
REMARK   11  A    between atoms: C_32  and  C_34
REMARK                            x       y       z     vdW  Elec       q    Type
REMARK                         _______ _______ _______ _____ _____    ______ ____
ROOT
ATOM      1  N   UNL     1       2.397   1.102  -0.014  0.00  0.00    -0.296 N 
ATOM      2  H   UNL     1       2.411   0.136   0.062  0.00  0.00    +0.154 HD
ENDROOT
BRANCH   1   6
ATOM      3  C   UNL     1      -1.243   3.138   0.001  0.00  0.00    +0.078 A 
ATOM      4  C   UNL     1      -1.026   2.080   0.888  0.00  0.00    +0.018 A 
ATOM      5  C   UNL     1       0.177   1.411   0.879  0.00  0.00    +0.024 A 
ATOM      6  C   UNL     1       1.180   1.785  -0.011  0.00  0.00    +0.036 A 
ATOM      7  C   UNL     1       0.973   2.836  -0.896  0.00  0.00    +0.069 A 
ATOM      8  C   UNL     1      -0.231   3.518  -0.891  0.00  0.00    +0.131 A 
BRANCH   3  17
ATOM      9  C   UNL     1      -8.038   5.823   1.087  0.00  0.00    +0.044 C 
ATOM     10  C   UNL     1      -6.650   5.624   0.535  0.00  0.00    -0.047 A 
ATOM     11  C   UNL     1      -6.191   6.444  -0.486  0.00  0.00    +0.005 A 
ATOM     12  C   UNL     1      -4.926   6.274  -1.002  0.00  0.00    +0.032 A 
ATOM     13  C   UNL     1      -4.099   5.269  -0.492  0.00  0.00    +0.110 A 
ATOM     14  C   UNL     1      -4.568   4.442   0.542  0.00  0.00    +0.156 A 
ATOM     15  C   UNL     1      -5.845   4.628   1.048  0.00  0.00    +0.052 A 
ATOM     16  O   UNL     1      -3.566   3.579   0.824  0.00  0.00    -0.435 OA
ATOM     17  C   UNL     1      -2.531   3.857   0.008  0.00  0.00    +0.232 A 
ATOM     18  N   UNL     1      -2.835   4.863  -0.775  0.00  0.00    -0.209 NA
ENDBRANCH   3  17
BRANCH   8  19
ATOM     19  O   UNL     1      -0.432   4.549  -1.751  0.00  0.00    -0.506 OA
ATOM     20  H   UNL     1      -0.812   4.284  -2.600  0.00  0.00    +0.292 HD
ENDBRANCH   8  19
ENDBRANCH   1   6
BRANCH   1  21
ATOM     21  C   UNL     1       3.553   1.786  -0.123  0.00  0.00    +0.141 C 
ATOM     22  S   UNL     1       3.539   3.498  -0.115  0.00  0.00    -0.018 S 
BRANCH  21  23
ATOM     23  N   UNL     1       4.721   1.123  -0.239  0.00  0.00    -0.264 N 
ATOM     24  C   UNL     1       5.877   1.806  -0.348  0.00  0.00    +0.242 C 
ATOM     25  O   UNL     1       5.867   3.023  -0.342  0.00  0.00    -0.270 OA
ATOM     26  H   UNL     1       4.729   0.153  -0.244  0.00  0.00    +0.157 HD
BRANCH  24  27
ATOM     27  C   UNL     1       7.144   1.086  -0.474  0.00  0.00    +0.068 C 
ATOM     28  C   UNL     1       8.301   1.770  -0.583  0.00  0.00    +0.013 C 
BRANCH  28  29
ATOM     29  C   UNL     1       9.576   1.046  -0.710  0.00  0.00    -0.025 A 
ATOM     30  C   UNL     1       9.592  -0.353  -0.711  0.00  0.00    +0.008 A 
ATOM     31  C   UNL     1      10.790  -1.025  -0.834  0.00  0.00    +0.004 A 
ATOM     32  C   UNL     1      11.975  -0.319  -0.946  0.00  0.00    -0.045 A 
ATOM     33  C   UNL     1      11.968   1.065  -0.941  0.00  0.00    +0.004 A 
ATOM     34  C   UNL     1      10.778   1.752  -0.823  0.00  0.00    +0.008 A 
BRANCH  32  35
ATOM     35  C   UNL     1      13.280  -1.061  -1.075  0.00  0.00    +0.013 C 
ATOM     36  C   UNL     1      13.488  -1.944   0.157  0.00  0.00    +0.012 C 
ATOM     37  C   UNL     1      13.248  -1.935  -2.330  0.00  0.00    +0.012 C 
ENDBRANCH  32  35
ENDBRANCH  28  29
ENDBRANCH  24  27
ENDBRANCH  21  23
ENDBRANCH   1  21
TORSDOF 8
