REMARK  Name = ZINC10811746
REMARK  6 active torsions:
REMARK  status: ('A' for Active; 'I' for Inactive)
REMARK    1  A    between atoms: C_1  and  C_2
REMARK    2  A    between atoms: C_9  and  N_14
REMARK    3  A    between atoms: C_10  and  C_11
REMARK    4  A    between atoms: C_15  and  C_17
REMARK    5  A    between atoms: N_23  and  S_24
REMARK    6  A    between atoms: S_24  and  C_27
REMARK                            x       y       z     vdW  Elec       q    Type
REMARK                         _______ _______ _______ _____ _____    ______ ____
ROOT
ATOM      1  N   UNL     1      -0.867  -4.240  -0.410  0.00  0.00    -0.278 N 
ATOM      2  C   UNL     1      -2.190  -4.311  -0.656  0.00  0.00    +0.236 C 
ATOM      3  O   UNL     1      -2.852  -3.297  -0.714  0.00  0.00    -0.274 OA
ATOM      4  H   UNL     1      -0.338  -5.051  -0.364  0.00  0.00    +0.155 HD
ENDROOT
BRANCH   1  12
ATOM      5  C   UNL     1       2.171   2.910   0.507  0.00  0.00    +0.008 C 
ATOM      6  C   UNL     1       2.012   1.445   0.092  0.00  0.00    -0.009 C 
ATOM      7  C   UNL     1       2.824   0.554   1.037  0.00  0.00    +0.008 C 
ATOM      8  C   UNL     1       2.873  -0.874   0.490  0.00  0.00    +0.037 C 
ATOM      9  C   UNL     1       1.451  -1.337   0.199  0.00  0.00    -0.023 A 
ATOM     10  C   UNL     1       0.443  -0.448   0.071  0.00  0.00    -0.004 A 
ATOM     11  S   UNL     1      -0.991  -1.434  -0.254  0.00  0.00    -0.077 S 
ATOM     12  C   UNL     1      -0.263  -3.006  -0.221  0.00  0.00    +0.084 A 
ATOM     13  C   UNL     1       1.072  -2.731   0.041  0.00  0.00    +0.068 A 
ATOM     14  C   UNL     1       0.533   1.043   0.181  0.00  0.00    +0.046 C 
BRANCH  13  15
ATOM     15  C   UNL     1       2.062  -3.806   0.154  0.00  0.00    +0.244 C 
ATOM     16  O   UNL     1       2.283  -4.318   1.235  0.00  0.00    -0.270 OA
ATOM     17  N   UNL     1       2.727  -4.227  -0.940  0.00  0.00    -0.325 N 
ATOM     18  H   UNL     1       2.551  -3.819  -1.802  0.00  0.00    +0.145 HD
ATOM     19  H   UNL     1       3.382  -4.939  -0.865  0.00  0.00    +0.145 HD
ENDBRANCH  13  15
ENDBRANCH   1  12
BRANCH   2  20
ATOM     20  C   UNL     1      -2.847  -5.652  -0.861  0.00  0.00    +0.166 C 
ATOM     21  C   UNL     1      -3.889  -5.887   0.237  0.00  0.00    +0.030 C 
ATOM     22  C   UNL     1      -4.648  -7.183  -0.054  0.00  0.00    +0.003 C 
ATOM     23  C   UNL     1      -5.378  -7.059  -1.394  0.00  0.00    +0.017 C 
ATOM     24  C   UNL     1      -4.353  -6.838  -2.511  0.00  0.00    +0.110 C 
ATOM     25  N   UNL     1      -3.519  -5.677  -2.168  0.00  0.00    -0.164 NA
BRANCH  25  26
ATOM     26  S   UNL     1      -3.343  -4.420  -3.231  0.00  0.00    +0.068 S 
ATOM     27  O   UNL     1      -2.128  -3.766  -2.890  0.00  0.00    -0.152 OA
ATOM     28  O   UNL     1      -3.586  -4.948  -4.528  0.00  0.00    -0.152 OA
BRANCH  26  29
ATOM     29  C   UNL     1      -4.641  -3.275  -2.903  0.00  0.00    +0.144 A 
ATOM     30  C   UNL     1      -4.609  -2.137  -2.167  0.00  0.00    +0.038 A 
ATOM     31  C   UNL     1      -5.761  -1.382  -2.048  0.00  0.00    +0.030 A 
ATOM     32  C   UNL     1      -6.893  -1.809  -2.663  0.00  0.00    +0.080 A 
ATOM     33  S   UNL     1      -6.341  -3.316  -3.447  0.00  0.00    -0.057 S 
ATOM     34 CL   UNL     1      -8.468  -1.080  -2.683  0.00  0.00    -0.076 Cl
ENDBRANCH  26  29
ENDBRANCH  25  26
ENDBRANCH   2  20
TORSDOF 5
