REMARK  Name = ZINC04024617
REMARK  12 active torsions:
REMARK  status: ('A' for Active; 'I' for Inactive)
REMARK    1  A    between atoms: C_1  and  C_2
REMARK    2  A    between atoms: N_4  and  C_5
REMARK    3  A    between atoms: C_11  and  O_30
REMARK    4  A    between atoms: C_12  and  O_28
REMARK    5  A    between atoms: C_13  and  O_26
REMARK    6  A    between atoms: C_20  and  N_23
REMARK    7  A    between atoms: N_23  and  C_24
REMARK    8  A    between atoms: C_24  and  C_25
REMARK    9  A    between atoms: C_25  and  N_60
REMARK   10  A    between atoms: O_26  and  C_27
REMARK   11  A    between atoms: O_28  and  C_29
REMARK   12  A    between atoms: O_30  and  C_31
REMARK                            x       y       z     vdW  Elec       q    Type
REMARK                         _______ _______ _______ _____ _____    ______ ____
ROOT
ATOM      1  C   UNL     1       1.322  -0.762  -0.190  0.00  0.00    +0.104 C 
ATOM      2  C   UNL     1       1.092  -2.089   0.504  0.00  0.00    +0.032 C 
ATOM      3  C   UNL     1       2.282  -3.025   0.307  0.00  0.00    +0.038 C 
ATOM      4  C   UNL     1       3.566  -2.263   0.516  0.00  0.00    -0.032 A 
ATOM      5  C   UNL     1       4.280  -2.418   1.686  0.00  0.00    +0.054 A 
ATOM      6  C   UNL     1       5.469  -1.723   1.871  0.00  0.00    +0.165 A 
ATOM      7  C   UNL     1       5.946  -0.870   0.881  0.00  0.00    +0.204 A 
ATOM      8  C   UNL     1       5.229  -0.707  -0.297  0.00  0.00    +0.173 A 
ATOM      9  C   UNL     1       4.031  -1.405  -0.474  0.00  0.00    +0.031 A 
ATOM     10  C   UNL     1       3.241  -1.213  -1.728  0.00  0.00    -0.009 A 
ATOM     11  C   UNL     1       1.880  -0.946  -1.587  0.00  0.00    -0.016 A 
ATOM     12  C   UNL     1       1.000  -0.840  -2.599  0.00  0.00    +0.058 A 
ATOM     13  C   UNL     1       1.131  -0.914  -3.956  0.00  0.00    +0.200 A 
ATOM     14  O   UNL     1       0.090  -0.846  -4.596  0.00  0.00    -0.286 OA
ATOM     15  C   UNL     1       2.295  -1.057  -4.707  0.00  0.00    +0.074 A 
ATOM     16  C   UNL     1       3.547  -1.231  -4.198  0.00  0.00    +0.027 A 
ATOM     17  C   UNL     1       3.929  -1.309  -2.911  0.00  0.00    +0.011 A 
ENDROOT
BRANCH   1  21
ATOM     18  C   UNL     1      -1.269   2.043  -0.466  0.00  0.00    +0.109 C 
ATOM     19  C   UNL     1       0.040   1.303  -0.371  0.00  0.00    +0.210 C 
ATOM     20  O   UNL     1       1.086   1.917  -0.385  0.00  0.00    -0.276 OA
ATOM     21  N   UNL     1       0.049  -0.041  -0.276  0.00  0.00    -0.309 N 
ATOM     22  H   UNL     1      -0.788  -0.532  -0.265  0.00  0.00    +0.149 HD
ENDBRANCH   1  21
BRANCH  15  23
ATOM     23  N   UNL     1       2.170  -1.021  -6.086  0.00  0.00    -0.343 N 
ATOM     24  H   UNL     1       1.297  -0.899  -6.490  0.00  0.00    +0.146 HD
BRANCH  23  25
ATOM     25  C   UNL     1       3.356  -1.166  -6.933  0.00  0.00    +0.082 C 
BRANCH  25  26
ATOM     26  C   UNL     1       2.944  -1.090  -8.405  0.00  0.00    -0.068 C 
BRANCH  26  29
ATOM     27  H   UNL     1       4.624  -2.092  -9.046  0.00  0.00    -0.090 HD
ATOM     28  H   UNL     1       3.887  -1.189 -10.232  0.00  0.00    -0.090 HD
ATOM     29  N   UNL     1       4.146  -1.215  -9.247  0.00  0.00    +0.379 N 
ATOM     30  H   UNL     1       4.781  -0.434  -9.047  0.00  0.00    -0.090 HD
ENDBRANCH  26  29
ENDBRANCH  25  26
ENDBRANCH  23  25
ENDBRANCH  15  23
BRANCH   8  31
ATOM     31  O   UNL     1       5.687   0.126  -1.268  0.00  0.00    -0.491 OA
ATOM     32  C   UNL     1       5.360   1.511  -1.144  0.00  0.00    +0.277 C 
ENDBRANCH   8  31
BRANCH   7  33
ATOM     33  O   UNL     1       7.113  -0.195   1.068  0.00  0.00    -0.488 OA
ATOM     34  C   UNL     1       8.312  -0.844   0.641  0.00  0.00    +0.277 C 
ENDBRANCH   7  33
BRANCH   6  35
ATOM     35  O   UNL     1       6.170  -1.878   3.025  0.00  0.00    -0.491 OA
ATOM     36  C   UNL     1       5.625  -2.769   4.001  0.00  0.00    +0.277 C 
ENDBRANCH   6  35
TORSDOF 8
