REMARK  Name = ZINC66248825
REMARK  4 active torsions:
REMARK  status: ('A' for Active; 'I' for Inactive)
REMARK    1  A    between atoms: C_6  and  S_7
REMARK    2  A    between atoms: S_7  and  N_10
REMARK    3  A    between atoms: N_10  and  C_11
REMARK    4  A    between atoms: N_15  and  C_16
REMARK                            x       y       z     vdW  Elec       q    Type
REMARK                         _______ _______ _______ _____ _____    ______ ____
ROOT
ATOM      1  S   UNL     1      -1.466  -0.839  -0.010  0.00  0.00    +0.073 S 
ATOM      2  O   UNL     1      -1.185  -2.143   0.481  0.00  0.00    -0.150 OA
ATOM      3  O   UNL     1      -2.371   0.042   0.641  0.00  0.00    -0.150 OA
ENDROOT
BRANCH   1   9
ATOM      4  C   UNL     1       0.104   1.385  -0.197  0.00  0.00    +0.030 A 
ATOM      5  C   UNL     1       1.312   2.051  -0.273  0.00  0.00    +0.025 A 
ATOM      6  C   UNL     1       2.500   1.333  -0.259  0.00  0.00    +0.037 A 
ATOM      7  C   UNL     1       2.469  -0.053  -0.168  0.00  0.00    -0.024 A 
ATOM      8  C   UNL     1       1.259  -0.713  -0.093  0.00  0.00    +0.034 A 
ATOM      9  C   UNL     1       0.077   0.006  -0.107  0.00  0.00    +0.109 A 
ATOM     10  C   UNL     1       3.759  -0.832  -0.152  0.00  0.00    +0.046 C 
ATOM     11  C   UNL     1       4.792  -0.127  -1.032  0.00  0.00    +0.101 C 
ATOM     12  C   UNL     1       4.842   1.338  -0.691  0.00  0.00    +0.218 C 
ATOM     13  O   UNL     1       5.901   1.928  -0.738  0.00  0.00    -0.275 OA
ATOM     14  N   UNL     1       3.726   2.000  -0.335  0.00  0.00    -0.285 N 
ATOM     15  H   UNL     1       3.773   2.947  -0.130  0.00  0.00    +0.155 HD
ENDBRANCH   1   9
BRANCH   1  16
ATOM     16  N   UNL     1      -2.020  -1.027  -1.560  0.00  0.00    -0.200 N 
ATOM     17  H   UNL     1      -2.828  -0.572  -1.844  0.00  0.00    +0.175 HD
BRANCH  16  18
ATOM     18  C   UNL     1      -1.325  -1.837  -2.453  0.00  0.00    +0.136 A 
ATOM     19  C   UNL     1      -0.282  -2.658  -2.151  0.00  0.00    +0.066 A 
ATOM     20  C   UNL     1       0.121  -3.290  -3.332  0.00  0.00    +0.136 A 
ATOM     21  N   UNL     1      -0.645  -2.869  -4.305  0.00  0.00    -0.178 NA
ATOM     22  N   UNL     1      -1.569  -1.957  -3.779  0.00  0.00    -0.246 N 
BRANCH  22  23
ATOM     23  C   UNL     1      -2.611  -1.254  -4.530  0.00  0.00    +0.109 C 
ATOM     24  C   UNL     1      -3.531  -2.272  -5.236  0.00  0.00    +0.027 C 
ATOM     25  C   UNL     1      -3.867  -1.605  -6.593  0.00  0.00    +0.002 C 
ATOM     26  C   UNL     1      -2.530  -0.922  -6.977  0.00  0.00    +0.002 C 
ATOM     27  C   UNL     1      -1.975  -0.396  -5.638  0.00  0.00    +0.027 C 
ENDBRANCH  22  23
ENDBRANCH  16  18
ENDBRANCH   1  16
TORSDOF 4
