REMARK  Name = ZINC61477367
REMARK  7 active torsions:
REMARK  status: ('A' for Active; 'I' for Inactive)
REMARK    1  A    between atoms: C_1  and  C_2
REMARK    2  A    between atoms: C_2  and  S_3
REMARK    3  A    between atoms: S_3  and  N_6
REMARK    4  A    between atoms: C_9  and  C_12
REMARK    5  A    between atoms: N_14  and  N_15
REMARK    6  A    between atoms: C_16  and  C_18
REMARK    7  A    between atoms: C_23  and  O_24
REMARK                            x       y       z     vdW  Elec       q    Type
REMARK                         _______ _______ _______ _____ _____    ______ ____
ROOT
ATOM      1  C   UNL     1       1.804  -6.001  -3.056  0.00  0.00    +0.232 C 
ATOM      2  O   UNL     1       2.991  -6.057  -3.299  0.00  0.00    -0.274 OA
ATOM      3  N   UNL     1       0.961  -6.900  -3.603  0.00  0.00    -0.234 N 
ATOM      4  H   UNL     1       0.012  -6.855  -3.408  0.00  0.00    +0.173 HD
ENDROOT
BRANCH   1   8
ATOM      5  N   UNL     1       0.808  -2.241  -1.384  0.00  0.00    -0.181 NA
ATOM      6  C   UNL     1       1.887  -2.976  -0.709  0.00  0.00    +0.110 C 
ATOM      7  C   UNL     1       2.427  -4.046  -1.664  0.00  0.00    +0.030 C 
ATOM      8  C   UNL     1       1.271  -4.926  -2.144  0.00  0.00    +0.079 C 
ATOM      9  C   UNL     1       0.256  -4.069  -2.903  0.00  0.00    +0.030 C 
ATOM     10  C   UNL     1      -0.311  -2.999  -1.958  0.00  0.00    +0.110 C 
BRANCH   5  11
ATOM     11  S   UNL     1       0.851  -0.589  -1.490  0.00  0.00    +0.032 S 
ATOM     12  O   UNL     1       0.082  -0.280  -2.644  0.00  0.00    -0.158 OA
ATOM     13  O   UNL     1       2.232  -0.257  -1.430  0.00  0.00    -0.158 OA
BRANCH  11  15
ATOM     14  C   UNL     1      -0.019   1.526   0.010  0.00  0.00    +0.029 C 
ATOM     15  C   UNL     1       0.002  -0.004   0.002  0.00  0.00    +0.182 C 
ENDBRANCH  11  15
ENDBRANCH   5  11
ENDBRANCH   1   8
BRANCH   3  16
ATOM     16  N   UNL     1       1.456  -7.899  -4.451  0.00  0.00    -0.230 N 
ATOM     17  C   UNL     1       0.614  -8.797  -4.997  0.00  0.00    +0.264 C 
ATOM     18  O   UNL     1      -0.576  -8.741  -4.754  0.00  0.00    -0.269 OA
ATOM     19  H   UNL     1       2.406  -7.943  -4.645  0.00  0.00    +0.173 HD
BRANCH  17  20
ATOM     20  C   UNL     1       1.135  -9.849  -5.891  0.00  0.00    +0.079 A 
ATOM     21  C   UNL     1       2.502  -9.921  -6.168  0.00  0.00    +0.017 A 
ATOM     22  C   UNL     1       2.983 -10.906  -7.003  0.00  0.00    +0.001 A 
ATOM     23  C   UNL     1       2.116 -11.827  -7.570  0.00  0.00    +0.004 A 
ATOM     24  C   UNL     1       0.763 -11.767  -7.304  0.00  0.00    +0.046 A 
ATOM     25  C   UNL     1       0.263 -10.786  -6.461  0.00  0.00    +0.129 A 
BRANCH  25  26
ATOM     26  O   UNL     1      -1.066 -10.730  -6.194  0.00  0.00    -0.506 OA
ATOM     27  H   UNL     1      -1.569 -10.181  -6.811  0.00  0.00    +0.292 HD
ENDBRANCH  25  26
ENDBRANCH  17  20
ENDBRANCH   3  16
TORSDOF 6
