REMARK  Name = ZINC42433936
REMARK  8 active torsions:
REMARK  status: ('A' for Active; 'I' for Inactive)
REMARK    1  A    between atoms: C_1  and  C_2
REMARK    2  A    between atoms: C_2  and  C_3
REMARK    3  A    between atoms: C_2  and  O_4
REMARK    4  A    between atoms: O_4  and  C_5
REMARK    5  A    between atoms: C_6  and  N_19
REMARK    6  A    between atoms: C_9  and  N_11
REMARK    7  A    between atoms: C_15  and  C_17
REMARK    8  A    between atoms: C_17  and  O_18
REMARK                            x       y       z     vdW  Elec       q    Type
REMARK                         _______ _______ _______ _____ _____    ______ ____
ROOT
ATOM      1  C   UNL     1       2.013  -0.653  -1.086  0.00  0.00    +0.238 A 
ATOM      2  C   UNL     1       2.722  -1.095  -2.201  0.00  0.00    +0.087 A 
ATOM      3  C   UNL     1       4.095  -1.284  -2.099  0.00  0.00    +0.031 A 
ATOM      4  C   UNL     1       4.710  -1.022  -0.884  0.00  0.00    +0.046 A 
ATOM      5  C   UNL     1       3.942  -0.583   0.185  0.00  0.00    +0.126 A 
ATOM      6  N   UNL     1       2.635  -0.408   0.055  0.00  0.00    -0.196 NA
ENDROOT
BRANCH   5   7
ATOM      7  N   UNL     1       4.553  -0.318   1.409  0.00  0.00    -0.310 N 
ATOM      8  C   UNL     1       3.857   0.045   2.657  0.00  0.00    +0.107 C 
ATOM      9  C   UNL     1       4.828  -0.372   3.789  0.00  0.00    +0.021 C 
ATOM     10  C   UNL     1       6.204  -0.023   3.163  0.00  0.00    +0.026 C 
ATOM     11  C   UNL     1       5.999  -0.361   1.672  0.00  0.00    +0.100 C 
BRANCH  11  12
ATOM     12  C   UNL     1       6.716   0.674   0.803  0.00  0.00    +0.178 C 
BRANCH  12  13
ATOM     13  O   UNL     1       6.305   1.987   1.189  0.00  0.00    -0.393 OA
ATOM     14  H   UNL     1       6.721   2.696   0.679  0.00  0.00    +0.209 HD
ENDBRANCH  12  13
ENDBRANCH  11  12
ENDBRANCH   5   7
BRANCH   2  15
ATOM     15  N   UNL     1       2.058  -1.349  -3.410  0.00  0.00    -0.354 N 
ATOM     16  H   UNL     1       1.099  -1.216  -3.475  0.00  0.00    +0.142 HD
ATOM     17  H   UNL     1       2.557  -1.657  -4.183  0.00  0.00    +0.142 HD
ENDBRANCH   2  15
BRANCH   1  18
ATOM     18  O   UNL     1       0.671  -0.465  -1.174  0.00  0.00    -0.472 OA
BRANCH  18  20
ATOM     19  C   UNL     1      -0.019   1.526   0.010  0.00  0.00    +0.051 C 
ATOM     20  C   UNL     1       0.002  -0.004   0.002  0.00  0.00    +0.169 C 
ATOM     21  C   UNL     1      -1.433  -0.534   0.013  0.00  0.00    +0.051 C 
ENDBRANCH  18  20
ENDBRANCH   1  18
TORSDOF 6
