REMARK  Name = ZINC45266822
REMARK  9 active torsions:
REMARK  status: ('A' for Active; 'I' for Inactive)
REMARK    1  A    between atoms: C_1  and  C_2
REMARK    2  A    between atoms: N_8  and  S_9
REMARK    3  A    between atoms: S_9  and  C_12
REMARK    4  A    between atoms: C_15  and  C_18
REMARK    5  A    between atoms: C_18  and  O_20
REMARK    6  A    between atoms: O_20  and  C_21
REMARK    7  A    between atoms: C_21  and  C_23
REMARK    8  A    between atoms: C_21  and  C_24
REMARK    9  A    between atoms: N_29  and  C_30
REMARK                            x       y       z     vdW  Elec       q    Type
REMARK                         _______ _______ _______ _____ _____    ______ ____
ROOT
ATOM      1  C   UNL     1      -2.692   1.354   6.786  0.00  0.00    +0.340 C 
ATOM      2  O   UNL     1      -3.574   2.182   6.670  0.00  0.00    -0.245 OA
ENDROOT
BRANCH   1   6
ATOM      3  C   UNL     1       0.122   0.795   3.656  0.00  0.00    +0.106 A 
ATOM      4  C   UNL     1      -0.880   1.739   3.520  0.00  0.00    +0.029 A 
ATOM      5  C   UNL     1      -1.798   1.926   4.533  0.00  0.00    +0.017 A 
ATOM      6  C   UNL     1      -1.714   1.159   5.697  0.00  0.00    +0.059 A 
ATOM      7  C   UNL     1      -0.699   0.209   5.827  0.00  0.00    +0.017 A 
ATOM      8  C   UNL     1       0.209   0.029   4.804  0.00  0.00    +0.029 A 
BRANCH   3   9
ATOM      9  S   UNL     1       1.290   0.564   2.357  0.00  0.00    +0.061 S 
ATOM     10  O   UNL     1       2.381  -0.156   2.915  0.00  0.00    -0.153 OA
ATOM     11  O   UNL     1       1.454   1.827   1.728  0.00  0.00    -0.153 OA
BRANCH   9  18
ATOM     12  C   UNL     1       1.418  -2.247   2.663  0.00  0.00    +0.026 C 
ATOM     13  C   UNL     1       0.577  -1.890   1.436  0.00  0.00    +0.077 C 
ATOM     14  C   UNL     1       1.168  -2.564   0.194  0.00  0.00    +0.020 C 
ATOM     15  C   UNL     1       0.408  -2.093  -1.048  0.00  0.00    +0.003 C 
ATOM     16  C   UNL     1       0.564  -0.578  -1.199  0.00  0.00    +0.017 C 
ATOM     17  C   UNL     1      -0.035   0.118   0.027  0.00  0.00    +0.110 C 
ATOM     18  N   UNL     1       0.587  -0.434   1.238  0.00  0.00    -0.174 NA
ENDBRANCH   9  18
ENDBRANCH   3   9
ENDBRANCH   1   6
BRANCH   1  19
ATOM     19  O   UNL     1      -2.608   0.613   7.908  0.00  0.00    -0.449 OA
BRANCH  19  20
ATOM     20  C   UNL     1      -3.588   0.854   8.920  0.00  0.00    +0.259 C 
ATOM     21  C   UNL     1      -4.795  -0.056   8.688  0.00  0.00    +0.062 C 
BRANCH  20  22
ATOM     22  C   UNL     1      -2.993   0.564  10.274  0.00  0.00    +0.261 C 
ATOM     23  O   UNL     1      -1.844   0.188  10.364  0.00  0.00    -0.271 OA
ATOM     24  N   UNL     1      -3.739   0.723  11.386  0.00  0.00    -0.237 N 
ATOM     25  C   UNL     1      -3.207   0.464  12.597  0.00  0.00    +0.306 C 
ATOM     26  O   UNL     1      -2.055   0.087  12.686  0.00  0.00    -0.252 OA
ATOM     27  N   UNL     1      -3.953   0.622  13.708  0.00  0.00    -0.296 N 
ATOM     28  H   UNL     1      -4.658   1.024  11.314  0.00  0.00    +0.159 HD
ATOM     29  H   UNL     1      -4.872   0.923  13.636  0.00  0.00    +0.151 HD
BRANCH  27  30
ATOM     30  C   UNL     1      -3.375   0.341  15.024  0.00  0.00    +0.074 C 
ATOM     31  C   UNL     1      -2.626   1.576  15.527  0.00  0.00    +0.022 C 
ATOM     32  C   UNL     1      -2.022   1.282  16.902  0.00  0.00    +0.002 C 
ATOM     33  C   UNL     1      -3.140   0.927  17.885  0.00  0.00    +0.000 C 
ATOM     34  C   UNL     1      -3.889  -0.308  17.382  0.00  0.00    +0.002 C 
ATOM     35  C   UNL     1      -4.492  -0.014  16.007  0.00  0.00    +0.022 C 
ENDBRANCH  27  30
ENDBRANCH  20  22
ENDBRANCH  19  20
ENDBRANCH   1  19
TORSDOF 7
