REMARK  Name = ZINC63642951
REMARK  9 active torsions:
REMARK  status: ('A' for Active; 'I' for Inactive)
REMARK    1  A    between atoms: C_1  and  C_2
REMARK    2  A    between atoms: C_2  and  O_3
REMARK    3  A    between atoms: O_3  and  C_4
REMARK    4  A    between atoms: C_4  and  C_6
REMARK    5  A    between atoms: C_18  and  N_20
REMARK    6  A    between atoms: C_21  and  C_23
REMARK    7  A    between atoms: C_23  and  C_25
REMARK    8  A    between atoms: C_23  and  S_26
REMARK    9  A    between atoms: S_26  and  C_27
REMARK                            x       y       z     vdW  Elec       q    Type
REMARK                         _______ _______ _______ _____ _____    ______ ____
ROOT
ATOM      1  N   UNL     1       1.590  -0.662  -4.369  0.00  0.00    -0.302 N 
ATOM      2  C   UNL     1       1.598  -0.583  -5.715  0.00  0.00    +0.227 C 
ATOM      3  O   UNL     1       0.813  -1.240  -6.365  0.00  0.00    -0.275 OA
ATOM      4  H   UNL     1       2.218  -0.136  -3.849  0.00  0.00    +0.150 HD
ENDROOT
BRANCH   1  14
ATOM      5  C   UNL     1       1.322  -2.353  -2.574  0.00  0.00    +0.132 C 
ATOM      6  C   UNL     1       0.849  -3.799  -2.478  0.00  0.00    +0.018 C 
ATOM      7  C   UNL     1       2.025  -4.737  -2.691  0.00  0.00    +0.005 C 
ATOM      8  C   UNL     1       1.865  -6.036  -1.950  0.00  0.00    +0.000 C 
ATOM      9  C   UNL     1       1.213  -7.138  -2.731  0.00  0.00    +0.000 C 
ATOM     10  C   UNL     1      -0.231  -6.637  -3.055  0.00  0.00    +0.001 C 
ATOM     11  C   UNL     1      -0.070  -5.541  -4.123  0.00  0.00    +0.014 C 
ATOM     12  C   UNL     1      -0.220  -4.168  -3.542  0.00  0.00    +0.052 C 
ATOM     13  S   UNL     1       0.099  -2.896  -4.836  0.00  0.00    -0.134 S 
ATOM     14  C   UNL     1       0.634  -1.541  -3.692  0.00  0.00    +0.145 C 
BRANCH   5  15
ATOM     15  C   UNL     1       1.058  -1.673  -1.255  0.00  0.00    +0.313 C 
ATOM     16  O   UNL     1       0.501  -2.273  -0.367  0.00  0.00    -0.250 OA
BRANCH  15  17
ATOM     17  O   UNL     1       1.442  -0.401  -1.068  0.00  0.00    -0.465 OA
BRANCH  17  19
ATOM     18  C   UNL     1       1.668   1.624   0.233  0.00  0.00    +0.048 C 
ATOM     19  C   UNL     1       1.160   0.181   0.207  0.00  0.00    +0.229 C 
ENDBRANCH  17  19
ENDBRANCH  15  17
ENDBRANCH   5  15
ENDBRANCH   1  14
BRANCH   2  20
ATOM     20  C   UNL     1       2.582   0.321  -6.411  0.00  0.00    +0.134 C 
ATOM     21  C   UNL     1       3.911  -0.415  -6.593  0.00  0.00    +0.029 C 
BRANCH  20  22
ATOM     22  S   UNL     1       1.925   0.793  -8.035  0.00  0.00    -0.115 S 
BRANCH  22  23
ATOM     23  C   UNL     1       2.877   2.072  -8.497  0.00  0.00    +0.014 C 
ATOM     24  C   UNL     1       2.859   2.735  -9.720  0.00  0.00    +0.009 A 
ATOM     25  C   UNL     1       2.087   2.556 -10.889  0.00  0.00    +0.011 A 
ATOM     26  C   UNL     1       2.287   3.368 -11.959  0.00  0.00    +0.001 A 
ATOM     27  C   UNL     1       3.244   4.383 -11.937  0.00  0.00    +0.002 A 
ATOM     28  C   UNL     1       4.021   4.610 -10.848  0.00  0.00    +0.026 A 
ATOM     29  C   UNL     1       3.869   3.804  -9.692  0.00  0.00    +0.044 A 
ATOM     30  N   UNL     1       4.490   3.822  -8.527  0.00  0.00    -0.379 N 
ATOM     31  C   UNL     1       3.941   2.764  -7.673  0.00  0.00    +0.155 C 
ATOM     32  H   UNL     1       5.195   4.438  -8.275  0.00  0.00    +0.160 HD
ENDBRANCH  22  23
ENDBRANCH  20  22
ENDBRANCH   2  20
TORSDOF 7
