REMARK  Name = ZINC09065081
REMARK  17 active torsions:
REMARK  status: ('A' for Active; 'I' for Inactive)
REMARK    1  A    between atoms: C_1  and  C_2
REMARK    2  A    between atoms: C_2  and  N_73
REMARK    3  A    between atoms: C_3  and  C_4
REMARK    4  A    between atoms: C_3  and  N_73
REMARK    5  A    between atoms: C_5  and  C_6
REMARK    6  A    between atoms: C_5  and  N_73
REMARK    7  A    between atoms: C_6  and  C_7
REMARK    8  A    between atoms: C_7  and  N_8
REMARK    9  A    between atoms: C_9  and  C_26
REMARK   10  A    between atoms: C_12  and  C_13
REMARK   11  A    between atoms: C_12  and  O_21
REMARK   12  A    between atoms: C_16  and  O_19
REMARK   13  A    between atoms: O_19  and  C_20
REMARK   14  A    between atoms: C_29  and  C_32
REMARK   15  A    between atoms: C_32  and  C_33
REMARK   16  A    between atoms: C_32  and  C_34
REMARK   17  A    between atoms: C_32  and  C_35
REMARK                            x       y       z     vdW  Elec       q    Type
REMARK                         _______ _______ _______ _____ _____    ______ ____
ROOT
ATOM      1  N   UNL     1      -1.143   2.130  -0.774  0.00  0.00    -0.284 N 
ATOM      2  C   UNL     1      -0.830   3.524  -0.447  0.00  0.00    +0.144 C 
ATOM      3  C   UNL     1       0.677   3.640  -0.448  0.00  0.00    +0.071 C 
ATOM      4  C   UNL     1       1.421   4.776  -0.196  0.00  0.00    +0.133 C 
ATOM      5  C   UNL     1       1.167   2.362  -0.757  0.00  0.00    +0.249 C 
ATOM      6  O   UNL     1       2.340   2.051  -0.852  0.00  0.00    -0.282 OA
ATOM      7  C   UNL     1       0.004   1.453  -0.949  0.00  0.00    +0.288 C 
ATOM      8  O   UNL     1       0.082   0.274  -1.227  0.00  0.00    -0.266 OA
ENDROOT
BRANCH   4   9
ATOM      9  C   UNL     1       2.888   4.693  -0.124  0.00  0.00    +0.017 A 
ATOM     10  C   UNL     1       3.498   3.707   0.661  0.00  0.00    +0.015 A 
ATOM     11  C   UNL     1       4.871   3.630   0.720  0.00  0.00    +0.046 A 
ATOM     12  C   UNL     1       5.652   4.535   0.011  0.00  0.00    +0.120 A 
ATOM     13  C   UNL     1       5.051   5.520  -0.766  0.00  0.00    +0.046 A 
ATOM     14  C   UNL     1       3.679   5.602  -0.837  0.00  0.00    +0.015 A 
BRANCH  12  15
ATOM     15  O   UNL     1       7.005   4.458   0.076  0.00  0.00    -0.495 OA
ATOM     16  C   UNL     1       7.557   3.423   0.893  0.00  0.00    +0.277 C 
ENDBRANCH  12  15
ENDBRANCH   4   9
BRANCH   2  17
ATOM     17  C   UNL     1      -1.419   4.438  -1.490  0.00  0.00    -0.022 A 
ATOM     18  C   UNL     1      -1.399   4.070  -2.823  0.00  0.00    +0.006 A 
ATOM     19  C   UNL     1      -1.944   4.907  -3.779  0.00  0.00    +0.004 A 
ATOM     20  C   UNL     1      -2.499   6.116  -3.404  0.00  0.00    -0.042 A 
ATOM     21  C   UNL     1      -2.513   6.487  -2.072  0.00  0.00    +0.004 A 
ATOM     22  C   UNL     1      -1.973   5.648  -1.115  0.00  0.00    +0.006 A 
BRANCH  20  23
ATOM     23  C   UNL     1      -3.088   7.031  -4.447  0.00  0.00    -0.013 C 
ATOM     24  C   UNL     1      -2.347   8.370  -4.428  0.00  0.00    +0.015 C 
ATOM     25  C   UNL     1      -2.944   6.389  -5.828  0.00  0.00    +0.015 C 
ATOM     26  C   UNL     1      -4.569   7.263  -4.144  0.00  0.00    +0.015 C 
ENDBRANCH  20  23
ENDBRANCH   2  17
BRANCH   4  27
ATOM     27  O   UNL     1       0.803   5.962  -0.016  0.00  0.00    -0.506 OA
ATOM     28  H   UNL     1       1.487   6.672   0.155  0.00  0.00    +0.292 HD
ENDBRANCH   4  27
BRANCH   1  29
ATOM     29  C   UNL     1      -2.490   1.564  -0.889  0.00  0.00    +0.107 C 
BRANCH  29  30
ATOM     30  C   UNL     1      -2.941   1.038   0.475  0.00  0.00    +0.000 C 
BRANCH  30  31
ATOM     31  C   UNL     1      -4.347   0.448   0.355  0.00  0.00    -0.077 C 
BRANCH  31  32
ATOM     32  N   UNL     1      -4.759  -0.075   1.675  0.00  0.00    +0.379 N 
ATOM     33  H   UNL     1      -4.025  -0.698   2.030  0.00  0.00    -0.082 HD
BRANCH  32  35
ATOM     34  C   UNL     1      -6.062   1.971   2.152  0.00  0.00    -0.017 C 
ATOM     35  C   UNL     1      -4.943   1.042   2.625  0.00  0.00    -0.082 C 
ENDBRANCH  32  35
BRANCH  32  36
ATOM     36  C   UNL     1      -6.017  -0.840   1.545  0.00  0.00    -0.082 C 
ATOM     37  C   UNL     1      -6.230  -1.655   2.821  0.00  0.00    -0.017 C 
ENDBRANCH  32  36
ENDBRANCH  31  32
ENDBRANCH  30  31
ENDBRANCH  29  30
ENDBRANCH   1  29
TORSDOF 11
