REMARK  Name = ZINC22928384
REMARK  8 active torsions:
REMARK  status: ('A' for Active; 'I' for Inactive)
REMARK    1  A    between atoms: C_4  and  C_7
REMARK    2  A    between atoms: C_7  and  C_8
REMARK    3  A    between atoms: C_8  and  C_29
REMARK    4  A    between atoms: N_11  and  C_15
REMARK    5  A    between atoms: C_15  and  N_16
REMARK    6  A    between atoms: N_19  and  C_22
REMARK    7  A    between atoms: C_22  and  C_23
REMARK    8  A    between atoms: N_25  and  C_26
REMARK                            x       y       z     vdW  Elec       q    Type
REMARK                         _______ _______ _______ _____ _____    ______ ____
ROOT
ATOM      1  C   UNL     1       0.640   3.376   0.014  0.00  0.00    +0.142 C 
ATOM      2  C   UNL     1      -0.871   3.261   0.028  0.00  0.00    +0.252 C 
ATOM      3  O   UNL     1      -1.675   4.169   0.040  0.00  0.00    -0.272 OA
ATOM      4  N   UNL     1      -1.137   1.940   0.018  0.00  0.00    -0.210 N 
ATOM      5  C   UNL     1      -0.014   1.211   0.009  0.00  0.00    +0.311 C 
ATOM      6  O   UNL     1       0.002  -0.004   0.002  0.00  0.00    -0.252 OA
ATOM      7  N   UNL     1       1.094   1.974   0.002  0.00  0.00    -0.281 N 
ATOM      8  H   UNL     1       2.169   1.744  -0.009  0.00  0.00    +0.152 HD
ENDROOT
BRANCH   1   9
ATOM      9  C   UNL     1       1.109   4.095  -1.224  0.00  0.00    -0.015 A 
ATOM     10  C   UNL     1       1.345   5.457  -1.185  0.00  0.00    +0.006 A 
ATOM     11  C   UNL     1       1.780   6.116  -2.320  0.00  0.00    +0.000 A 
ATOM     12  C   UNL     1       1.969   5.415  -3.496  0.00  0.00    +0.000 A 
ATOM     13  C   UNL     1       1.728   4.055  -3.537  0.00  0.00    +0.000 A 
ATOM     14  C   UNL     1       1.298   3.395  -2.401  0.00  0.00    +0.006 A 
ENDBRANCH   1   9
BRANCH   1  15
ATOM     15  C   UNL     1       1.137   4.092   1.272  0.00  0.00    +0.075 C 
BRANCH  15  19
ATOM     16  C   UNL     1      -0.059   1.890   4.731  0.00  0.00    +0.000 A 
ATOM     17  C   UNL     1       1.154   1.620   4.125  0.00  0.00    +0.000 A 
ATOM     18  C   UNL     1       1.541   2.332   3.005  0.00  0.00    +0.004 A 
ATOM     19  C   UNL     1       0.715   3.315   2.492  0.00  0.00    -0.045 A 
ATOM     20  C   UNL     1      -0.495   3.589   3.101  0.00  0.00    +0.004 A 
ATOM     21  C   UNL     1      -0.884   2.873   4.218  0.00  0.00    +0.000 A 
ENDBRANCH  15  19
ENDBRANCH   1  15
BRANCH   4  22
ATOM     22  C   UNL     1      -2.487   1.371   0.020  0.00  0.00    +0.205 C 
BRANCH  22  23
ATOM     23  N   UNL     1      -2.933   1.173   1.405  0.00  0.00    -0.290 NA
ATOM     24  C   UNL     1      -2.384  -0.071   1.963  0.00  0.00    +0.067 C 
ATOM     25  C   UNL     1      -2.806  -0.199   3.428  0.00  0.00    -0.063 C 
ATOM     26  N   UNL     1      -4.273  -0.188   3.516  0.00  0.00    +0.387 N 
ATOM     27  C   UNL     1      -4.821   1.056   2.959  0.00  0.00    -0.063 C 
ATOM     28  C   UNL     1      -4.400   1.185   1.493  0.00  0.00    +0.067 C 
ATOM     29  H   UNL     1      -4.655  -1.027   2.916  0.00  0.00    -0.081 HD
BRANCH  26  30
ATOM     30  C   UNL     1      -4.719  -0.386   4.902  0.00  0.00    +0.019 C 
BRANCH  30  31
ATOM     31  C   UNL     1      -4.346  -1.774   5.356  0.00  0.00    +0.197 C 
ATOM     32  O   UNL     1      -3.766  -2.524   4.600  0.00  0.00    -0.278 OA
ATOM     33  N   UNL     1      -4.657  -2.181   6.603  0.00  0.00    -0.314 N 
ATOM     34  H   UNL     1      -5.183  -1.500   7.288  0.00  0.00    +0.149 HD
BRANCH  33  35
ATOM     35  C   UNL     1      -4.295  -3.530   7.044  0.00  0.00    +0.073 C 
ATOM     36  C   UNL     1      -5.346  -4.325   7.822  0.00  0.00    +0.024 C 
ATOM     37  C   UNL     1      -4.122  -3.759   8.547  0.00  0.00    +0.024 C 
ENDBRANCH  33  35
ENDBRANCH  30  31
ENDBRANCH  26  30
ENDBRANCH  22  23
ENDBRANCH   4  22
TORSDOF 8
