REMARK  Name = ZINC02116050
REMARK  7 active torsions:
REMARK  status: ('A' for Active; 'I' for Inactive)
REMARK    1  A    between atoms: C_1  and  O_2
REMARK    2  A    between atoms: O_2  and  C_3
REMARK    3  A    between atoms: C_6  and  N_9
REMARK    4  A    between atoms: C_10  and  C_12
REMARK    5  A    between atoms: C_12  and  N_20
REMARK    6  A    between atoms: C_13  and  C_14
REMARK    7  A    between atoms: C_21  and  C_23
REMARK                            x       y       z     vdW  Elec       q    Type
REMARK                         _______ _______ _______ _____ _____    ______ ____
ROOT
ATOM      1  C   UNL     1      -1.138   1.710  -0.644  0.00  0.00    +0.097 C 
ATOM      2  C   UNL     1      -0.116   0.957  -0.176  0.00  0.00    +0.036 C 
ENDROOT
BRANCH   2   3
ATOM      3  C   UNL     1       1.274   1.346  -0.459  0.00  0.00    -0.023 A 
ATOM      4  C   UNL     1       1.562   2.202  -1.528  0.00  0.00    +0.008 A 
ATOM      5  C   UNL     1       2.867   2.565  -1.783  0.00  0.00    +0.001 A 
ATOM      6  C   UNL     1       3.893   2.077  -0.993  0.00  0.00    +0.000 A 
ATOM      7  C   UNL     1       3.617   1.226   0.064  0.00  0.00    +0.001 A 
ATOM      8  C   UNL     1       2.317   0.857   0.336  0.00  0.00    +0.008 A 
ENDBRANCH   2   3
BRANCH   1  10
ATOM      9  N   UNL     1      -2.772   0.035   0.048  0.00  0.00    -0.280 N 
ATOM     10  C   UNL     1      -2.521   1.228  -0.527  0.00  0.00    +0.262 C 
ATOM     11  O   UNL     1      -3.440   1.905  -0.948  0.00  0.00    -0.268 OA
ATOM     12  H   UNL     1      -2.049  -0.470   0.453  0.00  0.00    +0.155 HD
BRANCH   9  16
ATOM     13  C   UNL     1      -6.652  -1.488   0.086  0.00  0.00    +0.120 A 
ATOM     14  C   UNL     1      -5.575  -2.341  -0.105  0.00  0.00    +0.047 A 
ATOM     15  C   UNL     1      -4.289  -1.837  -0.118  0.00  0.00    +0.027 A 
ATOM     16  C   UNL     1      -4.075  -0.477   0.060  0.00  0.00    +0.034 A 
ATOM     17  C   UNL     1      -5.154   0.376   0.256  0.00  0.00    +0.027 A 
ATOM     18  C   UNL     1      -6.439  -0.129   0.264  0.00  0.00    +0.047 A 
BRANCH  13  20
ATOM     19  C   UNL     1      -8.980  -1.049   0.300  0.00  0.00    +0.277 C 
ATOM     20  O   UNL     1      -7.918  -1.984   0.098  0.00  0.00    -0.495 OA
ENDBRANCH  13  20
ENDBRANCH   9  16
ENDBRANCH   1  10
BRANCH   1  21
ATOM     21  N   UNL     1      -0.878   2.947  -1.240  0.00  0.00    -0.275 N 
ATOM     22  C   UNL     1      -1.330   3.205  -2.484  0.00  0.00    +0.284 C 
ATOM     23  O   UNL     1      -1.885   2.330  -3.123  0.00  0.00    -0.266 OA
ATOM     24  H   UNL     1      -0.372   3.621  -0.759  0.00  0.00    +0.155 HD
BRANCH  22  25
ATOM     25  C   UNL     1      -1.154   4.538  -3.066  0.00  0.00    +0.191 A 
ATOM     26  C   UNL     1      -1.644   4.959  -4.270  0.00  0.00    +0.056 A 
ATOM     27  C   UNL     1      -1.242   6.294  -4.425  0.00  0.00    +0.058 A 
ATOM     28  C   UNL     1      -0.524   6.624  -3.326  0.00  0.00    +0.171 A 
ATOM     29  O   UNL     1      -0.474   5.562  -2.510  0.00  0.00    -0.444 OA
ATOM     30 BR   UNL     1       0.276   8.305  -2.997  0.00  0.00    -0.008 Br
ENDBRANCH  22  25
ENDBRANCH   1  21
TORSDOF 6
