REMARK  Name = ZINC20735140
REMARK  8 active torsions:
REMARK  status: ('A' for Active; 'I' for Inactive)
REMARK    1  A    between atoms: C_1  and  C_2
REMARK    2  A    between atoms: C_2  and  C_3
REMARK    3  A    between atoms: C_2  and  C_4
REMARK    4  A    between atoms: C_4  and  C_6
REMARK    5  A    between atoms: C_4  and  N_10
REMARK    6  A    between atoms: C_6  and  O_8
REMARK    7  A    between atoms: O_8  and  C_9
REMARK    8  A    between atoms: C_22  and  C_24
REMARK                            x       y       z     vdW  Elec       q    Type
REMARK                         _______ _______ _______ _____ _____    ______ ____
ROOT
ATOM      1  N   UNL     1      -1.250  -1.985  -2.266  0.00  0.00    -0.286 N 
ATOM      2  C   UNL     1      -1.994  -0.863  -2.339  0.00  0.00    +0.304 C 
ATOM      3  O   UNL     1      -2.194  -0.201  -1.339  0.00  0.00    -0.253 OA
ATOM      4  N   UNL     1      -2.515  -0.475  -3.519  0.00  0.00    -0.273 N 
ATOM      5  C   UNL     1      -3.236   0.801  -3.642  0.00  0.00    +0.116 C 
ATOM      6  C   UNL     1      -2.461   1.726  -4.590  0.00  0.00    +0.074 C 
ATOM      7  C   UNL     1      -2.038   0.935  -5.800  0.00  0.00    +0.040 A 
ATOM      8  C   UNL     1      -1.993  -0.413  -5.865  0.00  0.00    +0.062 A 
ATOM      9  N   UNL     1      -1.570  -0.756  -7.083  0.00  0.00    -0.348 N 
ATOM     10  C   UNL     1      -1.352   0.327  -7.782  0.00  0.00    +0.171 A 
ATOM     11  N   UNL     1      -1.635   1.405  -7.014  0.00  0.00    -0.349 N 
ATOM     12  H   UNL     1      -1.564   2.336  -7.277  0.00  0.00    +0.166 HD
ATOM     13  C   UNL     1      -2.371  -1.317  -4.721  0.00  0.00    +0.156 C 
ATOM     14  H   UNL     1      -1.155  -2.555  -3.045  0.00  0.00    +0.151 HD
ATOM     15  H   UNL     1      -1.444  -1.665  -7.400  0.00  0.00    +0.167 HD
ENDROOT
BRANCH  13  16
ATOM     16  C   UNL     1      -3.677  -2.003  -5.026  0.00  0.00    -0.021 A 
ATOM     17  C   UNL     1      -4.789  -1.255  -5.365  0.00  0.00    +0.007 A 
ATOM     18  C   UNL     1      -5.987  -1.884  -5.645  0.00  0.00    +0.015 A 
ATOM     19  C   UNL     1      -6.074  -3.263  -5.586  0.00  0.00    +0.018 A 
ATOM     20  C   UNL     1      -4.962  -4.012  -5.247  0.00  0.00    +0.015 A 
ATOM     21  C   UNL     1      -3.762  -3.382  -4.972  0.00  0.00    +0.007 A 
ATOM     22 BR   UNL     1      -7.713  -4.125  -5.968  0.00  0.00    -0.050 Br
ENDBRANCH  13  16
BRANCH   1  23
ATOM     23  C   UNL     1      -0.587  -2.344  -1.010  0.00  0.00    +0.186 C 
BRANCH  23  25
ATOM     24  C   UNL     1      -1.925  -4.442  -0.780  0.00  0.00    +0.009 C 
ATOM     25  C   UNL     1      -1.565  -3.110  -0.117  0.00  0.00    +0.014 C 
ATOM     26  C   UNL     1      -0.915  -3.377   1.241  0.00  0.00    +0.009 C 
ENDBRANCH  23  25
BRANCH  23  27
ATOM     27  C   UNL     1       0.610  -3.212  -1.304  0.00  0.00    +0.328 C 
ATOM     28  O   UNL     1       0.880  -3.501  -2.446  0.00  0.00    -0.249 OA
BRANCH  27  29
ATOM     29  O   UNL     1       1.374  -3.664  -0.298  0.00  0.00    -0.467 OA
ATOM     30  C   UNL     1       2.492  -4.482  -0.650  0.00  0.00    +0.280 C 
ENDBRANCH  27  29
ENDBRANCH  23  27
ENDBRANCH   1  23
TORSDOF 5
