REMARK  Name = ZINC62528222
REMARK  5 active torsions:
REMARK  status: ('A' for Active; 'I' for Inactive)
REMARK    1  A    between atoms: C_1  and  C_2
REMARK    2  A    between atoms: C_2  and  C_3
REMARK    3  A    between atoms: C_5  and  N_17
REMARK    4  A    between atoms: C_10  and  C_15
REMARK    5  A    between atoms: C_15  and  C_16
REMARK                            x       y       z     vdW  Elec       q    Type
REMARK                         _______ _______ _______ _____ _____    ______ ____
ROOT
ATOM      1  C   UNL     1      -1.091  -0.424  -0.180  0.00  0.00    -0.002 A 
ATOM      2  C   UNL     1      -1.699  -0.704   1.031  0.00  0.00    +0.030 A 
ATOM      3  C   UNL     1      -3.005  -1.174   1.063  0.00  0.00    +0.027 A 
ATOM      4  C   UNL     1      -3.707  -1.358  -0.121  0.00  0.00    +0.049 A 
ATOM      5  C   UNL     1      -3.102  -1.068  -1.332  0.00  0.00    +0.078 A 
ATOM      6  C   UNL     1      -1.788  -0.605  -1.362  0.00  0.00    +0.146 A 
ATOM      7  O   UNL     1      -1.188  -0.358  -2.558  0.00  0.00    -0.477 OA
ATOM      8  C   UNL     1      -2.025   0.102  -3.621  0.00  0.00    +0.259 C 
ATOM      9  C   UNL     1      -3.279  -0.734  -3.676  0.00  0.00    +0.258 C 
ATOM     10  O   UNL     1      -3.815  -0.959  -4.740  0.00  0.00    -0.271 OA
ATOM     11  N   UNL     1      -3.798  -1.242  -2.536  0.00  0.00    -0.279 N 
ATOM     12  H   UNL     1      -4.647  -1.711  -2.549  0.00  0.00    +0.155 HD
ENDROOT
BRANCH   3  13
ATOM     13  N   UNL     1      -3.614  -1.462   2.290  0.00  0.00    -0.358 N 
ATOM     14  H   UNL     1      -3.124  -1.334   3.117  0.00  0.00    +0.142 HD
ATOM     15  H   UNL     1      -4.527  -1.791   2.312  0.00  0.00    +0.142 HD
ENDBRANCH   3  13
BRANCH   1  17
ATOM     16  C   UNL     1       1.286  -1.091  -0.404  0.00  0.00    +0.009 C 
ATOM     17  C   UNL     1       0.327   0.085  -0.211  0.00  0.00    +0.035 C 
ENDBRANCH   1  17
BRANCH   8  18
ATOM     18  C   UNL     1      -2.400   1.565  -3.377  0.00  0.00    +0.051 C 
ATOM     19  C   UNL     1      -1.141   2.432  -3.442  0.00  0.00    +0.008 C 
ENDBRANCH   8  18
TORSDOF 3
