REMARK  Name = ZINC08682518
REMARK  12 active torsions:
REMARK  status: ('A' for Active; 'I' for Inactive)
REMARK    1  A    between atoms: C_1  and  C_2
REMARK    2  A    between atoms: C_3  and  C_36
REMARK    3  A    between atoms: C_5  and  N_11
REMARK    4  A    between atoms: C_6  and  C_7
REMARK    5  A    between atoms: C_7  and  O_9
REMARK    6  A    between atoms: O_9  and  C_10
REMARK    7  A    between atoms: C_12  and  C_14
REMARK    8  A    between atoms: C_14  and  N_15
REMARK    9  A    between atoms: C_18  and  O_35
REMARK   10  A    between atoms: C_25  and  C_27
REMARK   11  A    between atoms: C_32  and  O_33
REMARK   12  A    between atoms: O_33  and  C_34
REMARK                            x       y       z     vdW  Elec       q    Type
REMARK                         _______ _______ _______ _____ _____    ______ ____
ROOT
ATOM      1  N   UNL     1       0.108  -6.809   2.242  0.00  0.00    +0.390 N 
ATOM      2  C   UNL     1       1.357  -6.989   1.493  0.00  0.00    -0.075 C 
ATOM      3  C   UNL     1       1.350  -8.352   0.797  0.00  0.00    +0.016 C 
ATOM      4  C   UNL     1       1.213  -9.454   1.851  0.00  0.00    +0.066 C 
ATOM      5  C   UNL     1       1.149 -10.819   1.170  0.00  0.00    +0.035 C 
ATOM      6  C   UNL     1      -0.068 -10.876   0.244  0.00  0.00    +0.003 C 
ATOM      7  C   UNL     1      -1.340 -10.654   1.065  0.00  0.00    +0.000 C 
ATOM      8  C   UNL     1      -1.278  -9.280   1.735  0.00  0.00    +0.005 C 
ATOM      9  C   UNL     1      -0.063  -9.215   2.663  0.00  0.00    +0.011 C 
ATOM     10  C   UNL     1       0.007  -7.822   3.299  0.00  0.00    -0.028 C 
ATOM     11  H   UNL     1      -0.675  -6.901   1.612  0.00  0.00    -0.080 HD
ENDROOT
BRANCH  10  12
ATOM     12  C   UNL     1      -1.239  -7.578   4.111  0.00  0.00    -0.019 A 
ATOM     13  C   UNL     1      -2.312  -6.914   3.549  0.00  0.00    +0.005 A 
ATOM     14  C   UNL     1      -3.454  -6.689   4.294  0.00  0.00    +0.000 A 
ATOM     15  C   UNL     1      -3.526  -7.129   5.604  0.00  0.00    +0.004 A 
ATOM     16  C   UNL     1      -2.457  -7.794   6.170  0.00  0.00    +0.046 A 
ATOM     17  C   UNL     1      -1.311  -8.026   5.422  0.00  0.00    +0.122 A 
BRANCH  17  18
ATOM     18  O   UNL     1      -0.259  -8.685   5.975  0.00  0.00    -0.495 OA
ATOM     19  C   UNL     1      -0.404  -9.116   7.330  0.00  0.00    +0.277 C 
ENDBRANCH  17  18
ENDBRANCH  10  12
BRANCH   4  20
ATOM     20  O   UNL     1       2.344  -9.418   2.724  0.00  0.00    -0.388 OA
ATOM     21  H   UNL     1       3.191  -9.553   2.276  0.00  0.00    +0.210 HD
ENDBRANCH   4  20
BRANCH   1  22
ATOM     22  C   UNL     1       0.092  -5.470   2.847  0.00  0.00    +0.020 C 
BRANCH  22  24
ATOM     23  N   UNL     1       0.055  -3.118   2.081  0.00  0.00    -0.281 N 
ATOM     24  C   UNL     1       0.072  -4.427   1.760  0.00  0.00    +0.201 C 
ATOM     25  O   UNL     1       0.072  -4.765   0.595  0.00  0.00    -0.278 OA
ATOM     26  H   UNL     1       0.055  -2.848   3.013  0.00  0.00    +0.155 HD
BRANCH  23  31
ATOM     27  C   UNL     1      -0.018   1.503   0.010  0.00  0.00    +0.045 C 
ATOM     28  C   UNL     1       0.002  -0.004   0.002  0.00  0.00    -0.025 A 
ATOM     29  C   UNL     1       0.007  -0.712  -1.142  0.00  0.00    -0.008 A 
ATOM     30  S   UNL     1       0.033  -2.400  -0.580  0.00  0.00    -0.078 S 
ATOM     31  C   UNL     1       0.037  -2.159   1.081  0.00  0.00    +0.086 A 
ATOM     32  C   UNL     1       0.024  -0.778   1.223  0.00  0.00    +0.091 A 
ATOM     33  C   UNL     1      -0.007  -0.199  -2.559  0.00  0.00    +0.052 C 
BRANCH  32  34
ATOM     34  C   UNL     1       0.028  -0.139   2.540  0.00  0.00    +0.342 C 
ATOM     35  O   UNL     1      -1.024   0.112   3.097  0.00  0.00    -0.245 OA
BRANCH  34  36
ATOM     36  O   UNL     1       1.198   0.171   3.136  0.00  0.00    -0.464 OA
ATOM     37  C   UNL     1       1.127   0.793   4.420  0.00  0.00    +0.280 C 
ENDBRANCH  34  36
ENDBRANCH  32  34
ENDBRANCH  23  31
ENDBRANCH  22  24
ENDBRANCH   1  22
TORSDOF 8
