REMARK  Name = ZINC19552054
REMARK  10 active torsions:
REMARK  status: ('A' for Active; 'I' for Inactive)
REMARK    1  A    between atoms: C_1  and  O_2
REMARK    2  A    between atoms: O_2  and  C_3
REMARK    3  A    between atoms: C_6  and  C_11
REMARK    4  A    between atoms: C_7  and  O_9
REMARK    5  A    between atoms: O_9  and  C_10
REMARK    6  A    between atoms: N_19  and  C_22
REMARK    7  A    between atoms: C_29  and  C_31
REMARK    8  A    between atoms: C_29  and  C_37
REMARK    9  A    between atoms: C_37  and  O_39
REMARK   10  A    between atoms: O_39  and  C_40
REMARK                            x       y       z     vdW  Elec       q    Type
REMARK                         _______ _______ _______ _____ _____    ______ ____
ROOT
ATOM      1  C   UNL     1       0.048   4.298   0.123  0.00  0.00    +0.101 C 
ATOM      2  C   UNL     1      -0.497   4.311  -1.249  0.00  0.00    +0.112 C 
ATOM      3  C   UNL     1      -1.569   5.470  -1.144  0.00  0.00    +0.125 C 
ATOM      4  C   UNL     1      -1.873   5.533  -2.616  0.00  0.00    +0.233 C 
ATOM      5  O   UNL     1      -2.130   6.521  -3.271  0.00  0.00    -0.274 OA
ATOM      6  N   UNL     1      -1.798   4.243  -3.060  0.00  0.00    -0.210 N 
ATOM      7  C   UNL     1      -1.146   3.416  -2.179  0.00  0.00    +0.232 C 
ATOM      8  O   UNL     1      -1.120   2.204  -2.181  0.00  0.00    -0.274 OA
ATOM      9  C   UNL     1      -0.670   6.518  -0.492  0.00  0.00    +0.155 C 
ATOM     10  N   UNL     1       0.253   5.764   0.391  0.00  0.00    -0.290 NA
ATOM     11  H   UNL     1       0.030   5.977   1.447  0.00  0.00    +0.124 HD
ENDROOT
BRANCH   6  12
ATOM     12  C   UNL     1      -2.330   3.810  -4.284  0.00  0.00    +0.044 A 
ATOM     13  C   UNL     1      -2.981   4.710  -5.116  0.00  0.00    +0.027 A 
ATOM     14  C   UNL     1      -3.501   4.283  -6.322  0.00  0.00    +0.040 A 
ATOM     15  C   UNL     1      -3.381   2.955  -6.697  0.00  0.00    +0.124 A 
ATOM     16  C   UNL     1      -2.736   2.055  -5.866  0.00  0.00    +0.040 A 
ATOM     17  C   UNL     1      -2.211   2.479  -4.662  0.00  0.00    +0.027 A 
ATOM     18  F   UNL     1      -3.894   2.538  -7.875  0.00  0.00    -0.205 F 
ENDBRANCH   6  12
BRANCH   1  22
ATOM     19  C   UNL     1       3.765   2.186   0.268  0.00  0.00    +0.124 A 
ATOM     20  C   UNL     1       3.752   3.573   0.228  0.00  0.00    +0.046 A 
ATOM     21  C   UNL     1       2.550   4.253   0.181  0.00  0.00    +0.012 A 
ATOM     22  C   UNL     1       1.358   3.554   0.174  0.00  0.00    +0.012 A 
ATOM     23  C   UNL     1       1.365   2.167   0.214  0.00  0.00    +0.128 A 
ATOM     24  C   UNL     1       2.570   1.482   0.267  0.00  0.00    +0.091 A 
BRANCH  19  26
ATOM     25  C   UNL     1       6.138   2.307   0.318  0.00  0.00    +0.277 C 
ATOM     26  O   UNL     1       4.947   1.518   0.314  0.00  0.00    -0.495 OA
ENDBRANCH  19  26
BRANCH  23  27
ATOM     27  O   UNL     1       0.193   1.480   0.208  0.00  0.00    -0.495 OA
ATOM     28  C   UNL     1       0.276   0.054   0.251  0.00  0.00    +0.277 C 
ENDBRANCH  23  27
ENDBRANCH   1  22
BRANCH   9  29
ATOM     29  C   UNL     1      -1.497   7.495   0.304  0.00  0.00    -0.016 A 
ATOM     30  C   UNL     1      -2.791   7.785  -0.087  0.00  0.00    +0.006 A 
ATOM     31  C   UNL     1      -3.551   8.676   0.646  0.00  0.00    +0.000 A 
ATOM     32  C   UNL     1      -3.014   9.286   1.764  0.00  0.00    +0.000 A 
ATOM     33  C   UNL     1      -1.718   9.001   2.152  0.00  0.00    +0.000 A 
ATOM     34  C   UNL     1      -0.960   8.105   1.422  0.00  0.00    +0.006 A 
ENDBRANCH   9  29
BRANCH   9  35
ATOM     35  C   UNL     1       0.130   7.246  -1.542  0.00  0.00    +0.333 C 
ATOM     36  O   UNL     1      -0.282   8.284  -2.003  0.00  0.00    -0.248 OA
BRANCH  35  37
ATOM     37  O   UNL     1       1.299   6.741  -1.965  0.00  0.00    -0.466 OA
ATOM     38  C   UNL     1       2.015   7.496  -2.978  0.00  0.00    +0.280 C 
ENDBRANCH  35  37
ENDBRANCH   9  35
TORSDOF 7
