REMARK  Name = ZINC03572816
REMARK  5 active torsions:
REMARK  status: ('A' for Active; 'I' for Inactive)
REMARK    1  A    between atoms: C_1  and  C_2
REMARK    2  A    between atoms: C_2  and  C_22
REMARK    3  A    between atoms: N_5  and  C_9
REMARK    4  A    between atoms: C_9  and  C_10
REMARK    5  A    between atoms: C_10  and  N_11
REMARK                            x       y       z     vdW  Elec       q    Type
REMARK                         _______ _______ _______ _____ _____    ______ ____
ROOT
ATOM      1  C   UNL     1       1.603  -1.368   4.086  0.00  0.00    +0.047 C 
ATOM      2  C   UNL     1       0.681  -0.155   4.233  0.00  0.00    +0.135 C 
ATOM      3  C   UNL     1      -0.289  -0.073   3.071  0.00  0.00    +0.251 C 
ATOM      4  O   UNL     1      -1.131  -0.889   2.761  0.00  0.00    -0.272 OA
ATOM      5  N   UNL     1      -0.020   1.094   2.454  0.00  0.00    -0.222 N 
ATOM      6  C   UNL     1       0.970   1.758   3.062  0.00  0.00    +0.310 C 
ATOM      7  O   UNL     1       1.387   2.837   2.691  0.00  0.00    -0.252 OA
ATOM      8  N   UNL     1       1.452   1.096   4.130  0.00  0.00    -0.281 N 
ATOM      9  H   UNL     1       2.166   1.387   4.717  0.00  0.00    +0.152 HD
ENDROOT
BRANCH   2  10
ATOM     10  C   UNL     1      -0.067  -0.211   5.540  0.00  0.00    -0.014 A 
ATOM     11  C   UNL     1       0.461   0.397   6.665  0.00  0.00    +0.006 A 
ATOM     12  C   UNL     1      -0.225   0.346   7.864  0.00  0.00    +0.001 A 
ATOM     13  C   UNL     1      -1.438  -0.312   7.939  0.00  0.00    +0.015 A 
ATOM     14  C   UNL     1      -1.966  -0.920   6.814  0.00  0.00    +0.018 A 
ATOM     15  C   UNL     1      -1.282  -0.865   5.613  0.00  0.00    +0.021 A 
ATOM     16 BR   UNL     1      -3.626  -1.821   6.917  0.00  0.00    -0.050 Br
ENDBRANCH   2  10
BRANCH   5  17
ATOM     17  C   UNL     1      -0.729   1.579   1.267  0.00  0.00    +0.137 C 
BRANCH  17  18
ATOM     18  C   UNL     1      -0.013   1.086   0.008  0.00  0.00    +0.136 C 
BRANCH  18  19
ATOM     19  N   UNL     1      -0.721   1.571  -1.179  0.00  0.00    -0.233 N 
ATOM     20  C   UNL     1      -1.714   0.906  -1.798  0.00  0.00    +0.254 C 
ATOM     21  O   UNL     1      -2.157  -0.175  -1.467  0.00  0.00    -0.270 OA
ATOM     22  C   UNL     1      -2.176   1.713  -2.947  0.00  0.00    +0.049 A 
ATOM     23  C   UNL     1      -3.148   1.544  -3.920  0.00  0.00    +0.014 A 
ATOM     24  C   UNL     1      -3.328   2.519  -4.888  0.00  0.00    +0.001 A 
ATOM     25  C   UNL     1      -2.546   3.658  -4.889  0.00  0.00    +0.001 A 
ATOM     26  C   UNL     1      -1.570   3.842  -3.922  0.00  0.00    +0.014 A 
ATOM     27  C   UNL     1      -1.378   2.875  -2.948  0.00  0.00    +0.049 A 
ATOM     28  C   UNL     1      -0.461   2.737  -1.797  0.00  0.00    +0.254 C 
ATOM     29  O   UNL     1       0.385   3.543  -1.464  0.00  0.00    -0.270 OA
ENDBRANCH  18  19
ENDBRANCH  17  18
ENDBRANCH   5  17
TORSDOF 4
