REMARK  Name = ZINC04222549
REMARK  10 active torsions:
REMARK  status: ('A' for Active; 'I' for Inactive)
REMARK    1  A    between atoms: C_1  and  C_2
REMARK    2  A    between atoms: C_10  and  C_12
REMARK    3  A    between atoms: C_12  and  C_13
REMARK    4  A    between atoms: N_20  and  C_21
REMARK    5  A    between atoms: C_21  and  C_22
REMARK    6  A    between atoms: C_27  and  C_37
REMARK    7  A    between atoms: C_30  and  O_36
REMARK    8  A    between atoms: C_32  and  C_33
REMARK    9  A    between atoms: C_32  and  C_34
REMARK   10  A    between atoms: C_34  and  O_35
REMARK                            x       y       z     vdW  Elec       q    Type
REMARK                         _______ _______ _______ _____ _____    ______ ____
ROOT
ATOM      1  C   UNL     1       3.959   4.581   6.475  0.00  0.00    +0.054 C 
ATOM      2  C   UNL     1       3.470   6.001   6.716  0.00  0.00    +0.058 A 
ATOM      3  C   UNL     1       4.291   6.916   7.290  0.00  0.00    +0.015 A 
ATOM      4  S   UNL     1       3.276   8.368   7.351  0.00  0.00    -0.057 S 
ATOM      5  C   UNL     1       1.861   7.669   6.623  0.00  0.00    +0.159 A 
ATOM      6  N   UNL     1       2.250   6.431   6.396  0.00  0.00    -0.229 NA
ATOM      7  N   UNL     1       0.638   8.261   6.351  0.00  0.00    -0.320 N 
ATOM      8  C   UNL     1       5.694   6.720   7.745  0.00  0.00    +0.049 C 
ATOM      9  C   UNL     1       5.996   5.210   7.806  0.00  0.00    +0.011 C 
ATOM     10  C   UNL     1       5.492   4.550   6.521  0.00  0.00    -0.019 C 
ATOM     11  C   UNL     1       5.923   3.080   6.479  0.00  0.00    +0.010 C 
ATOM     12  C   UNL     1       7.444   2.969   6.571  0.00  0.00    +0.032 C 
ATOM     13  C   UNL     1       7.903   3.579   7.898  0.00  0.00    +0.123 C 
ATOM     14  C   UNL     1       7.516   5.056   7.919  0.00  0.00    +0.021 C 
ATOM     15  C   UNL     1       7.993   5.686   9.229  0.00  0.00    +0.016 C 
ATOM     16  C   UNL     1       6.056   5.294   5.308  0.00  0.00    +0.012 C 
ATOM     17  H   UNL     1      -0.070   7.744   5.936  0.00  0.00    +0.148 HD
ENDROOT
BRANCH  13  18
ATOM     18  O   UNL     1       9.322   3.453   8.018  0.00  0.00    -0.391 OA
ATOM     19  H   UNL     1       9.639   2.540   8.000  0.00  0.00    +0.210 HD
ENDBRANCH  13  18
BRANCH   1  20
ATOM     20  C   UNL     1       3.480   4.103   5.103  0.00  0.00    +0.106 C 
BRANCH  20  30
ATOM     21  C   UNL     1      -1.824   1.046   1.247  0.00  0.00    +0.109 C 
ATOM     22  C   UNL     1      -0.321   1.150   1.248  0.00  0.00    +0.213 C 
ATOM     23  O   UNL     1       0.308   0.853   0.254  0.00  0.00    -0.276 OA
ATOM     24  N   UNL     1       0.325   1.573   2.352  0.00  0.00    -0.299 N 
ATOM     25  C   UNL     1       1.782   1.771   2.337  0.00  0.00    +0.126 C 
ATOM     26  C   UNL     1       2.079   3.212   2.787  0.00  0.00    +0.126 C 
ATOM     27  N   UNL     1       1.341   3.477   4.030  0.00  0.00    -0.298 N 
ATOM     28  C   UNL     1      -0.114   3.272   4.047  0.00  0.00    +0.126 C 
ATOM     29  C   UNL     1      -0.413   1.837   3.595  0.00  0.00    +0.126 C 
ATOM     30  C   UNL     1       1.988   3.898   5.135  0.00  0.00    +0.216 C 
ATOM     31  O   UNL     1       1.368   4.113   6.155  0.00  0.00    -0.276 OA
ENDBRANCH  20  30
ENDBRANCH   1  20
BRANCH   7  32
ATOM     32  C   UNL     1       0.414   9.669   6.689  0.00  0.00    +0.130 C 
BRANCH  32  33
ATOM     33  C   UNL     1      -0.985  10.065   6.294  0.00  0.00    -0.016 C 
ATOM     34  C   UNL     1      -1.793  10.588   7.181  0.00  0.00    +0.005 C 
ENDBRANCH  32  33
ENDBRANCH   7  32
BRANCH  14  35
ATOM     35  C   UNL     1       8.186   5.772   6.744  0.00  0.00    +0.165 C 
BRANCH  35  36
ATOM     36  O   UNL     1       9.603   5.772   6.932  0.00  0.00    -0.394 OA
ATOM     37  H   UNL     1      10.094   6.210   6.223  0.00  0.00    +0.209 HD
ENDBRANCH  35  36
ENDBRANCH  14  35
TORSDOF 7
