REMARK  Name = ZINC07043350
REMARK  7 active torsions:
REMARK  status: ('A' for Active; 'I' for Inactive)
REMARK    1  A    between atoms: C_1  and  C_2
REMARK    2  A    between atoms: C_2  and  C_4
REMARK    3  A    between atoms: C_2  and  N_57
REMARK    4  A    between atoms: N_6  and  C_7
REMARK    5  A    between atoms: C_10  and  S_13
REMARK    6  A    between atoms: S_13  and  N_16
REMARK    7  A    between atoms: C_21  and  N_57
REMARK                            x       y       z     vdW  Elec       q    Type
REMARK                         _______ _______ _______ _____ _____    ______ ____
ROOT
ATOM      1  C   UNL     1      -2.806   4.216   5.426  0.00  0.00    +0.203 C 
ATOM      2  O   UNL     1      -2.000   4.979   4.938  0.00  0.00    -0.277 OA
ATOM      3  N   UNL     1      -3.077   3.043   4.819  0.00  0.00    -0.287 N 
ATOM      4  H   UNL     1      -3.776   2.468   5.167  0.00  0.00    +0.155 HD
ENDROOT
BRANCH   3   5
ATOM      5  C   UNL     1      -2.351   2.656   3.688  0.00  0.00    +0.033 A 
ATOM      6  C   UNL     1      -1.014   3.011   3.565  0.00  0.00    +0.025 A 
ATOM      7  C   UNL     1      -0.299   2.627   2.447  0.00  0.00    +0.030 A 
ATOM      8  C   UNL     1      -0.914   1.891   1.451  0.00  0.00    +0.106 A 
ATOM      9  C   UNL     1      -2.246   1.540   1.568  0.00  0.00    +0.030 A 
ATOM     10  C   UNL     1      -2.965   1.917   2.686  0.00  0.00    +0.025 A 
BRANCH   8  11
ATOM     11  S   UNL     1       0.002   1.403   0.026  0.00  0.00    +0.061 S 
ATOM     12  O   UNL     1       1.076   2.324  -0.101  0.00  0.00    -0.153 OA
ATOM     13  O   UNL     1      -0.946   1.190  -1.011  0.00  0.00    -0.153 OA
BRANCH  11  14
ATOM     14  N   UNL     1       0.678  -0.071   0.360  0.00  0.00    -0.177 NA
ATOM     15  C   UNL     1       2.001  -0.290   0.964  0.00  0.00    +0.109 C 
ATOM     16  C   UNL     1       2.214  -1.815   1.061  0.00  0.00    +0.018 C 
ATOM     17  C   UNL     1       1.246  -2.368  -0.018  0.00  0.00    +0.018 C 
ATOM     18  C   UNL     1       0.057  -1.382   0.095  0.00  0.00    +0.109 C 
ENDBRANCH  11  14
ENDBRANCH   8  11
ENDBRANCH   3   5
BRANCH   1  20
ATOM     19  C   UNL     1      -3.187   3.528   7.778  0.00  0.00    -0.004 C 
ATOM     20  C   UNL     1      -3.504   4.578   6.712  0.00  0.00    +0.014 C 
BRANCH  20  21
ATOM     21  N   UNL     1      -3.029   5.899   7.165  0.00  0.00    +0.388 N 
ATOM     22  H   UNL     1      -2.846   6.492   6.347  0.00  0.00    -0.084 HD
ATOM     23  H   UNL     1      -2.162   5.781   7.702  0.00  0.00    -0.084 HD
BRANCH  21  24
ATOM     24  C   UNL     1      -4.046   6.545   8.016  0.00  0.00    -0.071 C 
ATOM     25  C   UNL     1      -5.078   7.252   7.115  0.00  0.00    -0.016 C 
ATOM     26  C   UNL     1      -6.340   7.463   7.908  0.00  0.00    -0.002 C 
ATOM     27  C   UNL     1      -6.393   8.854   8.569  0.00  0.00    -0.000 C 
ATOM     28  C   UNL     1      -5.043   9.278   9.178  0.00  0.00    -0.000 C 
ATOM     29  C   UNL     1      -4.356   8.149   9.898  0.00  0.00    -0.002 C 
ATOM     30  C   UNL     1      -3.376   7.468   8.920  0.00  0.00    -0.016 C 
ENDBRANCH  21  24
ENDBRANCH  20  21
ENDBRANCH   1  20
TORSDOF 6
