REMARK  Name = ZINC20236853
REMARK  10 active torsions:
REMARK  status: ('A' for Active; 'I' for Inactive)
REMARK    1  A    between atoms: C_1  and  C_2
REMARK    2  A    between atoms: C_5  and  O_10
REMARK    3  A    between atoms: C_6  and  O_8
REMARK    4  A    between atoms: O_8  and  C_9
REMARK    5  A    between atoms: O_10  and  C_11
REMARK    6  A    between atoms: C_11  and  C_12
REMARK    7  A    between atoms: C_12  and  O_13
REMARK    8  A    between atoms: O_13  and  C_14
REMARK    9  A    between atoms: C_17  and  C_21
REMARK   10  A    between atoms: C_31  and  C_33
REMARK                            x       y       z     vdW  Elec       q    Type
REMARK                         _______ _______ _______ _____ _____    ______ ____
ROOT
ATOM      1  C   UNL     1      -0.564  -8.112   0.247  0.00  0.00    +0.135 A 
ATOM      2  C   UNL     1       0.368  -9.114  -0.003  0.00  0.00    +0.047 A 
ATOM      3  C   UNL     1       0.005 -10.428   0.076  0.00  0.00    +0.011 A 
ATOM      4  C   UNL     1      -1.313 -10.772   0.411  0.00  0.00    -0.023 A 
ATOM      5  C   UNL     1      -2.253  -9.763   0.664  0.00  0.00    +0.027 A 
ATOM      6  C   UNL     1      -1.873  -8.441   0.586  0.00  0.00    +0.060 A 
ATOM      7 BR   UNL     1      -3.132  -7.074   0.933  0.00  0.00    -0.047 Br
ENDROOT
BRANCH   4   8
ATOM      8  C   UNL     1      -1.706 -12.181   0.496  0.00  0.00    +0.024 C 
ATOM      9  C   UNL     1      -1.183 -13.095  -0.390  0.00  0.00    +0.084 C 
ATOM     10  C   UNL     1      -1.405 -14.566  -0.238  0.00  0.00    +0.176 C 
ATOM     11  N   UNL     1      -2.481 -15.084   0.293  0.00  0.00    -0.280 NA
ATOM     12  N   UNL     1      -0.347 -15.323  -0.722  0.00  0.00    -0.142 N 
ATOM     13  C   UNL     1       0.523 -14.819  -1.655  0.00  0.00    +0.168 C 
ATOM     14  N   UNL     1       0.503 -13.559  -2.088  0.00  0.00    -0.156 NA
ATOM     15  C   UNL     1      -0.370 -12.684  -1.562  0.00  0.00    +0.273 C 
ATOM     16  O   UNL     1      -0.490 -11.566  -2.036  0.00  0.00    -0.268 OA
ATOM     17  C   UNL     1       1.384 -15.868  -2.006  0.00  0.00    +0.091 C 
ATOM     18  C   UNL     1       1.069 -16.947  -1.255  0.00  0.00    +0.134 C 
ATOM     19  O   UNL     1       0.052 -16.635  -0.434  0.00  0.00    -0.375 OA
ATOM     20  C   UNL     1       1.751 -18.288  -1.328  0.00  0.00    +0.089 C 
ATOM     21  H   UNL     1      -3.190 -14.505   0.614  0.00  0.00    +0.188 HD
ENDBRANCH   4   8
BRANCH   1  22
ATOM     22  O   UNL     1      -0.194  -6.809   0.166  0.00  0.00    -0.487 OA
BRANCH  22  23
ATOM     23  C   UNL     1       1.165  -6.541  -0.187  0.00  0.00    +0.270 C 
BRANCH  23  24
ATOM     24  C   UNL     1       1.392  -5.029  -0.228  0.00  0.00    +0.270 C 
BRANCH  24  25
ATOM     25  O   UNL     1       1.228  -4.487   1.084  0.00  0.00    -0.485 OA
BRANCH  25  30
ATOM     26  C   UNL     1       1.930   1.077   1.655  0.00  0.00    +0.044 C 
ATOM     27  C   UNL     1       1.742  -0.411   1.505  0.00  0.00    -0.047 A 
ATOM     28  C   UNL     1       1.886  -1.003   0.264  0.00  0.00    +0.007 A 
ATOM     29  C   UNL     1       1.715  -2.367   0.121  0.00  0.00    +0.049 A 
ATOM     30  C   UNL     1       1.398  -3.145   1.223  0.00  0.00    +0.162 A 
ATOM     31  C   UNL     1       1.253  -2.549   2.473  0.00  0.00    +0.162 A 
ATOM     32  C   UNL     1       1.431  -1.182   2.610  0.00  0.00    +0.052 A 
BRANCH  31  33
ATOM     33  O   UNL     1       0.942  -3.308   3.557  0.00  0.00    -0.491 OA
ATOM     34  C   UNL     1       0.809  -2.629   4.808  0.00  0.00    +0.277 C 
ENDBRANCH  31  33
ENDBRANCH  25  30
ENDBRANCH  24  25
ENDBRANCH  23  24
ENDBRANCH  22  23
ENDBRANCH   1  22
TORSDOF 7
