REMARK  Name = ZINC01840949
REMARK  8 active torsions:
REMARK  status: ('A' for Active; 'I' for Inactive)
REMARK    1  A    between atoms: C_1  and  C_2
REMARK    2  A    between atoms: C_2  and  C_3
REMARK    3  A    between atoms: C_11  and  C_12
REMARK    4  A    between atoms: N_14  and  C_21
REMARK    5  A    between atoms: C_21  and  C_22
REMARK    6  A    between atoms: C_22  and  O_23
REMARK    7  A    between atoms: O_23  and  C_24
REMARK    8  A    between atoms: C_28  and  C_30
REMARK                            x       y       z     vdW  Elec       q    Type
REMARK                         _______ _______ _______ _____ _____    ______ ____
ROOT
ATOM      1  C   UNL     1      -0.826  -6.692   6.684  0.00  0.00    +0.001 A 
ATOM      2  C   UNL     1      -2.101  -7.035   6.276  0.00  0.00    +0.095 A 
ATOM      3  N   UNL     1      -2.457  -8.204   6.844  0.00  0.00    -0.343 N 
ATOM      4  C   UNL     1      -1.443  -8.686   7.648  0.00  0.00    +0.050 A 
ATOM      5  C   UNL     1      -0.377  -7.774   7.583  0.00  0.00    +0.007 A 
ATOM      6  C   UNL     1       0.791  -8.013   8.299  0.00  0.00    +0.010 A 
ATOM      7  C   UNL     1       0.900  -9.152   9.069  0.00  0.00    +0.001 A 
ATOM      8  C   UNL     1      -0.150 -10.056   9.131  0.00  0.00    +0.002 A 
ATOM      9  C   UNL     1      -1.317  -9.826   8.434  0.00  0.00    +0.026 A 
ENDROOT
BRANCH   1  18
ATOM     10  C   UNL     1      -1.198   0.306   2.243  0.00  0.00    +0.007 C 
ATOM     11  C   UNL     1      -1.394  -0.626   3.172  0.00  0.00    +0.092 A 
ATOM     12  N   UNL     1      -0.467  -1.486   3.764  0.00  0.00    -0.283 N 
ATOM     13  H   UNL     1       0.461  -1.484   3.481  0.00  0.00    +0.188 HD
ATOM     14  N   UNL     1      -0.898  -2.339   4.759  0.00  0.00    -0.212 N 
ATOM     15  C   UNL     1      -0.058  -3.149   5.551  0.00  0.00    +0.160 A 
ATOM     16  N   UNL     1       1.203  -2.882   5.767  0.00  0.00    -0.281 NA
ATOM     17  C   UNL     1      -0.751  -4.339   6.117  0.00  0.00    +0.085 A 
ATOM     18  C   UNL     1      -0.096  -5.541   6.311  0.00  0.00    +0.027 C 
ATOM     19  C   UNL     1      -2.181  -4.165   6.461  0.00  0.00    +0.283 A 
ATOM     20  O   UNL     1      -2.714  -4.872   7.301  0.00  0.00    -0.265 OA
ATOM     21  N   UNL     1      -2.880  -3.203   5.820  0.00  0.00    -0.182 NA
ATOM     22  C   UNL     1      -2.256  -2.387   5.013  0.00  0.00    +0.199 A 
ATOM     23  S   UNL     1      -2.911  -1.094   3.992  0.00  0.00    -0.031 S 
ATOM     24  H   UNL     1       1.737  -3.473   6.320  0.00  0.00    +0.188 HD
BRANCH  10  26
ATOM     25  C   UNL     1      -2.030   2.619   1.915  0.00  0.00    +0.008 C 
ATOM     26  C   UNL     1      -2.356   1.133   1.748  0.00  0.00    +0.026 C 
ENDBRANCH  10  26
ENDBRANCH   1  18
BRANCH   3  27
ATOM     27  C   UNL     1      -3.744  -8.872   6.637  0.00  0.00    +0.163 C 
BRANCH  27  28
ATOM     28  C   UNL     1      -4.706  -8.485   7.761  0.00  0.00    +0.250 C 
BRANCH  28  29
ATOM     29  O   UNL     1      -5.962  -9.137   7.559  0.00  0.00    -0.490 OA
BRANCH  29  30
ATOM     30  C   UNL     1      -6.936  -8.899   8.477  0.00  0.00    +0.121 A 
ATOM     31  C   UNL     1      -6.690  -8.050   9.547  0.00  0.00    +0.045 A 
ATOM     32  C   UNL     1      -7.681  -7.809  10.478  0.00  0.00    +0.004 A 
ATOM     33  C   UNL     1      -8.918  -8.412  10.344  0.00  0.00    +0.003 A 
ATOM     34  C   UNL     1      -9.166  -9.259   9.279  0.00  0.00    -0.047 A 
ATOM     35  C   UNL     1      -8.179  -9.499   8.342  0.00  0.00    +0.049 A 
ATOM     36  C   UNL     1     -10.515  -9.915   9.137  0.00  0.00    +0.044 C 
ENDBRANCH  29  30
ENDBRANCH  28  29
ENDBRANCH  27  28
ENDBRANCH   3  27
TORSDOF 6
