REMARK  Name = ZINC38747056
REMARK  6 active torsions:
REMARK  status: ('A' for Active; 'I' for Inactive)
REMARK    1  A    between atoms: C_1  and  C_2
REMARK    2  A    between atoms: C_10  and  S_14
REMARK    3  A    between atoms: S_14  and  C_15
REMARK    4  A    between atoms: C_15  and  C_16
REMARK    5  A    between atoms: N_18  and  C_19
REMARK    6  A    between atoms: C_24  and  C_25
REMARK                            x       y       z     vdW  Elec       q    Type
REMARK                         _______ _______ _______ _____ _____    ______ ____
ROOT
ATOM      1  S   UNL     1       7.747  -3.224   0.823  0.00  0.00    -0.079 S 
ENDROOT
BRANCH   1  10
ATOM      2  C   UNL     1       0.027   1.603   0.018  0.00  0.00    +0.007 C 
ATOM      3  C   UNL     1       0.036   0.073   0.006  0.00  0.00    -0.012 C 
ATOM      4  C   UNL     1       0.733  -0.415  -1.262  0.00  0.00    +0.008 C 
ATOM      5  C   UNL     1       2.159   0.148  -1.339  0.00  0.00    +0.033 C 
ATOM      6  C   UNL     1       2.841  -0.209  -0.020  0.00  0.00    -0.042 C 
ATOM      7  C   UNL     1       3.994  -0.866   0.085  0.00  0.00    +0.071 C 
ATOM      8  C   UNL     1       4.433  -1.306   1.438  0.00  0.00    +0.112 C 
ATOM      9  N   UNL     1       5.528  -1.995   1.631  0.00  0.00    -0.217 NA
ATOM     10  C   UNL     1       6.270  -2.302   0.555  0.00  0.00    +0.182 C 
ATOM     11  N   UNL     1       5.979  -1.967  -0.687  0.00  0.00    -0.151 NA
ATOM     12  C   UNL     1       4.893  -1.267  -1.049  0.00  0.00    +0.272 C 
ATOM     13  O   UNL     1       4.655  -0.979  -2.210  0.00  0.00    -0.268 OA
ATOM     14  S   UNL     1       3.196  -0.688   2.535  0.00  0.00    -0.097 S 
ATOM     15  C   UNL     1       2.159   0.177   1.294  0.00  0.00    +0.080 C 
ATOM     16  C   UNL     1       0.758  -0.436   1.258  0.00  0.00    +0.022 C 
ENDBRANCH   1  10
BRANCH   1  17
ATOM     17  C   UNL     1       8.443  -3.429  -0.840  0.00  0.00    +0.173 C 
BRANCH  17  18
ATOM     18  C   UNL     1       9.728  -4.213  -0.753  0.00  0.00    +0.227 C 
ATOM     19  O   UNL     1      10.133  -4.595   0.324  0.00  0.00    -0.275 OA
ATOM     20  N   UNL     1      10.426  -4.488  -1.873  0.00  0.00    -0.284 N 
ATOM     21  H   UNL     1      10.063  -4.253  -2.741  0.00  0.00    +0.155 HD
BRANCH  20  22
ATOM     22  C   UNL     1      11.674  -5.114  -1.782  0.00  0.00    +0.045 A 
ATOM     23  C   UNL     1      12.429  -4.997  -0.622  0.00  0.00    +0.024 A 
ATOM     24  C   UNL     1      13.661  -5.616  -0.536  0.00  0.00    +0.002 A 
ATOM     25  C   UNL     1      14.143  -6.350  -1.604  0.00  0.00    +0.001 A 
ATOM     26  C   UNL     1      13.395  -6.467  -2.761  0.00  0.00    +0.014 A 
ATOM     27  C   UNL     1      12.159  -5.856  -2.851  0.00  0.00    +0.076 A 
BRANCH  27  28
ATOM     28  C   UNL     1      11.341  -5.991  -4.109  0.00  0.00    +0.419 C 
ATOM     29  F   UNL     1      12.034  -6.779  -5.034  0.00  0.00    -0.166 F 
ATOM     30  F   UNL     1      10.116  -6.595  -3.806  0.00  0.00    -0.166 F 
ATOM     31  F   UNL     1      11.114  -4.723  -4.655  0.00  0.00    -0.166 F 
ENDBRANCH  27  28
ENDBRANCH  20  22
ENDBRANCH  17  18
ENDBRANCH   1  17
TORSDOF 5
