REMARK  Name = ZINC37820118
REMARK  7 active torsions:
REMARK  status: ('A' for Active; 'I' for Inactive)
REMARK    1  A    between atoms: C_1  and  C_2
REMARK    2  A    between atoms: C_2  and  C_3
REMARK    3  A    between atoms: C_2  and  C_4
REMARK    4  A    between atoms: C_4  and  C_5
REMARK    5  A    between atoms: C_5  and  C_7
REMARK    6  A    between atoms: C_5  and  N_22
REMARK    7  A    between atoms: C_13  and  C_16
REMARK                            x       y       z     vdW  Elec       q    Type
REMARK                         _______ _______ _______ _____ _____    ______ ____
ROOT
ATOM      1  C   UNL     1      -2.829  -2.556  -0.233  0.00  0.00    +0.201 C 
ATOM      2  O   UNL     1      -3.501  -2.936   0.702  0.00  0.00    -0.277 OA
ATOM      3  N   UNL     1      -3.332  -2.591  -1.483  0.00  0.00    -0.302 N 
ATOM      4  C   UNL     1      -2.527  -2.140  -2.627  0.00  0.00    +0.108 C 
ATOM      5  C   UNL     1      -2.496  -3.254  -3.678  0.00  0.00    +0.020 C 
ATOM      6  C   UNL     1      -3.930  -3.652  -4.036  0.00  0.00    +0.013 C 
ATOM      7  C   UNL     1      -4.640  -4.184  -2.789  0.00  0.00    +0.057 C 
ATOM      8  C   UNL     1      -4.693  -3.086  -1.729  0.00  0.00    +0.117 C 
ENDROOT
BRANCH   7   9
ATOM      9  C   UNL     1      -6.041  -4.606  -3.150  0.00  0.00    +0.067 A 
ATOM     10  C   UNL     1      -6.867  -3.987  -4.094  0.00  0.00    +0.044 A 
ATOM     11  C   UNL     1      -8.040  -4.660  -4.127  0.00  0.00    +0.105 A 
ATOM     12  N   UNL     1      -7.960  -5.670  -3.235  0.00  0.00    -0.284 N 
ATOM     13  N   UNL     1      -6.693  -5.618  -2.638  0.00  0.00    -0.179 NA
ATOM     14  H   UNL     1      -8.655  -6.319  -3.043  0.00  0.00    +0.188 HD
ENDBRANCH   7   9
BRANCH   1  15
ATOM     15  C   UNL     1      -1.431  -2.046   0.003  0.00  0.00    +0.013 C 
BRANCH  15  16
ATOM     16  N   UNL     1      -0.943  -2.535   1.299  0.00  0.00    +0.386 N 
ATOM     17  H   UNL     1      -1.498  -2.134   2.040  0.00  0.00    -0.089 HD
ATOM     18  H   UNL     1      -1.018  -3.541   1.329  0.00  0.00    -0.089 HD
ATOM     19  H   UNL     1       0.022  -2.266   1.419  0.00  0.00    -0.089 HD
ENDBRANCH  15  16
BRANCH  15  20
ATOM     20  C   UNL     1      -1.440  -0.516   0.005  0.00  0.00    -0.004 C 
BRANCH  20  22
ATOM     21  C   UNL     1       0.786  -0.383  -1.122  0.00  0.00    +0.007 C 
ATOM     22  C   UNL     1      -0.005   0.002   0.129  0.00  0.00    -0.018 C 
ATOM     23  C   UNL     1      -0.024   1.526   0.272  0.00  0.00    +0.007 C 
ENDBRANCH  20  22
ENDBRANCH  15  20
ENDBRANCH   1  15
TORSDOF 5
