REMARK  Name = ZINC19720363
REMARK  7 active torsions:
REMARK  status: ('A' for Active; 'I' for Inactive)
REMARK    1  A    between atoms: C_1  and  C_2
REMARK    2  A    between atoms: C_6  and  C_8
REMARK    3  A    between atoms: N_22  and  C_23
REMARK    4  A    between atoms: C_23  and  C_24
REMARK    5  A    between atoms: C_27  and  C_29
REMARK    6  A    between atoms: C_29  and  O_30
REMARK    7  A    between atoms: O_30  and  C_31
REMARK                            x       y       z     vdW  Elec       q    Type
REMARK                         _______ _______ _______ _____ _____    ______ ____
ROOT
ATOM      1  C   UNL     1       0.639   3.591   2.137  0.00  0.00    +0.153 C 
ATOM      2  C   UNL     1       0.897   3.979   3.574  0.00  0.00    +0.044 A 
ATOM      3  C   UNL     1       2.137   4.040   4.109  0.00  0.00    -0.016 A 
ATOM      4  C   UNL     1       1.988   4.445   5.489  0.00  0.00    +0.003 A 
ATOM      5  C   UNL     1       2.906   4.671   6.519  0.00  0.00    +0.010 A 
ATOM      6  C   UNL     1       2.395   5.055   7.734  0.00  0.00    +0.001 A 
ATOM      7  C   UNL     1       1.035   5.213   7.944  0.00  0.00    +0.002 A 
ATOM      8  C   UNL     1       0.103   4.995   6.943  0.00  0.00    +0.026 A 
ATOM      9  C   UNL     1       0.593   4.605   5.699  0.00  0.00    +0.047 A 
ATOM     10  N   UNL     1      -0.033   4.314   4.520  0.00  0.00    -0.356 N 
ATOM     11  H   UNL     1      -1.102   4.317   4.264  0.00  0.00    +0.166 HD
ATOM     12  C   UNL     1       3.393   3.728   3.335  0.00  0.00    +0.053 C 
ATOM     13  C   UNL     1       2.989   2.980   2.057  0.00  0.00    +0.090 C 
ATOM     14  N   UNL     1       1.901   3.707   1.388  0.00  0.00    -0.282 NA
ENDROOT
BRANCH   1  20
ATOM     15  C   UNL     1      -0.364   7.625  -0.420  0.00  0.00    +0.065 C 
ATOM     16  C   UNL     1      -0.864   6.419   0.333  0.00  0.00    +0.039 A 
ATOM     17  C   UNL     1      -2.224   6.203   0.451  0.00  0.00    +0.023 A 
ATOM     18  C   UNL     1      -2.674   5.091   1.145  0.00  0.00    +0.004 A 
ATOM     19  C   UNL     1      -1.735   4.234   1.699  0.00  0.00    +0.025 A 
ATOM     20  C   UNL     1      -0.391   4.515   1.540  0.00  0.00    +0.065 A 
ATOM     21  N   UNL     1       0.001   5.586   0.877  0.00  0.00    -0.255 NA
ENDBRANCH   1  20
BRANCH  14  22
ATOM     22  C   UNL     1       1.735   3.249   0.003  0.00  0.00    +0.159 C 
BRANCH  22  23
ATOM     23  C   UNL     1       1.265   1.817  -0.000  0.00  0.00    +0.119 A 
ATOM     24  C   UNL     1      -0.017   1.410   0.010  0.00  0.00    +0.046 A 
ATOM     25  C   UNL     1       0.002  -0.004   0.002  0.00  0.00    +0.047 A 
ATOM     26  C   UNL     1       1.295  -0.376  -0.012  0.00  0.00    +0.131 A 
ATOM     27  O   UNL     1       2.055   0.731  -0.014  0.00  0.00    -0.461 OA
BRANCH  26  28
ATOM     28  C   UNL     1       1.803  -1.795  -0.025  0.00  0.00    +0.233 C 
BRANCH  28  29
ATOM     29  O   UNL     1       1.951  -2.235  -1.377  0.00  0.00    -0.375 OA
ATOM     30  C   UNL     1       2.431  -3.576  -1.502  0.00  0.00    +0.194 C 
ENDBRANCH  28  29
ENDBRANCH  26  28
ENDBRANCH  22  23
ENDBRANCH  14  22
TORSDOF 5
