REMARK  Name = ZINC31050700
REMARK  9 active torsions:
REMARK  status: ('A' for Active; 'I' for Inactive)
REMARK    1  A    between atoms: C_1  and  C_2
REMARK    2  A    between atoms: N_7  and  C_9
REMARK    3  A    between atoms: C_12  and  C_15
REMARK    4  A    between atoms: C_15  and  C_17
REMARK    5  A    between atoms: C_15  and  N_18
REMARK    6  A    between atoms: C_19  and  C_21
REMARK    7  A    between atoms: N_26  and  C_28
REMARK    8  A    between atoms: C_28  and  C_29
REMARK    9  A    between atoms: C_31  and  C_34
REMARK                            x       y       z     vdW  Elec       q    Type
REMARK                         _______ _______ _______ _____ _____    ______ ____
ROOT
ATOM      1  C   UNL     1       0.002  -0.004   0.002  0.00  0.00    +0.058 C 
ATOM      2  C   UNL     1       0.761  -0.506   1.233  0.00  0.00    +0.009 C 
ATOM      3  C   UNL     1       2.177   0.078   1.224  0.00  0.00    -0.018 C 
ATOM      4  C   UNL     1       2.093   1.605   1.197  0.00  0.00    -0.078 C 
ATOM      5  N   UNL     1       1.359   2.036   0.000  0.00  0.00    +0.386 N 
ATOM      6  C   UNL     1      -0.019   1.526   0.010  0.00  0.00    -0.065 C 
ATOM      7  H   UNL     1       1.867   1.609  -0.877  0.00  0.00    -0.081 HD
ENDROOT
BRANCH   1   9
ATOM      8  N   UNL     1      -1.639  -1.855   0.033  0.00  0.00    -0.309 N 
ATOM      9  C   UNL     1      -1.411  -0.527   0.035  0.00  0.00    +0.215 C 
ATOM     10  O   UNL     1      -2.344   0.248   0.062  0.00  0.00    -0.276 OA
ATOM     11  H   UNL     1      -0.793  -2.558   0.009  0.00  0.00    +0.149 HD
BRANCH   8  12
ATOM     12  C   UNL     1      -3.012  -2.363   0.065  0.00  0.00    +0.100 C 
ATOM     13  C   UNL     1      -3.498  -2.429   1.514  0.00  0.00    +0.033 C 
BRANCH  12  17
ATOM     14  C   UNL     1      -3.125  -6.274  -1.656  0.00  0.00    +0.030 A 
ATOM     15  C   UNL     1      -4.145  -5.367  -1.919  0.00  0.00    +0.023 A 
ATOM     16  C   UNL     1      -4.105  -4.105  -1.361  0.00  0.00    +0.007 A 
ATOM     17  C   UNL     1      -3.052  -3.742  -0.542  0.00  0.00    -0.027 A 
ATOM     18  C   UNL     1      -2.033  -4.639  -0.282  0.00  0.00    +0.007 A 
ATOM     19  C   UNL     1      -2.069  -5.906  -0.832  0.00  0.00    +0.023 A 
BRANCH  14  25
ATOM     20  C   UNL     1      -0.783 -10.506  -2.116  0.00  0.00    +0.009 C 
ATOM     21  C   UNL     1      -1.990  -9.676  -2.558  0.00  0.00    +0.003 C 
ATOM     22  C   UNL     1      -3.279 -10.437  -2.236  0.00  0.00    +0.006 C 
ATOM     23  C   UNL     1      -4.482  -9.574  -2.626  0.00  0.00    +0.019 C 
ATOM     24  C   UNL     1      -4.412  -8.241  -1.877  0.00  0.00    +0.105 C 
ATOM     25  N   UNL     1      -3.162  -7.551  -2.219  0.00  0.00    -0.330 N 
ATOM     26  C   UNL     1      -1.992  -8.340  -1.811  0.00  0.00    +0.108 C 
ENDBRANCH  14  25
ENDBRANCH  12  17
ENDBRANCH   8  12
ENDBRANCH   1   9
BRANCH   5  27
ATOM     27  C   UNL     1       1.378   3.499  -0.132  0.00  0.00    +0.022 C 
BRANCH  27  28
ATOM     28  C   UNL     1       2.776   4.006   0.106  0.00  0.00    +0.211 A 
ATOM     29  N   UNL     1       3.710   4.168  -0.798  0.00  0.00    -0.193 NA
ATOM     30  C   UNL     1       4.785   4.641  -0.129  0.00  0.00    +0.203 A 
ATOM     31  N   UNL     1       4.448   4.731   1.131  0.00  0.00    -0.056 NA
ATOM     32  O   UNL     1       3.300   4.371   1.281  0.00  0.00    -0.340 OA
BRANCH  30  33
ATOM     33  C   UNL     1       6.104   4.988  -0.715  0.00  0.00    +0.041 A 
ATOM     34  C   UNL     1       6.324   4.835  -2.082  0.00  0.00    +0.013 A 
ATOM     35  C   UNL     1       7.551   5.163  -2.622  0.00  0.00    +0.001 A 
ATOM     36  C   UNL     1       8.566   5.634  -1.807  0.00  0.00    +0.001 A 
ATOM     37  C   UNL     1       8.355   5.784  -0.449  0.00  0.00    +0.021 A 
ATOM     38  C   UNL     1       7.129   5.463   0.102  0.00  0.00    +0.052 A 
ATOM     39 CL   UNL     1       6.867   5.650   1.808  0.00  0.00    -0.083 Cl
ENDBRANCH  30  33
ENDBRANCH  27  28
ENDBRANCH   5  27
TORSDOF 7
