REMARK  Name = ZINC62545593
REMARK  3 active torsions:
REMARK  status: ('A' for Active; 'I' for Inactive)
REMARK    1  A    between atoms: C_4  and  C_7
REMARK    2  A    between atoms: N_13  and  S_14
REMARK    3  A    between atoms: S_14  and  C_17
REMARK                            x       y       z     vdW  Elec       q    Type
REMARK                         _______ _______ _______ _____ _____    ______ ____
ROOT
ATOM      1  C   UNL     1       3.699  -0.689  -0.037  0.00  0.00    -0.002 A 
ATOM      2  C   UNL     1       4.559  -0.568  -1.155  0.00  0.00    +0.013 A 
ATOM      3  C   UNL     1       5.742  -1.230  -1.162  0.00  0.00    +0.048 A 
ATOM      4  C   UNL     1       6.098  -2.032  -0.051  0.00  0.00    +0.153 A 
ATOM      5  N   UNL     1       5.243  -2.131   1.021  0.00  0.00    -0.345 N 
ATOM      6  C   UNL     1       4.060  -1.460   1.024  0.00  0.00    +0.093 A 
ATOM      7  N   UNL     1       7.243  -2.681  -0.044  0.00  0.00    -0.111 NA
ATOM      8  H   UNL     1       5.487  -2.681   1.782  0.00  0.00    +0.167 HD
ENDROOT
BRANCH   1  12
ATOM      9  C   UNL     1      -0.017   1.379   0.010  0.00  0.00    +0.000 A 
ATOM     10  C   UNL     1       1.169   2.092   0.002  0.00  0.00    +0.001 A 
ATOM     11  C   UNL     1       2.377   1.426  -0.013  0.00  0.00    +0.008 A 
ATOM     12  C   UNL     1       2.402   0.033  -0.021  0.00  0.00    -0.017 A 
ATOM     13  C   UNL     1       1.205  -0.680  -0.013  0.00  0.00    +0.008 A 
ATOM     14  C   UNL     1       0.002  -0.004   0.002  0.00  0.00    +0.001 A 
ENDBRANCH   1  12
BRANCH   7  15
ATOM     15  S   UNL     1       7.656  -3.618   1.258  0.00  0.00    +0.101 S 
ATOM     16  O   UNL     1       7.836  -2.733   2.354  0.00  0.00    -0.146 OA
ATOM     17  O   UNL     1       6.730  -4.696   1.292  0.00  0.00    -0.146 OA
BRANCH  15  18
ATOM     18  C   UNL     1       9.234  -4.321   0.913  0.00  0.00    +0.113 A 
ATOM     19  C   UNL     1       9.322  -5.538   0.262  0.00  0.00    +0.029 A 
ATOM     20  C   UNL     1      10.560  -6.089  -0.008  0.00  0.00    +0.002 A 
ATOM     21  C   UNL     1      11.711  -5.424   0.372  0.00  0.00    +0.000 A 
ATOM     22  C   UNL     1      11.623  -4.207   1.022  0.00  0.00    +0.002 A 
ATOM     23  C   UNL     1      10.385  -3.654   1.288  0.00  0.00    +0.029 A 
ENDBRANCH  15  18
ENDBRANCH   7  15
TORSDOF 3
