REMARK  Name = ZINC40687408
REMARK  4 active torsions:
REMARK  status: ('A' for Active; 'I' for Inactive)
REMARK    1  A    between atoms: C_11  and  N_26
REMARK    2  A    between atoms: C_12  and  N_16
REMARK    3  A    between atoms: N_16  and  N_17
REMARK    4  A    between atoms: C_18  and  C_20
REMARK                            x       y       z     vdW  Elec       q    Type
REMARK                         _______ _______ _______ _____ _____    ______ ____
ROOT
ATOM      1  C   UNL     1       0.874  -1.660   3.043  0.00  0.00    +0.000 A 
ATOM      2  C   UNL     1       2.156  -1.272   3.384  0.00  0.00    +0.002 A 
ATOM      3  C   UNL     1       3.080  -0.989   2.402  0.00  0.00    +0.024 A 
ATOM      4  C   UNL     1       2.728  -1.091   1.054  0.00  0.00    +0.038 A 
ATOM      5  C   UNL     1       1.440  -1.481   0.723  0.00  0.00    -0.025 A 
ATOM      6  C   UNL     1       0.518  -1.764   1.711  0.00  0.00    +0.005 A 
ATOM      7  C   UNL     1       1.320  -1.512  -0.785  0.00  0.00    +0.056 C 
ATOM      8  C   UNL     1       2.708  -1.089  -1.292  0.00  0.00    +0.117 C 
ATOM      9  N   UNL     1       3.503  -0.852  -0.084  0.00  0.00    -0.283 N 
ATOM     10  C   UNL     1       4.833  -0.448  -0.071  0.00  0.00    +0.152 A 
ATOM     11  C   UNL     1       5.163   0.907  -0.143  0.00  0.00    +0.107 A 
ATOM     12  C   UNL     1       6.514   1.258  -0.127  0.00  0.00    +0.161 A 
ATOM     13  N   UNL     1       7.429   0.295  -0.044  0.00  0.00    -0.217 NA
ATOM     14  C   UNL     1       7.075  -0.973   0.022  0.00  0.00    +0.225 A 
ATOM     15  N   UNL     1       5.812  -1.346   0.014  0.00  0.00    -0.218 NA
ENDROOT
BRANCH  11  16
ATOM     16  N   UNL     1       4.163   1.889  -0.230  0.00  0.00    -0.353 N 
ATOM     17  H   UNL     1       3.230   1.639  -0.151  0.00  0.00    +0.143 HD
ATOM     18  H   UNL     1       4.407   2.818  -0.368  0.00  0.00    +0.143 HD
ENDBRANCH  11  16
BRANCH  12  19
ATOM     19  N   UNL     1       6.897   2.592  -0.196  0.00  0.00    -0.247 N 
ATOM     20  H   UNL     1       6.224   3.287  -0.256  0.00  0.00    +0.172 HD
BRANCH  19  21
ATOM     21  N   UNL     1       8.257   2.932  -0.179  0.00  0.00    -0.230 N 
ATOM     22  C   UNL     1       8.628   4.226  -0.246  0.00  0.00    +0.278 C 
ATOM     23  O   UNL     1       7.785   5.097  -0.322  0.00  0.00    -0.267 OA
ATOM     24  H   UNL     1       8.930   2.236  -0.118  0.00  0.00    +0.173 HD
BRANCH  22  25
ATOM     25  C   UNL     1      10.066   4.585  -0.228  0.00  0.00    +0.127 A 
ATOM     26  C   UNL     1      10.443   5.925  -0.292  0.00  0.00    +0.033 A 
ATOM     27  C   UNL     1      11.791   6.246  -0.274  0.00  0.00    +0.004 A 
ATOM     28  C   UNL     1      12.715   5.215  -0.192  0.00  0.00    +0.020 A 
ATOM     29  C   UNL     1      12.268   3.905  -0.131  0.00  0.00    +0.111 A 
ATOM     30  N   UNL     1      10.982   3.629  -0.145  0.00  0.00    -0.250 NA
ENDBRANCH  22  25
ENDBRANCH  19  21
ENDBRANCH  12  19
TORSDOF 4
