REMARK  Name = ZINC20607854
REMARK  9 active torsions:
REMARK  status: ('A' for Active; 'I' for Inactive)
REMARK    1  A    between atoms: C_1  and  C_2
REMARK    2  A    between atoms: C_2  and  C_3
REMARK    3  A    between atoms: C_2  and  C_4
REMARK    4  A    between atoms: C_2  and  C_5
REMARK    5  A    between atoms: C_12  and  N_17
REMARK    6  A    between atoms: C_13  and  C_14
REMARK    7  A    between atoms: C_18  and  C_20
REMARK    8  A    between atoms: C_20  and  C_21
REMARK    9  A    between atoms: C_21  and  N_22
REMARK                            x       y       z     vdW  Elec       q    Type
REMARK                         _______ _______ _______ _____ _____    ______ ____
ROOT
ATOM      1  C   UNL     1       0.718  -0.497  -1.257  0.00  0.00    -0.000 C 
ATOM      2  C   UNL     1       0.746  -2.029  -1.264  0.00  0.00    +0.009 C 
ATOM      3  C   UNL     1       1.234  -2.534  -2.624  0.00  0.00    +0.037 C 
ATOM      4  C   UNL     1       2.546  -1.840  -2.959  0.00  0.00    -0.023 A 
ATOM      5  C   UNL     1       2.920  -0.705  -2.330  0.00  0.00    -0.004 A 
ATOM      6  S   UNL     1       4.484  -0.290  -3.046  0.00  0.00    -0.077 S 
ATOM      7  C   UNL     1       4.646  -1.558  -4.135  0.00  0.00    +0.084 A 
ATOM      8  C   UNL     1       3.496  -2.310  -3.953  0.00  0.00    +0.068 A 
ATOM      9  C   UNL     1       2.161   0.028  -1.267  0.00  0.00    +0.046 C 
ENDROOT
BRANCH   8  10
ATOM     10  C   UNL     1       3.248  -3.528  -4.730  0.00  0.00    +0.244 C 
ATOM     11  O   UNL     1       2.655  -3.463  -5.791  0.00  0.00    -0.270 OA
ATOM     12  N   UNL     1       3.677  -4.720  -4.270  0.00  0.00    -0.325 N 
ATOM     13  H   UNL     1       4.149  -4.772  -3.424  0.00  0.00    +0.145 HD
ATOM     14  H   UNL     1       3.513  -5.526  -4.784  0.00  0.00    +0.145 HD
ENDBRANCH   8  10
BRANCH   1  16
ATOM     15  C   UNL     1      -0.019   1.526   0.010  0.00  0.00    +0.011 C 
ATOM     16  C   UNL     1       0.002  -0.004   0.002  0.00  0.00    -0.035 C 
ATOM     17  C   UNL     1       0.742  -0.511   1.242  0.00  0.00    +0.011 C 
ATOM     18  C   UNL     1      -1.433  -0.534   0.013  0.00  0.00    +0.011 C 
ENDBRANCH   1  16
BRANCH   7  19
ATOM     19  N   UNL     1       5.691  -1.799  -5.014  0.00  0.00    -0.279 N 
ATOM     20  C   UNL     1       6.741  -0.955  -5.059  0.00  0.00    +0.219 C 
ATOM     21  O   UNL     1       6.773   0.014  -4.330  0.00  0.00    -0.275 OA
ATOM     22  H   UNL     1       5.666  -2.574  -5.597  0.00  0.00    +0.155 HD
BRANCH  20  23
ATOM     23  C   UNL     1       7.877  -1.216  -6.015  0.00  0.00    +0.115 C 
BRANCH  23  24
ATOM     24  C   UNL     1       8.932  -0.118  -5.866  0.00  0.00    +0.125 C 
BRANCH  24  25
ATOM     25  N   UNL     1      10.035  -0.372  -6.795  0.00  0.00    -0.241 N 
ATOM     26  C   UNL     1      11.109  -1.114  -6.473  0.00  0.00    +0.226 C 
ATOM     27  O   UNL     1      11.242  -1.777  -5.466  0.00  0.00    -0.275 OA
ATOM     28  C   UNL     1      12.130  -0.974  -7.600  0.00  0.00    +0.087 C 
ATOM     29  C   UNL     1      13.189   0.014  -7.151  0.00  0.00    +0.013 C 
ATOM     30  C   UNL     1      13.873   0.708  -8.321  0.00  0.00    +0.001 C 
ATOM     31  C   UNL     1      12.808   1.450  -9.136  0.00  0.00    +0.001 C 
ATOM     32  C   UNL     1      11.880   0.415  -9.760  0.00  0.00    +0.013 C 
ATOM     33  C   UNL     1      11.247  -0.515  -8.752  0.00  0.00    +0.087 C 
ATOM     34  C   UNL     1      10.063   0.113  -8.051  0.00  0.00    +0.226 C 
ATOM     35  O   UNL     1       9.284   0.908  -8.531  0.00  0.00    -0.275 OA
ENDBRANCH  24  25
ENDBRANCH  23  24
ENDBRANCH  20  23
ENDBRANCH   7  19
TORSDOF 6
