REMARK  Name = ZINC09824394
REMARK  8 active torsions:
REMARK  status: ('A' for Active; 'I' for Inactive)
REMARK    1  A    between atoms: C_1  and  C_2
REMARK    2  A    between atoms: C_2  and  O_3
REMARK    3  A    between atoms: O_3  and  C_4
REMARK    4  A    between atoms: C_4  and  C_5
REMARK    5  A    between atoms: C_13  and  C_14
REMARK    6  A    between atoms: N_16  and  C_17
REMARK    7  A    between atoms: C_21  and  S_23
REMARK    8  A    between atoms: S_23  and  N_26
REMARK                            x       y       z     vdW  Elec       q    Type
REMARK                         _______ _______ _______ _____ _____    ______ ____
ROOT
ATOM      1  C   UNL     1       1.113   2.129   0.004  0.00  0.00    +0.284 C 
ATOM      2  O   UNL     1       2.194   1.581  -0.101  0.00  0.00    -0.266 OA
ATOM      3  N   UNL     1      -0.017   1.394   0.010  0.00  0.00    -0.279 N 
ATOM      4  H   UNL     1      -0.881   1.834   0.021  0.00  0.00    +0.155 HD
ENDROOT
BRANCH   1  13
ATOM      5  C   UNL     1       2.107   4.430   0.130  0.00  0.00    +0.036 A 
ATOM      6  C   UNL     1       1.562   5.780   0.267  0.00  0.00    +0.026 A 
ATOM      7  C   UNL     1       2.126   7.056   0.336  0.00  0.00    +0.012 A 
ATOM      8  C   UNL     1       1.316   8.148   0.469  0.00  0.00    +0.001 A 
ATOM      9  C   UNL     1      -0.063   7.998   0.535  0.00  0.00    +0.004 A 
ATOM     10  C   UNL     1      -0.639   6.748   0.469  0.00  0.00    +0.047 A 
ATOM     11  C   UNL     1       0.165   5.622   0.334  0.00  0.00    +0.136 A 
ATOM     12  O   UNL     1      -0.101   4.304   0.239  0.00  0.00    -0.450 OA
ATOM     13  C   UNL     1       1.039   3.591   0.124  0.00  0.00    +0.196 A 
BRANCH   5  14
ATOM     14  C   UNL     1       3.561   4.048   0.017  0.00  0.00    +0.199 C 
BRANCH  14  15
ATOM     15  O   UNL     1       3.943   4.033  -1.360  0.00  0.00    -0.375 OA
BRANCH  15  17
ATOM     16  C   UNL     1       5.607   3.696  -3.080  0.00  0.00    +0.034 C 
ATOM     17  C   UNL     1       5.311   3.680  -1.580  0.00  0.00    +0.157 C 
ENDBRANCH  15  17
ENDBRANCH  14  15
ENDBRANCH   5  14
ENDBRANCH   1  13
BRANCH   3  18
ATOM     18  C   UNL     1       0.057  -0.002  -0.007  0.00  0.00    +0.036 A 
ATOM     19  C   UNL     1       1.067  -0.637  -0.718  0.00  0.00    +0.023 A 
ATOM     20  C   UNL     1       1.137  -2.016  -0.732  0.00  0.00    +0.004 A 
ATOM     21  C   UNL     1       0.203  -2.765  -0.039  0.00  0.00    +0.029 A 
ATOM     22  C   UNL     1      -0.803  -2.136   0.670  0.00  0.00    +0.110 A 
ATOM     23  C   UNL     1      -0.876  -0.757   0.692  0.00  0.00    +0.052 A 
BRANCH  22  24
ATOM     24  S   UNL     1      -1.991  -3.094   1.550  0.00  0.00    +0.073 S 
ATOM     25  O   UNL     1      -3.149  -2.283   1.685  0.00  0.00    -0.150 OA
ATOM     26  O   UNL     1      -2.023  -4.372   0.929  0.00  0.00    -0.150 OA
BRANCH  24  27
ATOM     27  N   UNL     1      -1.396  -3.327   3.079  0.00  0.00    -0.205 N 
ATOM     28  C   UNL     1      -1.227  -2.257   3.918  0.00  0.00    +0.088 C 
ATOM     29  C   UNL     1      -1.220  -0.108   4.709  0.00  0.00    +0.114 C 
ATOM     30  C   UNL     1      -0.309  -0.894   5.680  0.00  0.00    +0.028 C 
ATOM     31  C   UNL     1      -0.698  -2.353   5.332  0.00  0.00    +0.072 C 
ATOM     32  H   UNL     1      -1.168  -4.220   3.380  0.00  0.00    +0.175 HD
ATOM     33  N   UNL     1      -1.508  -1.033   3.592  0.00  0.00    -0.375 N 
ATOM     34  H   UNL     1      -1.881  -0.745   2.680  0.00  0.00    +0.161 HD
ENDBRANCH  24  27
ENDBRANCH  22  24
ENDBRANCH   3  18
TORSDOF 7
