REMARK  Name = ZINC08890125
REMARK  6 active torsions:
REMARK  status: ('A' for Active; 'I' for Inactive)
REMARK    1  A    between atoms: C_1  and  O_2
REMARK    2  A    between atoms: O_2  and  C_3
REMARK    3  A    between atoms: C_3  and  C_5
REMARK    4  A    between atoms: C_9  and  N_10
REMARK    5  A    between atoms: C_11  and  C_13
REMARK    6  A    between atoms: C_13  and  N_14
REMARK                            x       y       z     vdW  Elec       q    Type
REMARK                         _______ _______ _______ _____ _____    ______ ____
ROOT
ATOM      1  C   UNL     1      -1.239   2.154   0.020  0.00  0.00    +0.214 C 
ENDROOT
BRANCH   1   2
ATOM      2  N   UNL     1      -0.016   1.347   0.009  0.00  0.00    -0.215 N 
ATOM      3  C   UNL     1       0.002  -0.004   0.002  0.00  0.00    +0.251 C 
ATOM      4  O   UNL     1      -0.951  -0.753   0.007  0.00  0.00    -0.272 OA
ATOM      5  C   UNL     1       1.461  -0.380  -0.014  0.00  0.00    +0.138 C 
ATOM      6  C   UNL     1       1.808  -1.212  -1.255  0.00  0.00    +0.045 C 
ATOM      7  C   UNL     1       2.921  -2.143  -0.723  0.00  0.00    +0.038 C 
ATOM      8  C   UNL     1       2.674  -2.246   0.768  0.00  0.00    -0.042 A 
ATOM      9  C   UNL     1       1.830  -1.225   1.175  0.00  0.00    -0.012 A 
ATOM     10  C   UNL     1       1.468  -1.125   2.508  0.00  0.00    +0.006 A 
ATOM     11  C   UNL     1       1.944  -2.037   3.430  0.00  0.00    +0.000 A 
ATOM     12  C   UNL     1       2.785  -3.054   3.023  0.00  0.00    +0.000 A 
ATOM     13  C   UNL     1       3.148  -3.158   1.694  0.00  0.00    +0.004 A 
ATOM     14  N   UNL     1       2.172   0.899  -0.013  0.00  0.00    -0.281 N 
ATOM     15  C   UNL     1       1.222   1.856   0.000  0.00  0.00    +0.310 C 
ATOM     16  O   UNL     1       1.464   3.048   0.004  0.00  0.00    -0.252 OA
ATOM     17  H   UNL     1       3.132   1.031  -0.022  0.00  0.00    +0.152 HD
ENDBRANCH   1   2
BRANCH   1  19
ATOM     18  N   UNL     1      -2.756   3.152   1.700  0.00  0.00    -0.278 N 
ATOM     19  C   UNL     1      -1.651   2.423   1.444  0.00  0.00    +0.236 C 
ATOM     20  O   UNL     1      -0.989   1.984   2.360  0.00  0.00    -0.274 OA
ATOM     21  H   UNL     1      -3.285   3.503   0.967  0.00  0.00    +0.155 HD
BRANCH  18  26
ATOM     22  C   UNL     1      -4.226   4.118   3.469  0.00  0.00    +0.091 A 
ATOM     23  C   UNL     1      -4.402   4.231   4.917  0.00  0.00    -0.021 A 
ATOM     24  C   UNL     1      -3.466   3.609   5.656  0.00  0.00    -0.004 A 
ATOM     25  S   UNL     1      -2.364   2.878   4.469  0.00  0.00    -0.077 S 
ATOM     26  C   UNL     1      -3.135   3.399   3.010  0.00  0.00    +0.086 A 
ATOM     27  C   UNL     1      -3.716   3.765   7.131  0.00  0.00    +0.043 C 
ATOM     28  C   UNL     1      -5.189   4.217   7.231  0.00  0.00    +0.010 C 
ATOM     29  C   UNL     1      -5.402   4.896   5.863  0.00  0.00    +0.037 C 
BRANCH  22  30
ATOM     30  C   UNL     1      -5.170   4.743   2.539  0.00  0.00    +0.342 C 
ATOM     31  O   UNL     1      -6.141   4.123   2.151  0.00  0.00    -0.245 OA
BRANCH  30  33
ATOM     32  C   UNL     1      -5.937   6.561   1.193  0.00  0.00    +0.280 C 
ATOM     33  O   UNL     1      -4.961   6.006   2.114  0.00  0.00    -0.464 OA
ENDBRANCH  30  33
ENDBRANCH  22  30
ENDBRANCH  18  26
ENDBRANCH   1  19
TORSDOF 5
