REMARK  Name = ZINC20206847
REMARK  8 active torsions:
REMARK  status: ('A' for Active; 'I' for Inactive)
REMARK    1  A    between atoms: C_1  and  C_2
REMARK    2  A    between atoms: C_2  and  S_3
REMARK    3  A    between atoms: S_3  and  C_6
REMARK    4  A    between atoms: C_14  and  C_15
REMARK    5  A    between atoms: C_18  and  O_22
REMARK    6  A    between atoms: O_22  and  C_23
REMARK    7  A    between atoms: C_23  and  C_24
REMARK    8  A    between atoms: C_29  and  C_30
REMARK                            x       y       z     vdW  Elec       q    Type
REMARK                         _______ _______ _______ _____ _____    ______ ____
ROOT
ATOM      1  C   UNL     1      -2.983   2.159   2.978  0.00  0.00    +0.257 C 
ATOM      2  N   UNL     1      -3.552   3.324   2.954  0.00  0.00    -0.174 NA
ATOM      3  S   UNL     1      -4.854   3.126   1.917  0.00  0.00    +0.049 S 
ATOM      4  C   UNL     1      -4.676   1.506   1.565  0.00  0.00    +0.183 C 
ATOM      5  N   UNL     1      -5.423   0.711   0.833  0.00  0.00    -0.152 NA
ATOM      6  C   UNL     1      -5.112  -0.596   0.745  0.00  0.00    +0.273 C 
ATOM      7  O   UNL     1      -5.705  -1.330  -0.029  0.00  0.00    -0.268 OA
ATOM      8  C   UNL     1      -4.028  -1.123   1.612  0.00  0.00    +0.078 C 
ATOM      9  C   UNL     1      -3.973  -2.447   1.983  0.00  0.00    +0.024 C 
ATOM     10  C   UNL     1      -3.002  -0.136   2.058  0.00  0.00    +0.117 C 
ATOM     11  N   UNL     1      -1.751  -0.445   2.265  0.00  0.00    -0.386 N 
ATOM     12  N   UNL     1      -3.517   1.165   2.230  0.00  0.00    -0.203 N 
ATOM     13  H   UNL     1      -1.467  -1.371   2.225  0.00  0.00    +0.157 HD
ATOM     14  H   UNL     1      -1.105   0.253   2.459  0.00  0.00    +0.157 HD
ENDROOT
BRANCH   9  15
ATOM     15  C   UNL     1      -5.105  -3.333   1.706  0.00  0.00    -0.023 A 
ATOM     16  C   UNL     1      -4.881  -4.661   1.315  0.00  0.00    +0.011 A 
ATOM     17  C   UNL     1      -5.939  -5.485   1.058  0.00  0.00    +0.048 A 
ATOM     18  C   UNL     1      -7.241  -5.014   1.181  0.00  0.00    +0.139 A 
ATOM     19  C   UNL     1      -7.477  -3.697   1.567  0.00  0.00    +0.083 A 
ATOM     20  C   UNL     1      -6.418  -2.859   1.836  0.00  0.00    +0.031 A 
ATOM     21 CL   UNL     1      -9.106  -3.116   1.719  0.00  0.00    -0.080 Cl
BRANCH  18  22
ATOM     22  O   UNL     1      -8.287  -5.840   0.922  0.00  0.00    -0.486 OA
BRANCH  22  23
ATOM     23  C   UNL     1      -7.974  -7.178   0.530  0.00  0.00    +0.264 C 
BRANCH  23  24
ATOM     24  C   UNL     1      -9.251  -7.941   0.287  0.00  0.00    -0.007 A 
ATOM     25  C   UNL     1     -10.472  -7.315   0.451  0.00  0.00    +0.007 A 
ATOM     26  C   UNL     1     -11.643  -8.015   0.229  0.00  0.00    +0.000 A 
ATOM     27  C   UNL     1     -11.592  -9.341  -0.159  0.00  0.00    +0.000 A 
ATOM     28  C   UNL     1     -10.371  -9.967  -0.324  0.00  0.00    +0.004 A 
ATOM     29  C   UNL     1      -9.200  -9.266  -0.105  0.00  0.00    -0.044 A 
ATOM     30  C   UNL     1      -7.868  -9.946  -0.290  0.00  0.00    +0.044 C 
ENDBRANCH  23  24
ENDBRANCH  22  23
ENDBRANCH  18  22
ENDBRANCH   9  15
BRANCH   1  31
ATOM     31  S   UNL     1      -1.546   1.877   3.958  0.00  0.00    +0.029 S 
ATOM     32  O   UNL     1      -1.614   0.504   4.315  0.00  0.00    -0.167 OA
ATOM     33  O   UNL     1      -1.585   2.888   4.957  0.00  0.00    -0.167 OA
BRANCH  31  35
ATOM     34  C   UNL     1       1.156   1.803   3.541  0.00  0.00    +0.028 C 
ATOM     35  C   UNL     1      -0.152   2.164   2.834  0.00  0.00    +0.172 C 
ENDBRANCH  31  35
ENDBRANCH   1  31
TORSDOF 6
