REMARK  Name = ZINC54260168
REMARK  11 active torsions:
REMARK  status: ('A' for Active; 'I' for Inactive)
REMARK    1  A    between atoms: C_1  and  C_2
REMARK    2  A    between atoms: C_3  and  C_12
REMARK    3  A    between atoms: C_12  and  C_13
REMARK    4  A    between atoms: C_13  and  C_14
REMARK    5  A    between atoms: N_16  and  C_17
REMARK    6  A    between atoms: C_17  and  C_18
REMARK    7  A    between atoms: C_18  and  C_19
REMARK    8  A    between atoms: C_18  and  C_20
REMARK    9  A    between atoms: C_18  and  N_21
REMARK   10  A    between atoms: C_23  and  C_30
REMARK   11  A    between atoms: C_26  and  C_29
REMARK                            x       y       z     vdW  Elec       q    Type
REMARK                         _______ _______ _______ _____ _____    ______ ____
ROOT
ATOM      1  C   UNL     1      -7.203   0.834  -0.486  0.00  0.00    +0.213 C 
ATOM      2  O   UNL     1      -6.210   1.222   0.091  0.00  0.00    -0.276 OA
ATOM      3  N   UNL     1      -7.362   1.089  -1.800  0.00  0.00    -0.317 N 
ATOM      4  H   UNL     1      -8.157   0.778  -2.262  0.00  0.00    +0.149 HD
ENDROOT
BRANCH   1   5
ATOM      5  C   UNL     1      -8.260   0.066   0.266  0.00  0.00    +0.100 C 
BRANCH   5   6
ATOM      6  C   UNL     1      -7.837  -0.084   1.728  0.00  0.00    +0.051 C 
BRANCH   6   9
ATOM      7  C   UNL     1      -7.592  -2.923   2.083  0.00  0.00    +0.064 C 
ATOM      8  C   UNL     1      -8.780  -2.187   2.649  0.00  0.00    +0.026 A 
ATOM      9  C   UNL     1      -8.894  -0.852   2.480  0.00  0.00    +0.036 A 
ATOM     10  C   UNL     1     -10.019  -0.183   3.020  0.00  0.00    +0.257 A 
ATOM     11  O   UNL     1     -10.143   1.020   2.881  0.00  0.00    -0.267 OA
ATOM     12  N   UNL     1     -10.951  -0.891   3.689  0.00  0.00    -0.275 N 
ATOM     13  H   UNL     1     -11.725  -0.440   4.062  0.00  0.00    +0.173 HD
ATOM     14  C   UNL     1     -10.812  -2.221   3.842  0.00  0.00    +0.327 A 
ATOM     15  O   UNL     1     -11.661  -2.846   4.449  0.00  0.00    -0.247 OA
ATOM     16  N   UNL     1      -9.751  -2.869   3.330  0.00  0.00    -0.311 N 
ATOM     17  H   UNL     1      -9.671  -3.829   3.447  0.00  0.00    +0.170 HD
ENDBRANCH   6   9
ENDBRANCH   5   6
ENDBRANCH   1   5
BRANCH   3  18
ATOM     18  C   UNL     1      -6.335   1.835  -2.531  0.00  0.00    +0.092 C 
BRANCH  18  19
ATOM     19  C   UNL     1      -6.694   1.873  -4.018  0.00  0.00    -0.055 C 
ATOM     20  C   UNL     1      -7.981   2.677  -4.211  0.00  0.00    -0.008 C 
ATOM     21  C   UNL     1      -5.557   2.535  -4.800  0.00  0.00    -0.008 C 
BRANCH  19  22
ATOM     22  N   UNL     1      -6.894   0.503  -4.509  0.00  0.00    +0.384 N 
ATOM     23  C   UNL     1      -5.673  -0.279  -4.283  0.00  0.00    -0.075 C 
ATOM     24  C   UNL     1      -5.903  -1.728  -4.719  0.00  0.00    -0.031 C 
ATOM     25  C   UNL     1      -6.261  -1.757  -6.207  0.00  0.00    +0.003 C 
ATOM     26  C   UNL     1      -7.493  -0.877  -6.443  0.00  0.00    -0.031 C 
ATOM     27  C   UNL     1      -7.204   0.540  -5.943  0.00  0.00    -0.075 C 
ATOM     28  C   UNL     1      -7.814  -0.838  -7.938  0.00  0.00    +0.005 C 
ATOM     29  C   UNL     1      -4.628  -2.541  -4.484  0.00  0.00    +0.005 C 
ATOM     30  H   UNL     1      -7.661   0.077  -4.011  0.00  0.00    -0.081 HD
ENDBRANCH  19  22
ENDBRANCH  18  19
ENDBRANCH   3  18
TORSDOF 6
