REMARK  Name = ZINC20522707
REMARK  7 active torsions:
REMARK  status: ('A' for Active; 'I' for Inactive)
REMARK    1  A    between atoms: C_4  and  C_7
REMARK    2  A    between atoms: C_7  and  N_8
REMARK    3  A    between atoms: N_8  and  C_9
REMARK    4  A    between atoms: C_12  and  C_31
REMARK    5  A    between atoms: C_13  and  C_25
REMARK    6  A    between atoms: N_14  and  C_19
REMARK    7  A    between atoms: C_19  and  C_20
REMARK                            x       y       z     vdW  Elec       q    Type
REMARK                         _______ _______ _______ _____ _____    ______ ____
ROOT
ATOM      1  C   UNL     1       5.527  -1.685   1.298  0.00  0.00    +0.175 C 
ATOM      2  C   UNL     1       6.388  -1.066   2.374  0.00  0.00    +0.037 A 
ATOM      3  C   UNL     1       7.082   0.145   2.394  0.00  0.00    +0.016 A 
ATOM      4  C   UNL     1       7.706   0.232   3.634  0.00  0.00    +0.059 A 
ATOM      5  N   UNL     1       7.394  -0.907   4.345  0.00  0.00    -0.319 N 
ATOM      6  C   UNL     1       6.597  -1.699   3.576  0.00  0.00    +0.120 A 
ATOM      7  N   UNL     1       6.057  -2.926   3.839  0.00  0.00    -0.335 N 
ATOM      8  C   UNL     1       5.499  -3.590   2.862  0.00  0.00    +0.158 C 
ATOM      9  N   UNL     1       5.506  -3.135   1.568  0.00  0.00    -0.317 N 
ATOM     10  H   UNL     1       5.497  -3.765   0.831  0.00  0.00    +0.149 HD
ATOM     11  H   UNL     1       6.087  -3.297   4.735  0.00  0.00    +0.168 HD
ENDROOT
BRANCH   4  12
ATOM     12  C   UNL     1       8.552   1.344   4.104  0.00  0.00    -0.001 A 
ATOM     13  C   UNL     1       9.648   1.762   3.345  0.00  0.00    +0.010 A 
ATOM     14  C   UNL     1      10.435   2.803   3.791  0.00  0.00    +0.001 A 
ATOM     15  C   UNL     1      10.141   3.433   4.988  0.00  0.00    +0.000 A 
ATOM     16  C   UNL     1       9.057   3.025   5.745  0.00  0.00    +0.001 A 
ATOM     17  C   UNL     1       8.258   1.990   5.309  0.00  0.00    +0.010 A 
ENDBRANCH   4  12
BRANCH   3  18
ATOM     18  C   UNL     1       7.142   1.147   1.303  0.00  0.00    -0.015 A 
ATOM     19  C   UNL     1       7.748   0.824   0.090  0.00  0.00    +0.008 A 
ATOM     20  C   UNL     1       7.802   1.761  -0.922  0.00  0.00    +0.001 A 
ATOM     21  C   UNL     1       7.256   3.018  -0.735  0.00  0.00    +0.000 A 
ATOM     22  C   UNL     1       6.653   3.344   0.467  0.00  0.00    +0.001 A 
ATOM     23  C   UNL     1       6.589   2.414   1.484  0.00  0.00    +0.008 A 
ENDBRANCH   3  18
BRANCH   1  24
ATOM     24  N   UNL     1       4.165  -1.138   1.365  0.00  0.00    -0.291 NA
ATOM     25  H   UNL     1       4.130  -0.328   1.964  0.00  0.00    +0.124 HD
BRANCH  24  26
ATOM     26  C   UNL     1       3.658  -0.824   0.023  0.00  0.00    +0.118 C 
BRANCH  26  30
ATOM     27  C   UNL     1      -0.300   0.754   0.328  0.00  0.00    +0.000 A 
ATOM     28  C   UNL     1       0.788   1.605   0.370  0.00  0.00    +0.000 A 
ATOM     29  C   UNL     1       2.069   1.095   0.271  0.00  0.00    +0.005 A 
ATOM     30  C   UNL     1       2.262  -0.267   0.131  0.00  0.00    -0.034 A 
ATOM     31  C   UNL     1       1.173  -1.118   0.090  0.00  0.00    +0.005 A 
ATOM     32  C   UNL     1      -0.108  -0.607   0.187  0.00  0.00    +0.000 A 
ENDBRANCH  26  30
ENDBRANCH  24  26
ENDBRANCH   1  24
BRANCH   5  33
ATOM     33  C   UNL     1       7.845  -1.215   5.704  0.00  0.00    +0.198 C 
BRANCH  33  34
ATOM     34  C   UNL     1       9.133  -1.996   5.641  0.00  0.00    +0.124 A 
ATOM     35  C   UNL     1      10.371  -1.479   5.730  0.00  0.00    +0.046 A 
ATOM     36  C   UNL     1      11.275  -2.560   5.623  0.00  0.00    +0.041 A 
ATOM     37  C   UNL     1      10.535  -3.674   5.474  0.00  0.00    +0.195 A 
ATOM     38  O   UNL     1       9.238  -3.326   5.492  0.00  0.00    -0.466 OA
ENDBRANCH  33  34
ENDBRANCH   5  33
TORSDOF 7
