REMARK  Name = ZINC22066116
REMARK  8 active torsions:
REMARK  status: ('A' for Active; 'I' for Inactive)
REMARK    1  A    between atoms: C_1  and  C_2
REMARK    2  A    between atoms: C_2  and  C_3
REMARK    3  A    between atoms: C_10  and  C_12
REMARK    4  A    between atoms: C_15  and  S_18
REMARK    5  A    between atoms: N_16  and  C_17
REMARK    6  A    between atoms: S_18  and  C_19
REMARK    7  A    between atoms: C_19  and  C_20
REMARK    8  A    between atoms: N_22  and  C_23
REMARK                            x       y       z     vdW  Elec       q    Type
REMARK                         _______ _______ _______ _____ _____    ______ ____
ROOT
ATOM      1  C   UNL     1       6.015   2.846   0.013  0.00  0.00    +0.171 A 
ATOM      2  N   UNL     1       5.102   3.792   0.023  0.00  0.00    -0.128 NA
ATOM      3  N   UNL     1       3.928   3.269   0.017  0.00  0.00    -0.122 NA
ATOM      4  C   UNL     1       4.017   1.959   0.011  0.00  0.00    +0.192 A 
ATOM      5  N   UNL     1       5.347   1.642   0.005  0.00  0.00    -0.305 N 
ATOM      6  C   UNL     1       5.938   0.301  -0.007  0.00  0.00    +0.153 C 
ENDROOT
BRANCH   1  13
ATOM      7  C   UNL     1      11.880   4.868  -0.799  0.00  0.00    -0.007 C 
ATOM      8  C   UNL     1      12.381   3.950   0.320  0.00  0.00    +0.009 C 
ATOM      9  C   UNL     1      11.608   2.624   0.252  0.00  0.00    +0.043 C 
ATOM     10  C   UNL     1      10.152   2.935   0.123  0.00  0.00    -0.006 A 
ATOM     11  C   UNL     1       9.584   4.131  -0.203  0.00  0.00    -0.036 A 
ATOM     12  C   UNL     1       8.196   4.168  -0.262  0.00  0.00    +0.023 A 
ATOM     13  C   UNL     1       7.474   3.038   0.011  0.00  0.00    +0.057 A 
ATOM     14  S   UNL     1       8.767   1.853   0.357  0.00  0.00    -0.090 S 
ATOM     15  C   UNL     1      10.462   5.347  -0.489  0.00  0.00    +0.039 C 
BRANCH   7  17
ATOM     16  C   UNL     1      12.395   6.924  -2.122  0.00  0.00    +0.004 C 
ATOM     17  C   UNL     1      12.810   6.077  -0.917  0.00  0.00    +0.000 C 
ENDBRANCH   7  17
ENDBRANCH   1  13
BRANCH   4  18
ATOM     18  S   UNL     1       2.672   0.821   0.005  0.00  0.00    -0.077 S 
BRANCH  18  19
ATOM     19  C   UNL     1       1.280   1.979   0.018  0.00  0.00    +0.173 C 
BRANCH  19  20
ATOM     20  C   UNL     1      -0.015   1.208   0.015  0.00  0.00    +0.228 C 
ATOM     21  O   UNL     1       0.001  -0.004   0.004  0.00  0.00    -0.275 OA
ATOM     22  N   UNL     1      -1.191   1.867   0.018  0.00  0.00    -0.284 N 
ATOM     23  H   UNL     1      -1.207   2.963   0.102  0.00  0.00    +0.155 HD
BRANCH  22  24
ATOM     24  C   UNL     1      -2.393   1.154  -0.086  0.00  0.00    +0.056 A 
ATOM     25  C   UNL     1      -2.510  -0.099   0.499  0.00  0.00    +0.074 A 
ATOM     26  C   UNL     1      -3.698  -0.803   0.397  0.00  0.00    +0.168 A 
ATOM     27  C   UNL     1      -4.775  -0.251  -0.294  0.00  0.00    +0.168 A 
ATOM     28  C   UNL     1      -4.655   1.000  -0.877  0.00  0.00    +0.071 A 
ATOM     29  C   UNL     1      -3.470   1.704  -0.770  0.00  0.00    +0.066 A 
ATOM     30 CL   UNL     1      -3.325   3.275  -1.496  0.00  0.00    -0.082 Cl
ATOM     31  O   UNL     1      -5.818  -1.132  -0.252  0.00  0.00    -0.453 OA
ATOM     32  C   UNL     1      -5.237  -2.397   0.119  0.00  0.00    +0.466 C 
ATOM     33  O   UNL     1      -4.067  -2.029   0.872  0.00  0.00    -0.453 OA
ENDBRANCH  22  24
ENDBRANCH  19  20
ENDBRANCH  18  19
ENDBRANCH   4  18
TORSDOF 6
