REMARK  Name = ZINC40319234
REMARK  12 active torsions:
REMARK  status: ('A' for Active; 'I' for Inactive)
REMARK    1  A    between atoms: C_1  and  C_2
REMARK    2  A    between atoms: C_2  and  C_4
REMARK    3  A    between atoms: C_7  and  O_10
REMARK    4  A    between atoms: O_10  and  C_11
REMARK    5  A    between atoms: C_11  and  C_12
REMARK    6  A    between atoms: C_12  and  C_14
REMARK    7  A    between atoms: C_12  and  O_37
REMARK    8  A    between atoms: C_14  and  N_15
REMARK    9  A    between atoms: N_15  and  C_16
REMARK   10  A    between atoms: N_15  and  C_29
REMARK   11  A    between atoms: C_16  and  C_17
REMARK   12  A    between atoms: C_20  and  C_22
REMARK                            x       y       z     vdW  Elec       q    Type
REMARK                         _______ _______ _______ _____ _____    ______ ____
ROOT
ATOM      1  N   UNL     1      -7.138  -7.087  -0.420  0.00  0.00    +0.389 N 
ATOM      2  H   UNL     1      -7.524  -7.222  -1.343  0.00  0.00    -0.081 HD
ENDROOT
BRANCH   1   3
ATOM      3  C   UNL     1      -7.901  -6.047   0.282  0.00  0.00    -0.045 C 
ATOM      4  C   UNL     1      -9.402  -6.375   0.224  0.00  0.00    +0.009 C 
ATOM      5  C   UNL     1     -10.229  -5.146   0.671  0.00  0.00    +0.164 C 
ATOM      6  S   UNL     1      -9.136  -3.737   0.217  0.00  0.00    -0.033 S 
ATOM      7  O   UNL     1      -8.764  -3.041   1.399  0.00  0.00    -0.174 OA
ATOM      8  O   UNL     1      -9.727  -3.022  -0.859  0.00  0.00    -0.174 OA
ATOM      9  C   UNL     1      -7.679  -4.673  -0.412  0.00  0.00    +0.151 C 
ENDBRANCH   1   3
BRANCH   1  10
ATOM     10  C   UNL     1      -5.733  -6.671  -0.533  0.00  0.00    -0.043 C 
BRANCH  10  11
ATOM     11  C   UNL     1      -5.381  -6.457  -2.007  0.00  0.00    +0.135 C 
BRANCH  11  12
ATOM     12  O   UNL     1      -5.450  -7.705  -2.699  0.00  0.00    -0.390 OA
ATOM     13  H   UNL     1      -4.846  -8.379  -2.357  0.00  0.00    +0.210 HD
ENDBRANCH  11  12
BRANCH  11  14
ATOM     14  C   UNL     1      -3.964  -5.891  -2.116  0.00  0.00    +0.258 C 
BRANCH  14  15
ATOM     15  O   UNL     1      -3.679  -5.582  -3.481  0.00  0.00    -0.489 OA
BRANCH  15  19
ATOM     16  C   UNL     1       0.045  -4.015  -4.306  0.00  0.00    +0.017 A 
ATOM     17  C   UNL     1      -0.875  -4.223  -5.342  0.00  0.00    +0.015 A 
ATOM     18  C   UNL     1      -2.112  -4.744  -5.062  0.00  0.00    +0.046 A 
ATOM     19  C   UNL     1      -2.453  -5.066  -3.753  0.00  0.00    +0.121 A 
ATOM     20  C   UNL     1      -1.543  -4.862  -2.721  0.00  0.00    +0.046 A 
ATOM     21  C   UNL     1      -0.301  -4.347  -2.991  0.00  0.00    +0.015 A 
BRANCH  16  23
ATOM     22  C   UNL     1       1.742  -3.101  -6.017  0.00  0.00    +0.091 C 
ATOM     23  C   UNL     1       1.372  -3.457  -4.601  0.00  0.00    +0.160 C 
ATOM     24  O   UNL     1       2.169  -3.283  -3.703  0.00  0.00    -0.292 OA
ENDBRANCH  16  23
ENDBRANCH  15  19
ENDBRANCH  14  15
ENDBRANCH  11  14
ENDBRANCH  10  11
ENDBRANCH   1  10
BRANCH   1  25
ATOM     25  C   UNL     1      -7.217  -8.345   0.333  0.00  0.00    -0.003 C 
BRANCH  25  26
ATOM     26  C   UNL     1      -8.637  -8.849   0.322  0.00  0.00    +0.089 A 
ATOM     27  C   UNL     1      -9.319  -9.254  -0.768  0.00  0.00    +0.043 A 
ATOM     28  C   UNL     1     -10.601  -9.642  -0.332  0.00  0.00    +0.050 A 
ATOM     29  C   UNL     1     -10.633  -9.450   1.013  0.00  0.00    +0.135 A 
ATOM     30  O   UNL     1      -9.433  -8.973   1.397  0.00  0.00    -0.462 OA
BRANCH  29  31
ATOM     31  C   UNL     1     -11.782  -9.721   1.902  0.00  0.00    +0.019 A 
ATOM     32  C   UNL     1     -12.972 -10.227   1.374  0.00  0.00    +0.011 A 
ATOM     33  C   UNL     1     -14.041 -10.479   2.208  0.00  0.00    +0.002 A 
ATOM     34  C   UNL     1     -13.938 -10.230   3.565  0.00  0.00    +0.020 A 
ATOM     35  C   UNL     1     -12.761  -9.728   4.096  0.00  0.00    +0.042 A 
ATOM     36  C   UNL     1     -11.681  -9.479   3.272  0.00  0.00    +0.031 A 
ATOM     37 CL   UNL     1     -12.641  -9.419   5.800  0.00  0.00    -0.084 Cl
ENDBRANCH  29  31
ENDBRANCH  25  26
ENDBRANCH   1  25
TORSDOF 11
