REMARK  Name = ZINC35486185
REMARK  12 active torsions:
REMARK  status: ('A' for Active; 'I' for Inactive)
REMARK    1  A    between atoms: C_1  and  C_2
REMARK    2  A    between atoms: C_2  and  N_3
REMARK    3  A    between atoms: N_3  and  C_4
REMARK    4  A    between atoms: N_3  and  C_6
REMARK    5  A    between atoms: C_4  and  C_5
REMARK    6  A    between atoms: C_6  and  C_7
REMARK    7  A    between atoms: C_7  and  N_8
REMARK    8  A    between atoms: C_9  and  C_25
REMARK    9  A    between atoms: C_16  and  C_24
REMARK   10  A    between atoms: C_29  and  O_31
REMARK   11  A    between atoms: O_31  and  C_32
REMARK   12  A    between atoms: C_32  and  C_33
REMARK                            x       y       z     vdW  Elec       q    Type
REMARK                         _______ _______ _______ _____ _____    ______ ____
ROOT
ATOM      1  N   UNL     1       2.330  -3.538  -0.356  0.00  0.00    -0.285 N 
ATOM      2  C   UNL     1       3.511  -4.202   0.220  0.00  0.00    +0.145 C 
ATOM      3  C   UNL     1       3.400  -5.640  -0.170  0.00  0.00    +0.072 A 
ATOM      4  C   UNL     1       4.277  -6.784   0.101  0.00  0.00    +0.199 A 
ATOM      5  O   UNL     1       5.211  -6.740   0.882  0.00  0.00    -0.287 OA
ATOM      6  C   UNL     1       3.918  -8.003  -0.668  0.00  0.00    +0.065 A 
ATOM      7  C   UNL     1       4.766  -9.110  -0.675  0.00  0.00    +0.018 A 
ATOM      8  C   UNL     1       4.424 -10.222  -1.392  0.00  0.00    -0.050 A 
ATOM      9  C   UNL     1       3.237 -10.252  -2.111  0.00  0.00    +0.007 A 
ATOM     10  C   UNL     1       2.387  -9.169  -2.114  0.00  0.00    +0.047 A 
ATOM     11  C   UNL     1       2.712  -8.023  -1.389  0.00  0.00    +0.139 A 
ATOM     12  O   UNL     1       1.858  -6.974  -1.397  0.00  0.00    -0.450 OA
ATOM     13  C   UNL     1       2.255  -5.787  -0.898  0.00  0.00    +0.199 A 
ATOM     14  C   UNL     1       1.601  -4.471  -1.002  0.00  0.00    +0.283 C 
ATOM     15  O   UNL     1       0.557  -4.256  -1.587  0.00  0.00    -0.267 OA
ATOM     16  C   UNL     1       5.338 -11.420  -1.402  0.00  0.00    +0.044 C 
ENDROOT
BRANCH   2  17
ATOM     17  C   UNL     1       3.504  -4.066   1.720  0.00  0.00    -0.019 A 
ATOM     18  C   UNL     1       2.318  -4.196   2.420  0.00  0.00    +0.006 A 
ATOM     19  C   UNL     1       2.308  -4.071   3.797  0.00  0.00    +0.004 A 
ATOM     20  C   UNL     1       3.483  -3.818   4.478  0.00  0.00    +0.045 A 
ATOM     21  C   UNL     1       4.674  -3.688   3.778  0.00  0.00    +0.121 A 
ATOM     22  C   UNL     1       4.682  -3.819   2.397  0.00  0.00    +0.051 A 
BRANCH  21  23
ATOM     23  O   UNL     1       5.831  -3.438   4.445  0.00  0.00    -0.487 OA
BRANCH  23  24
ATOM     24  C   UNL     1       5.749  -3.321   5.867  0.00  0.00    +0.264 C 
BRANCH  24  25
ATOM     25  C   UNL     1       7.120  -3.046   6.429  0.00  0.00    -0.010 A 
ATOM     26  C   UNL     1       7.942  -4.097   6.789  0.00  0.00    +0.007 A 
ATOM     27  C   UNL     1       9.200  -3.845   7.305  0.00  0.00    +0.000 A 
ATOM     28  C   UNL     1       9.635  -2.542   7.460  0.00  0.00    +0.000 A 
ATOM     29  C   UNL     1       8.812  -1.491   7.099  0.00  0.00    +0.000 A 
ATOM     30  C   UNL     1       7.557  -1.744   6.579  0.00  0.00    +0.007 A 
ENDBRANCH  24  25
ENDBRANCH  23  24
ENDBRANCH  21  23
ENDBRANCH   2  17
BRANCH   1  31
ATOM     31  C   UNL     1       2.001  -2.115  -0.242  0.00  0.00    +0.090 C 
BRANCH  31  32
ATOM     32  C   UNL     1       1.153  -1.887   1.011  0.00  0.00    -0.060 C 
BRANCH  32  33
ATOM     33  N   UNL     1       0.823  -0.460   1.126  0.00  0.00    +0.380 N 
ATOM     34  H   UNL     1       1.673   0.084   1.111  0.00  0.00    -0.082 HD
BRANCH  33  36
ATOM     35  C   UNL     1      -0.260   1.449   0.040  0.00  0.00    -0.017 C 
ATOM     36  C   UNL     1      -0.032  -0.063  -0.001  0.00  0.00    -0.082 C 
ENDBRANCH  33  36
BRANCH  33  37
ATOM     37  C   UNL     1       0.111  -0.222   2.389  0.00  0.00    -0.082 C 
ATOM     38  C   UNL     1       1.053  -0.495   3.563  0.00  0.00    -0.017 C 
ENDBRANCH  33  37
ENDBRANCH  32  33
ENDBRANCH  31  32
ENDBRANCH   1  31
TORSDOF 9
