REMARK  Name = ZINC08789098
REMARK  5 active torsions:
REMARK  status: ('A' for Active; 'I' for Inactive)
REMARK    1  A    between atoms: C_1  and  C_2
REMARK    2  A    between atoms: C_7  and  C_8
REMARK    3  A    between atoms: C_7  and  N_54
REMARK    4  A    between atoms: C_9  and  O_31
REMARK    5  A    between atoms: C_18  and  C_19
REMARK                            x       y       z     vdW  Elec       q    Type
REMARK                         _______ _______ _______ _____ _____    ______ ____
ROOT
ATOM      1  C   UNL     1      -1.155   8.493   2.220  0.00  0.00    +0.020 A 
ATOM      2  C   UNL     1      -1.635   7.807   3.323  0.00  0.00    +0.122 A 
ATOM      3  C   UNL     1      -1.607   6.415   3.358  0.00  0.00    +0.046 A 
ATOM      4  C   UNL     1      -1.104   5.708   2.303  0.00  0.00    +0.016 A 
ATOM      5  C   UNL     1      -0.622   6.384   1.181  0.00  0.00    +0.026 A 
ATOM      6  C   UNL     1      -0.642   7.789   1.141  0.00  0.00    +0.144 A 
ATOM      7  O   UNL     1      -0.169   8.440   0.056  0.00  0.00    -0.422 OA
ATOM      8  C   UNL     1       0.333   7.786  -1.003  0.00  0.00    +0.338 A 
ATOM      9  O   UNL     1       0.746   8.426  -1.954  0.00  0.00    -0.245 OA
ATOM     10  C   UNL     1       0.398   6.385  -1.045  0.00  0.00    +0.101 A 
ATOM     11  C   UNL     1      -0.068   5.648   0.031  0.00  0.00    +0.006 A 
ENDROOT
BRANCH  11  12
ATOM     12  C   UNL     1      -0.018   4.174   0.024  0.00  0.00    +0.068 A 
ATOM     13  C   UNL     1       1.196   3.511   0.009  0.00  0.00    +0.027 A 
ATOM     14  C   UNL     1       1.199   2.093   0.002  0.00  0.00    +0.020 A 
ATOM     15  C   UNL     1       2.413   1.391  -0.013  0.00  0.00    +0.031 A 
ATOM     16  C   UNL     1       2.406   0.015  -0.020  0.00  0.00    +0.042 A 
ATOM     17  C   UNL     1       1.203  -0.680  -0.013  0.00  0.00    +0.023 A 
ATOM     18  C   UNL     1       0.002  -0.004   0.002  0.00  0.00    +0.048 A 
ATOM     19  C   UNL     1      -0.017   1.386   0.010  0.00  0.00    +0.139 A 
ATOM     20  O   UNL     1      -1.198   2.042   0.019  0.00  0.00    -0.422 OA
ATOM     21  C   UNL     1      -1.254   3.384   0.031  0.00  0.00    +0.345 A 
ATOM     22  O   UNL     1      -2.334   3.945   0.044  0.00  0.00    -0.245 OA
ATOM     23 CL   UNL     1       3.907  -0.857  -0.038  0.00  0.00    -0.084 Cl
ENDBRANCH  11  12
BRANCH   2  24
ATOM     24  O   UNL     1      -2.138   8.497   4.379  0.00  0.00    -0.506 OA
ATOM     25  H   UNL     1      -3.087   8.671   4.319  0.00  0.00    +0.292 HD
ENDBRANCH   2  24
BRANCH   1  26
ATOM     26  C   UNL     1      -1.190   9.999   2.192  0.00  0.00    -0.036 C 
BRANCH  26  33
ATOM     27  C   UNL     1      -6.360  12.010   0.816  0.00  0.00    +0.007 C 
ATOM     28  C   UNL     1      -5.108  11.604   1.595  0.00  0.00    -0.018 C 
ATOM     29  C   UNL     1      -3.893  12.352   1.038  0.00  0.00    -0.016 C 
ATOM     30  C   UNL     1      -2.635  11.897   1.780  0.00  0.00    -0.078 C 
ATOM     31  C   UNL     1      -3.593   9.707   2.179  0.00  0.00    -0.078 C 
ATOM     32  C   UNL     1      -4.880  10.097   1.449  0.00  0.00    -0.016 C 
ATOM     33  N   UNL     1      -2.459  10.443   1.580  0.00  0.00    +0.383 N 
ATOM     34  H   UNL     1      -2.430  10.247   0.573  0.00  0.00    -0.081 HD
ENDBRANCH  26  33
ENDBRANCH   1  26
TORSDOF 4
