REMARK  Name = ZINC22380003
REMARK  4 active torsions:
REMARK  status: ('A' for Active; 'I' for Inactive)
REMARK    1  A    between atoms: C_11  and  C_30
REMARK    2  A    between atoms: C_14  and  C_16
REMARK    3  A    between atoms: C_16  and  N_17
REMARK    4  A    between atoms: C_21  and  C_22
REMARK                            x       y       z     vdW  Elec       q    Type
REMARK                         _______ _______ _______ _____ _____    ______ ____
ROOT
ATOM      1  C   UNL     1      -0.013   1.076   0.008  0.00  0.00    +0.002 A 
ATOM      2  C   UNL     1       1.177   1.781   0.000  0.00  0.00    +0.002 A 
ATOM      3  C   UNL     1       1.168   3.164  -0.002  0.00  0.00    +0.025 A 
ATOM      4  C   UNL     1      -0.038   3.845   0.004  0.00  0.00    +0.058 A 
ATOM      5  C   UNL     1      -1.238   3.133   0.030  0.00  0.00    +0.055 A 
ATOM      6  C   UNL     1      -1.221   1.748   0.017  0.00  0.00    +0.025 A 
ATOM      7  N   UNL     1      -2.449   3.835   0.074  0.00  0.00    -0.284 N 
ATOM      8  C   UNL     1      -2.686   4.845  -0.790  0.00  0.00    +0.219 C 
ATOM      9  O   UNL     1      -3.701   5.500  -0.688  0.00  0.00    -0.275 OA
ATOM     10  C   UNL     1      -1.696   5.164  -1.880  0.00  0.00    +0.128 C 
ATOM     11  C   UNL     1      -0.486   5.893  -1.295  0.00  0.00    +0.194 C 
ATOM     12  N   UNL     1      -0.069   5.245  -0.051  0.00  0.00    -0.256 N 
ATOM     13  C   UNL     1       0.280   5.982   1.023  0.00  0.00    +0.238 C 
ATOM     14  O   UNL     1       0.249   7.193   0.963  0.00  0.00    -0.273 OA
ATOM     15  H   UNL     1      -3.214   3.565   0.817  0.00  0.00    +0.155 HD
ENDROOT
BRANCH  11  16
ATOM     16  C   UNL     1       0.666   5.853  -2.301  0.00  0.00    +0.409 C 
ATOM     17  F   UNL     1       0.272   6.479  -3.487  0.00  0.00    -0.169 F 
ATOM     18  F   UNL     1       1.775   6.519  -1.767  0.00  0.00    -0.169 F 
ATOM     19  F   UNL     1       1.006   4.522  -2.567  0.00  0.00    -0.169 F 
ENDBRANCH  11  16
BRANCH  13  20
ATOM     20  C   UNL     1       0.707   5.300   2.297  0.00  0.00    +0.213 C 
BRANCH  20  21
ATOM     21  N   UNL     1       1.032   6.312   3.306  0.00  0.00    -0.219 N 
ATOM     22  C   UNL     1       0.084   6.752   4.115  0.00  0.00    +0.261 C 
ATOM     23  O   UNL     1      -1.056   6.330   4.035  0.00  0.00    -0.269 OA
ATOM     24  C   UNL     1       0.435   7.737   5.087  0.00  0.00    +0.080 C 
ATOM     25  C   UNL     1      -0.343   8.345   6.026  0.00  0.00    +0.035 C 
ATOM     26  S   UNL     1       2.175   7.954   4.737  0.00  0.00    -0.026 S 
ATOM     27  C   UNL     1       2.297   6.777   3.400  0.00  0.00    +0.286 C 
ATOM     28  O   UNL     1       3.272   6.472   2.739  0.00  0.00    -0.262 OA
BRANCH  25  29
ATOM     29  C   UNL     1       0.221   9.305   6.898  0.00  0.00    +0.013 A 
ATOM     30  C   UNL     1      -0.391  10.038   7.909  0.00  0.00    +0.015 A 
ATOM     31  C   UNL     1       0.402  10.909   8.614  0.00  0.00    +0.008 A 
ATOM     32  C   UNL     1       1.717  11.021   8.290  0.00  0.00    +0.046 A 
ATOM     33  S   UNL     1       1.901   9.898   6.982  0.00  0.00    -0.097 S 
ENDBRANCH  25  29
ENDBRANCH  20  21
ENDBRANCH  13  20
TORSDOF 4
