REMARK  Name = ZINC36690313
REMARK  11 active torsions:
REMARK  status: ('A' for Active; 'I' for Inactive)
REMARK    1  A    between atoms: C_1  and  C_2
REMARK    2  A    between atoms: N_5  and  S_11
REMARK    3  A    between atoms: C_7  and  C_10
REMARK    4  A    between atoms: S_11  and  C_14
REMARK    5  A    between atoms: C_17  and  C_20
REMARK    6  A    between atoms: N_22  and  C_23
REMARK    7  A    between atoms: C_23  and  C_24
REMARK    8  A    between atoms: C_24  and  C_25
REMARK    9  A    between atoms: C_25  and  N_26
REMARK   10  A    between atoms: N_26  and  C_27
REMARK   11  A    between atoms: N_26  and  C_28
REMARK                            x       y       z     vdW  Elec       q    Type
REMARK                         _______ _______ _______ _____ _____    ______ ____
ROOT
ATOM      1  C   UNL     1       2.234   6.475  -1.360  0.00  0.00    +0.252 C 
ATOM      2  O   UNL     1       1.320   7.054  -1.914  0.00  0.00    -0.270 OA
ATOM      3  N   UNL     1       3.131   7.171  -0.633  0.00  0.00    -0.246 N 
ATOM      4  C   UNL     1       2.938   8.523  -0.408  0.00  0.00    +0.168 A 
ATOM      5  N   UNL     1       3.637   9.340   0.346  0.00  0.00    -0.224 NA
ATOM      6  C   UNL     1       3.333  10.649   0.474  0.00  0.00    +0.080 A 
ATOM      7  C   UNL     1       3.998  11.629   1.247  0.00  0.00    +0.029 A 
ATOM      8  C   UNL     1       3.554  12.925   1.267  0.00  0.00    +0.002 A 
ATOM      9  C   UNL     1       2.444  13.323   0.535  0.00  0.00    +0.001 A 
ATOM     10  C   UNL     1       1.770  12.391  -0.232  0.00  0.00    +0.017 A 
ATOM     11  C   UNL     1       2.207  11.091  -0.258  0.00  0.00    +0.041 A 
ATOM     12  S   UNL     1       1.680   9.603  -1.074  0.00  0.00    -0.052 S 
ENDROOT
BRANCH   1  16
ATOM     13  C   UNL     1       2.603   2.259  -1.716  0.00  0.00    +0.106 A 
ATOM     14  C   UNL     1       1.368   2.822  -1.450  0.00  0.00    +0.029 A 
ATOM     15  C   UNL     1       1.241   4.191  -1.333  0.00  0.00    +0.015 A 
ATOM     16  C   UNL     1       2.363   5.008  -1.484  0.00  0.00    +0.037 A 
ATOM     17  C   UNL     1       3.606   4.433  -1.753  0.00  0.00    +0.015 A 
ATOM     18  C   UNL     1       3.720   3.062  -1.861  0.00  0.00    +0.029 A 
BRANCH  13  19
ATOM     19  S   UNL     1       2.756   0.510  -1.864  0.00  0.00    +0.061 S 
ATOM     20  O   UNL     1       3.915   0.268  -2.650  0.00  0.00    -0.153 OA
ATOM     21  O   UNL     1       1.473   0.019  -2.228  0.00  0.00    -0.153 OA
BRANCH  19  25
ATOM     22  C   UNL     1       2.031   1.707   1.767  0.00  0.00    +0.039 C 
ATOM     23  C   UNL     1       2.216   0.195   1.911  0.00  0.00    +0.131 C 
ATOM     24  C   UNL     1       1.988  -0.481   0.554  0.00  0.00    +0.140 C 
ATOM     25  N   UNL     1       3.078  -0.083  -0.351  0.00  0.00    -0.172 NA
ATOM     26  C   UNL     1       4.462  -0.229   0.127  0.00  0.00    +0.140 C 
ATOM     27  C   UNL     1       4.570   0.434   1.505  0.00  0.00    +0.131 C 
ATOM     28  O   UNL     1       3.545  -0.083   2.359  0.00  0.00    -0.371 OA
ATOM     29  C   UNL     1       5.942   0.133   2.111  0.00  0.00    +0.039 C 
ENDBRANCH  19  25
ENDBRANCH  13  19
ENDBRANCH   1  16
BRANCH   3  30
ATOM     30  C   UNL     1       4.309   6.497  -0.082  0.00  0.00    +0.114 C 
BRANCH  30  31
ATOM     31  C   UNL     1       5.514   6.752  -0.990  0.00  0.00    +0.001 C 
BRANCH  31  32
ATOM     32  C   UNL     1       6.705   5.925  -0.501  0.00  0.00    -0.078 C 
BRANCH  32  33
ATOM     33  N   UNL     1       7.862   6.170  -1.373  0.00  0.00    +0.376 N 
ATOM     34  C   UNL     1       9.036   5.470  -0.835  0.00  0.00    -0.097 C 
ATOM     35  C   UNL     1       7.571   5.672  -2.724  0.00  0.00    -0.097 C 
ATOM     36  H   UNL     1       8.049   7.160  -1.413  0.00  0.00    -0.083 HD
ENDBRANCH  32  33
ENDBRANCH  31  32
ENDBRANCH  30  31
ENDBRANCH   3  30
TORSDOF 7
