REMARK  Name = ZINC16577952
REMARK  8 active torsions:
REMARK  status: ('A' for Active; 'I' for Inactive)
REMARK    1  A    between atoms: C_1  and  C_2
REMARK    2  A    between atoms: C_2  and  C_38
REMARK    3  A    between atoms: C_6  and  C_28
REMARK    4  A    between atoms: N_8  and  C_16
REMARK    5  A    between atoms: C_16  and  C_17
REMARK    6  A    between atoms: N_19  and  C_20
REMARK    7  A    between atoms: C_20  and  C_21
REMARK    8  A    between atoms: C_21  and  C_22
REMARK                            x       y       z     vdW  Elec       q    Type
REMARK                         _______ _______ _______ _____ _____    ______ ____
ROOT
ATOM      1  C   UNL     1      -0.529   1.418  -0.584  0.00  0.00    +0.011 C 
ATOM      2  C   UNL     1      -0.380  -0.098  -0.437  0.00  0.00    -0.023 C 
ATOM      3  C   UNL     1      -1.756  -0.740  -0.266  0.00  0.00    +0.058 C 
ATOM      4  C   UNL     1      -1.609  -2.243  -0.104  0.00  0.00    +0.017 C 
ATOM      5  C   UNL     1      -0.528  -2.761   0.505  0.00  0.00    +0.032 C 
ATOM      6  C   UNL     1      -0.259  -4.228   0.734  0.00  0.00    +0.113 C 
ATOM      7  N   UNL     1      -1.389  -5.095   0.477  0.00  0.00    -0.312 N 
ATOM      8  C   UNL     1      -1.919  -5.222  -0.806  0.00  0.00    +0.052 A 
ATOM      9  C   UNL     1      -1.867  -6.423  -1.496  0.00  0.00    +0.025 A 
ATOM     10  C   UNL     1      -2.364  -6.488  -2.785  0.00  0.00    +0.002 A 
ATOM     11  C   UNL     1      -2.906  -5.366  -3.385  0.00  0.00    +0.002 A 
ATOM     12  C   UNL     1      -2.976  -4.169  -2.692  0.00  0.00    +0.025 A 
ATOM     13  C   UNL     1      -2.499  -4.109  -1.395  0.00  0.00    +0.052 A 
ATOM     14  N   UNL     1      -2.639  -2.973  -0.604  0.00  0.00    -0.316 N 
ATOM     15  C   UNL     1       0.494  -1.908   0.985  0.00  0.00    +0.163 C 
ATOM     16  O   UNL     1       1.448  -2.401   1.555  0.00  0.00    -0.292 OA
ATOM     17  C   UNL     1       0.443  -0.420   0.816  0.00  0.00    +0.086 C 
ATOM     18  C   UNL     1       0.312  -0.673  -1.674  0.00  0.00    +0.011 C 
ATOM     19  H   UNL     1      -3.539  -2.680  -0.395  0.00  0.00    +0.152 HD
ENDROOT
BRANCH   6  20
ATOM     20  C   UNL     1       0.893  -4.657  -0.178  0.00  0.00    +0.018 C 
ATOM     21  C   UNL     1       0.528  -4.372  -1.640  0.00  0.00    +0.010 C 
ATOM     22  C   UNL     1       1.758  -4.642  -2.508  0.00  0.00    +0.027 C 
ATOM     23  C   UNL     1       2.341  -5.984  -2.176  0.00  0.00    -0.031 C 
ATOM     24  C   UNL     1       2.074  -6.643  -1.093  0.00  0.00    -0.031 C 
ATOM     25  C   UNL     1       1.141  -6.159  -0.021  0.00  0.00    +0.032 C 
ENDBRANCH   6  20
BRANCH   7  26
ATOM     26  C   UNL     1      -1.986  -5.849   1.582  0.00  0.00    +0.201 C 
BRANCH  26  27
ATOM     27  C   UNL     1      -3.076  -5.028   2.220  0.00  0.00    +0.230 C 
ATOM     28  O   UNL     1      -3.330  -3.921   1.794  0.00  0.00    -0.274 OA
ATOM     29  N   UNL     1      -3.769  -5.523   3.265  0.00  0.00    -0.314 N 
ATOM     30  H   UNL     1      -3.566  -6.408   3.606  0.00  0.00    +0.149 HD
BRANCH  29  31
ATOM     31  C   UNL     1      -4.830  -4.724   3.885  0.00  0.00    +0.110 C 
BRANCH  31  32
ATOM     32  C   UNL     1      -5.452  -5.512   5.039  0.00  0.00    +0.073 C 
BRANCH  32  33
ATOM     33  C   UNL     1      -6.543  -4.691   5.677  0.00  0.00    +0.035 A 
ATOM     34  H   UNL     1      -9.403  -3.513   6.085  0.00  0.00    +0.166 HD
ATOM     35  C   UNL     1      -7.824  -4.620   5.266  0.00  0.00    +0.105 A 
ATOM     36  N   UNL     1      -8.467  -3.767   6.122  0.00  0.00    -0.352 N 
ATOM     37  C   UNL     1      -7.558  -3.347   7.027  0.00  0.00    +0.171 A 
ATOM     38  N   UNL     1      -6.410  -3.907   6.758  0.00  0.00    -0.350 N 
ATOM     39  H   UNL     1      -5.590  -3.776   7.259  0.00  0.00    +0.166 HD
ENDBRANCH  32  33
ENDBRANCH  31  32
ENDBRANCH  29  31
ENDBRANCH  26  27
ENDBRANCH   7  26
TORSDOF 6
