REMARK  Name = ZINC30631273
REMARK  10 active torsions:
REMARK  status: ('A' for Active; 'I' for Inactive)
REMARK    1  A    between atoms: C_1  and  C_2
REMARK    2  A    between atoms: C_2  and  C_3
REMARK    3  A    between atoms: C_2  and  C_4
REMARK    4  A    between atoms: C_4  and  C_6
REMARK    5  A    between atoms: C_4  and  S_17
REMARK    6  A    between atoms: N_8  and  C_9
REMARK    7  A    between atoms: C_13  and  C_15
REMARK    8  A    between atoms: S_17  and  C_18
REMARK    9  A    between atoms: C_21  and  C_26
REMARK   10  A    between atoms: N_22  and  C_23
REMARK                            x       y       z     vdW  Elec       q    Type
REMARK                         _______ _______ _______ _____ _____    ______ ____
ROOT
ATOM      1  C   UNL     1       0.202   6.726  -3.023  0.00  0.00    +0.143 C 
ENDROOT
BRANCH   1   2
ATOM      2  C   UNL     1       0.086   7.752  -4.121  0.00  0.00    +0.231 C 
ATOM      3  O   UNL     1      -0.721   7.596  -5.013  0.00  0.00    -0.274 OA
ATOM      4  N   UNL     1       0.880   8.841  -4.113  0.00  0.00    -0.285 N 
ATOM      5  H   UNL     1       1.692   8.925  -3.375  0.00  0.00    +0.155 HD
BRANCH   4   6
ATOM      6  C   UNL     1       0.672   9.865  -5.043  0.00  0.00    +0.035 A 
ATOM      7  C   UNL     1      -0.612  10.137  -5.502  0.00  0.00    +0.023 A 
ATOM      8  C   UNL     1      -0.823  11.148  -6.420  0.00  0.00    +0.003 A 
ATOM      9  C   UNL     1       0.239  11.895  -6.888  0.00  0.00    +0.019 A 
ATOM     10  C   UNL     1       1.532  11.630  -6.434  0.00  0.00    +0.054 A 
ATOM     11  C   UNL     1       1.745  10.613  -5.503  0.00  0.00    +0.042 A 
BRANCH  10  12
ATOM     12  C   UNL     1       2.636  12.403  -6.918  0.00  0.00    +0.099 C 
ATOM     13  N   UNL     1       3.512  13.017  -7.301  0.00  0.00    -0.191 NA
ENDBRANCH  10  12
ENDBRANCH   4   6
ENDBRANCH   1   2
BRANCH   1  15
ATOM     14  C   UNL     1      -0.506   6.136  -0.701  0.00  0.00    +0.009 C 
ATOM     15  C   UNL     1      -0.652   7.159  -1.829  0.00  0.00    +0.005 C 
ATOM     16  C   UNL     1      -0.185   8.531  -1.339  0.00  0.00    +0.009 C 
ENDBRANCH   1  15
BRANCH   1  17
ATOM     17  S   UNL     1      -0.378   5.123  -3.630  0.00  0.00    -0.073 S 
BRANCH  17  18
ATOM     18  C   UNL     1       0.863   4.785  -4.835  0.00  0.00    +0.193 A 
ATOM     19  N   UNL     1       1.930   5.510  -5.081  0.00  0.00    -0.122 NA
ATOM     20  N   UNL     1       2.620   4.966  -6.020  0.00  0.00    -0.133 NA
ATOM     21  C   UNL     1       2.034   3.877  -6.432  0.00  0.00    +0.137 A 
ATOM     22  N   UNL     1       0.896   3.721  -5.690  0.00  0.00    -0.303 N 
BRANCH  22  23
ATOM     23  C   UNL     1      -0.083   2.636  -5.791  0.00  0.00    +0.091 C 
ATOM     24  C   UNL     1      -1.448   2.853  -5.133  0.00  0.00    +0.027 C 
ATOM     25  C   UNL     1      -0.441   1.886  -4.507  0.00  0.00    +0.027 C 
ENDBRANCH  22  23
BRANCH  21  26
ATOM     26  C   UNL     1       2.524   2.958  -7.521  0.00  0.00    +0.057 C 
ATOM     27  C   UNL     1       2.689   3.547  -8.923  0.00  0.00    +0.012 C 
ATOM     28  C   UNL     1       3.924   3.212  -8.085  0.00  0.00    +0.012 C 
ENDBRANCH  21  26
ENDBRANCH  17  18
ENDBRANCH   1  17
TORSDOF 8
