REMARK  Name = ZINC17114440
REMARK  4 active torsions:
REMARK  status: ('A' for Active; 'I' for Inactive)
REMARK    1  A    between atoms: C_4  and  O_7
REMARK    2  A    between atoms: O_7  and  C_8
REMARK    3  A    between atoms: C_11  and  C_14
REMARK    4  A    between atoms: N_16  and  N_17
REMARK                            x       y       z     vdW  Elec       q    Type
REMARK                         _______ _______ _______ _____ _____    ______ ____
ROOT
ATOM      1  C   UNL     1       0.046  -0.080  -0.040  0.00  0.00    +0.261 C 
ATOM      2  O   UNL     1       1.096  -0.688  -0.113  0.00  0.00    -0.269 OA
ATOM      3  N   UNL     1       0.050   1.267   0.022  0.00  0.00    -0.220 N 
ATOM      4  H   UNL     1      -0.787   1.752   0.076  0.00  0.00    +0.174 HD
ENDROOT
BRANCH   3   5
ATOM      5  N   UNL     1       1.265   1.965   0.004  0.00  0.00    -0.137 N 
ATOM      6  C   UNL     1       1.734   2.643  -1.064  0.00  0.00    +0.263 C 
ATOM      7  O   UNL     1       1.205   2.760  -2.148  0.00  0.00    -0.271 OA
ATOM      8  C   UNL     1       3.057   3.226  -0.623  0.00  0.00    +0.114 C 
ATOM      9  C   UNL     1       3.014   4.748  -0.687  0.00  0.00    +0.035 C 
ATOM     10  C   UNL     1       4.352   5.320  -0.210  0.00  0.00    +0.003 C 
ATOM     11  C   UNL     1       5.478   4.786  -1.098  0.00  0.00    +0.000 C 
ATOM     12  C   UNL     1       5.524   3.260  -1.004  0.00  0.00    +0.003 C 
ATOM     13  C   UNL     1       4.191   2.680  -1.483  0.00  0.00    +0.035 C 
ATOM     14  N   UNL     1       3.201   2.772   0.767  0.00  0.00    -0.284 N 
ATOM     15  C   UNL     1       2.102   2.046   1.046  0.00  0.00    +0.326 C 
ATOM     16  O   UNL     1       1.894   1.521   2.123  0.00  0.00    -0.251 OA
ATOM     17  H   UNL     1       3.940   2.962   1.366  0.00  0.00    +0.151 HD
ENDBRANCH   3   5
BRANCH   1  21
ATOM     18  C   UNL     1      -3.636  -2.196   0.016  0.00  0.00    +0.128 A 
ATOM     19  C   UNL     1      -2.436  -2.893  -0.067  0.00  0.00    +0.047 A 
ATOM     20  C   UNL     1      -1.240  -2.211  -0.086  0.00  0.00    +0.017 A 
ATOM     21  C   UNL     1      -1.234  -0.815  -0.021  0.00  0.00    +0.038 A 
ATOM     22  C   UNL     1      -2.441  -0.117   0.068  0.00  0.00    +0.017 A 
ATOM     23  C   UNL     1      -3.633  -0.807   0.080  0.00  0.00    +0.047 A 
BRANCH  18  24
ATOM     24  O   UNL     1      -4.812  -2.872   0.034  0.00  0.00    -0.456 OA
BRANCH  24  28
ATOM     25  C   UNL     1      -5.655  -5.203   3.331  0.00  0.00    +0.000 A 
ATOM     26  C   UNL     1      -6.498  -5.228   2.235  0.00  0.00    +0.004 A 
ATOM     27  C   UNL     1      -6.218  -4.447   1.130  0.00  0.00    +0.046 A 
ATOM     28  C   UNL     1      -5.090  -3.640   1.120  0.00  0.00    +0.128 A 
ATOM     29  C   UNL     1      -4.243  -3.622   2.219  0.00  0.00    +0.046 A 
ATOM     30  C   UNL     1      -4.530  -4.399   3.324  0.00  0.00    +0.004 A 
ENDBRANCH  24  28
ENDBRANCH  18  24
ENDBRANCH   1  21
TORSDOF 4
