REMARK  Name = ZINC39659029
REMARK  12 active torsions:
REMARK  status: ('A' for Active; 'I' for Inactive)
REMARK    1  A    between atoms: C_1  and  C_2
REMARK    2  A    between atoms: C_6  and  C_8
REMARK    3  A    between atoms: N_10  and  C_11
REMARK    4  A    between atoms: C_11  and  C_13
REMARK    5  A    between atoms: C_11  and  C_16
REMARK    6  A    between atoms: C_13  and  C_14
REMARK    7  A    between atoms: C_13  and  C_15
REMARK    8  A    between atoms: C_16  and  O_18
REMARK    9  A    between atoms: O_18  and  C_19
REMARK   10  A    between atoms: C_19  and  C_20
REMARK   11  A    between atoms: C_22  and  O_23
REMARK   12  A    between atoms: C_32  and  C_34
REMARK                            x       y       z     vdW  Elec       q    Type
REMARK                         _______ _______ _______ _____ _____    ______ ____
ROOT
ATOM      1  O   UNL     1      -0.465  -6.969   5.239  0.00  0.00    -0.459 OA
ENDROOT
BRANCH   1   2
ATOM      2  C   UNL     1      -0.063  -5.974   4.433  0.00  0.00    +0.328 C 
ATOM      3  O   UNL     1      -0.025  -6.144   3.237  0.00  0.00    -0.249 OA
BRANCH   2   4
ATOM      4  C   UNL     1       0.342  -4.646   5.018  0.00  0.00    +0.185 C 
BRANCH   4   7
ATOM      5  C   UNL     1       0.444  -2.363   4.171  0.00  0.00    +0.245 C 
ATOM      6  O   UNL     1       0.140  -1.969   5.280  0.00  0.00    -0.270 OA
ATOM      7  N   UNL     1       0.570  -3.684   3.936  0.00  0.00    -0.298 N 
ATOM      8  H   UNL     1       0.812  -3.999   3.051  0.00  0.00    +0.150 HD
BRANCH   5  14
ATOM      9  C   UNL     1       0.619   2.354   2.553  0.00  0.00    +0.044 C 
ATOM     10  C   UNL     1       0.759   0.875   2.296  0.00  0.00    -0.050 A 
ATOM     11  C   UNL     1       1.104   0.424   1.034  0.00  0.00    +0.003 A 
ATOM     12  C   UNL     1       1.235  -0.932   0.790  0.00  0.00    +0.001 A 
ATOM     13  C   UNL     1       1.022  -1.842   1.804  0.00  0.00    +0.013 A 
ATOM     14  C   UNL     1       0.674  -1.393   3.079  0.00  0.00    +0.037 A 
ATOM     15  C   UNL     1       0.548  -0.024   3.320  0.00  0.00    +0.016 A 
ENDBRANCH   5  14
ENDBRANCH   4   7
BRANCH   4  16
ATOM     16  C   UNL     1       1.628  -4.816   5.829  0.00  0.00    +0.014 C 
ATOM     17  C   UNL     1       1.353  -5.711   7.039  0.00  0.00    +0.009 C 
ATOM     18  C   UNL     1       2.702  -5.461   4.951  0.00  0.00    +0.009 C 
ENDBRANCH   4  16
ENDBRANCH   2   4
ENDBRANCH   1   2
BRANCH   1  19
ATOM     19  C   UNL     1      -0.940  -8.162   4.612  0.00  0.00    +0.268 C 
BRANCH  19  20
ATOM     20  C   UNL     1      -1.458  -9.110   5.662  0.00  0.00    +0.007 A 
ATOM     21  C   UNL     1      -2.553  -8.778   6.434  0.00  0.00    +0.095 A 
ATOM     22  C   UNL     1      -3.016  -9.664   7.396  0.00  0.00    +0.285 A 
ATOM     23  O   UNL     1      -2.422 -10.845   7.598  0.00  0.00    -0.425 OA
ATOM     24  C   UNL     1      -1.349 -11.220   6.872  0.00  0.00    +0.141 A 
ATOM     25  C   UNL     1      -0.838 -10.359   5.874  0.00  0.00    +0.024 A 
ATOM     26  C   UNL     1       0.278 -10.749   5.112  0.00  0.00    +0.014 A 
ATOM     27  C   UNL     1       0.861 -11.956   5.332  0.00  0.00    +0.024 A 
ATOM     28  C   UNL     1       0.356 -12.821   6.318  0.00  0.00    +0.037 A 
ATOM     29  C   UNL     1      -0.743 -12.444   7.091  0.00  0.00    +0.070 A 
ATOM     30  N   UNL     1       0.950 -14.028   6.529  0.00  0.00    -0.286 N 
ATOM     31  C   UNL     1       0.320 -14.962   7.214  0.00  0.00    +0.214 C 
ATOM     32  O   UNL     1      -0.839 -14.794   7.550  0.00  0.00    -0.276 OA
ATOM     33  C   UNL     1       1.033 -16.238   7.581  0.00  0.00    +0.109 C 
ATOM     34  H   UNL     1       1.836 -14.201   6.174  0.00  0.00    +0.155 HD
BRANCH  22  35
ATOM     35  O   UNL     1      -4.085  -9.327   8.142  0.00  0.00    -0.480 OA
ATOM     36  H   UNL     1      -4.342 -10.000   8.788  0.00  0.00    +0.295 HD
ENDBRANCH  22  35
ENDBRANCH  19  20
ENDBRANCH   1  19
TORSDOF 8
