REMARK  Name = ZINC34835389
REMARK  14 active torsions:
REMARK  status: ('A' for Active; 'I' for Inactive)
REMARK    1  A    between atoms: C_1  and  C_2
REMARK    2  A    between atoms: C_2  and  C_3
REMARK    3  A    between atoms: C_3  and  N_4
REMARK    4  A    between atoms: N_4  and  C_5
REMARK    5  A    between atoms: C_5  and  C_6
REMARK    6  A    between atoms: C_7  and  C_27
REMARK    7  A    between atoms: N_9  and  C_20
REMARK    8  A    between atoms: C_10  and  N_11
REMARK    9  A    between atoms: N_14  and  C_17
REMARK   10  A    between atoms: C_17  and  C_18
REMARK   11  A    between atoms: C_17  and  C_19
REMARK   12  A    between atoms: C_27  and  C_28
REMARK   13  A    between atoms: C_29  and  C_31
REMARK   14  A    between atoms: C_34  and  N_37
REMARK                            x       y       z     vdW  Elec       q    Type
REMARK                         _______ _______ _______ _____ _____    ______ ____
ROOT
ATOM      1  C   UNL     1      -3.015  -2.981   2.548  0.00  0.00    +0.033 A 
ATOM      2  C   UNL     1      -3.530  -1.737   2.925  0.00  0.00    +0.070 A 
ATOM      3  N   UNL     1      -4.759  -1.646   2.485  0.00  0.00    -0.169 NA
ATOM      4  N   UNL     1      -5.076  -2.831   1.809  0.00  0.00    -0.218 N 
ATOM      5  C   UNL     1      -3.984  -3.641   1.854  0.00  0.00    +0.130 A 
ENDROOT
BRANCH   5   6
ATOM      6  N   UNL     1      -3.877  -4.911   1.296  0.00  0.00    -0.318 N 
ATOM      7  C   UNL     1      -4.641  -6.044   1.842  0.00  0.00    +0.088 C 
ATOM      8  C   UNL     1      -5.368  -6.741   0.687  0.00  0.00    -0.059 C 
ATOM      9  N   UNL     1      -4.396  -7.109  -0.350  0.00  0.00    +0.383 N 
ATOM     10  C   UNL     1      -3.801  -5.899  -0.931  0.00  0.00    -0.059 C 
ATOM     11  C   UNL     1      -3.001  -5.159   0.140  0.00  0.00    +0.088 C 
ATOM     12  H   UNL     1      -3.668  -7.677   0.059  0.00  0.00    -0.081 HD
BRANCH   9  13
ATOM     13  C   UNL     1      -5.074  -7.874  -1.405  0.00  0.00    -0.075 C 
ATOM     14  C   UNL     1      -4.063  -8.259  -2.487  0.00  0.00    -0.014 C 
ATOM     15  C   UNL     1      -5.685  -9.142  -0.804  0.00  0.00    -0.014 C 
ENDBRANCH   9  13
ENDBRANCH   5   6
BRANCH   4  16
ATOM     16  C   UNL     1      -6.300  -3.127   1.190  0.00  0.00    +0.068 A 
ATOM     17  C   UNL     1      -6.318  -3.732  -0.059  0.00  0.00    +0.030 A 
ATOM     18  C   UNL     1      -7.524  -4.023  -0.667  0.00  0.00    +0.040 A 
ATOM     19  C   UNL     1      -8.714  -3.712  -0.030  0.00  0.00    +0.124 A 
ATOM     20  C   UNL     1      -8.697  -3.108   1.216  0.00  0.00    +0.040 A 
ATOM     21  C   UNL     1      -7.494  -2.821   1.829  0.00  0.00    +0.030 A 
ATOM     22  F   UNL     1      -9.893  -3.997  -0.626  0.00  0.00    -0.205 F 
ENDBRANCH   4  16
BRANCH   2  23
ATOM     23  C   UNL     1      -2.794  -0.680   3.708  0.00  0.00    +0.054 C 
ATOM     24  C   UNL     1      -2.186   0.339   2.741  0.00  0.00    +0.010 C 
ENDBRANCH   2  23
BRANCH   1  25
ATOM     25  C   UNL     1      -1.632  -3.498   2.849  0.00  0.00    +0.148 C 
BRANCH  25  26
ATOM     26  N   UNL     1      -1.697  -4.444   3.966  0.00  0.00    -0.293 N 
ATOM     27  C   UNL     1      -1.479  -4.017   5.225  0.00  0.00    +0.247 C 
ATOM     28  O   UNL     1      -1.282  -2.837   5.441  0.00  0.00    -0.270 OA
BRANCH  27  29
ATOM     29  C   UNL     1      -1.480  -4.984   6.344  0.00  0.00    +0.037 A 
ATOM     30  C   UNL     1      -1.233  -6.336   6.102  0.00  0.00    +0.015 A 
ATOM     31  C   UNL     1      -1.235  -7.233   7.151  0.00  0.00    +0.033 A 
ATOM     32  C   UNL     1      -1.480  -6.794   8.440  0.00  0.00    +0.126 A 
ATOM     33  C   UNL     1      -1.725  -5.455   8.686  0.00  0.00    +0.033 A 
ATOM     34  C   UNL     1      -1.720  -4.547   7.647  0.00  0.00    +0.015 A 
BRANCH  32  35
ATOM     35  N   UNL     1      -1.480  -7.761   9.560  0.00  0.00    +0.056 N 
ATOM     36  O   UNL     1      -1.267  -8.932   9.347  0.00  0.00    -0.126 OA
ATOM     37  O   UNL     1      -1.694  -7.381  10.687  0.00  0.00    -0.126 OA
ENDBRANCH  32  35
ENDBRANCH  27  29
BRANCH  26  38
ATOM     38  C   UNL     1      -1.999  -5.855   3.713  0.00  0.00    +0.108 C 
BRANCH  38  40
ATOM     39  C   UNL     1      -1.069  -8.026   2.896  0.00  0.00    +0.005 C 
ATOM     40  C   UNL     1      -0.754  -6.552   3.160  0.00  0.00    +0.016 C 
ENDBRANCH  38  40
ENDBRANCH  26  38
ENDBRANCH  25  26
ENDBRANCH   1  25
TORSDOF 10
