REMARK  Name = ZINC32529057
REMARK  9 active torsions:
REMARK  status: ('A' for Active; 'I' for Inactive)
REMARK    1  A    between atoms: C_1  and  C_2
REMARK    2  A    between atoms: C_2  and  C_3
REMARK    3  A    between atoms: C_3  and  C_5
REMARK    4  A    between atoms: C_3  and  S_22
REMARK    5  A    between atoms: C_10  and  C_13
REMARK    6  A    between atoms: C_17  and  N_19
REMARK    7  A    between atoms: S_22  and  C_23
REMARK    8  A    between atoms: C_25  and  C_34
REMARK    9  A    between atoms: C_30  and  C_33
REMARK                            x       y       z     vdW  Elec       q    Type
REMARK                         _______ _______ _______ _____ _____    ______ ____
ROOT
ATOM      1  C   UNL     1       1.444   9.474   0.075  0.00  0.00    +0.232 C 
ATOM      2  O   UNL     1       0.361  10.016   0.012  0.00  0.00    -0.274 OA
ATOM      3  N   UNL     1       1.524   8.129   0.100  0.00  0.00    -0.264 N 
ATOM      4  C   UNL     1       0.365   7.363   0.053  0.00  0.00    +0.165 A 
ATOM      5  N   UNL     1       0.230   6.051   0.073  0.00  0.00    -0.225 NA
ATOM      6  C   UNL     1      -0.964   5.481   0.016  0.00  0.00    +0.080 A 
ATOM      7  C   UNL     1      -2.080   6.268  -0.052  0.00  0.00    +0.076 A 
ATOM      8  S   UNL     1      -1.339   7.895  -0.041  0.00  0.00    -0.060 S 
ATOM      9  H   UNL     1       2.506   7.637   0.157  0.00  0.00    +0.157 HD
ENDROOT
BRANCH   6  10
ATOM     10  C   UNL     1      -1.090   4.003   0.034  0.00  0.00    +0.003 A 
ATOM     11  C   UNL     1      -2.350   3.408  -0.019  0.00  0.00    +0.010 A 
ATOM     12  C   UNL     1      -2.461   2.033  -0.008  0.00  0.00    +0.003 A 
ATOM     13  C   UNL     1      -1.326   1.245   0.068  0.00  0.00    +0.033 A 
ATOM     14  C   UNL     1      -0.074   1.830   0.121  0.00  0.00    +0.127 A 
ATOM     15  C   UNL     1       0.050   3.205   0.104  0.00  0.00    +0.042 A 
BRANCH  14  16
ATOM     16  N   UNL     1       1.136   0.980   0.195  0.00  0.00    +0.056 N 
ATOM     17  O   UNL     1       1.028  -0.233   0.210  0.00  0.00    -0.126 OA
ATOM     18  O   UNL     1       2.239   1.494   0.242  0.00  0.00    -0.126 OA
ENDBRANCH  14  16
ENDBRANCH   6  10
BRANCH   1  19
ATOM     19  C   UNL     1       2.701  10.304   0.125  0.00  0.00    +0.139 C 
BRANCH  19  21
ATOM     20  C   UNL     1       4.541  11.121   1.605  0.00  0.00    +0.005 C 
ATOM     21  C   UNL     1       3.193  10.398   1.571  0.00  0.00    +0.020 C 
ENDBRANCH  19  21
BRANCH  19  22
ATOM     22  S   UNL     1       2.352  11.966  -0.503  0.00  0.00    -0.093 S 
BRANCH  22  23
ATOM     23  C   UNL     1       2.080  11.599  -2.205  0.00  0.00    +0.099 A 
ATOM     24  C   UNL     1       1.623  12.613  -3.060  0.00  0.00    +0.038 A 
ATOM     25  C   UNL     1       1.415  12.345  -4.379  0.00  0.00    -0.039 A 
ATOM     26  C   UNL     1       1.659  11.035  -4.842  0.00  0.00    +0.004 A 
ATOM     27  C   UNL     1       1.459  10.690  -6.187  0.00  0.00    +0.010 A 
ATOM     28  C   UNL     1       1.704   9.415  -6.599  0.00  0.00    +0.001 A 
ATOM     29  C   UNL     1       2.152   8.448  -5.702  0.00  0.00    +0.005 A 
ATOM     30  C   UNL     1       2.357   8.750  -4.390  0.00  0.00    -0.024 A 
ATOM     31  C   UNL     1       2.114  10.054  -3.928  0.00  0.00    +0.075 A 
ATOM     32  N   UNL     1       2.307  10.377  -2.644  0.00  0.00    -0.240 NA
ATOM     33  C   UNL     1       2.842   7.688  -3.437  0.00  0.00    +0.046 C 
ATOM     34  C   UNL     1       0.930  13.419  -5.318  0.00  0.00    +0.044 C 
ENDBRANCH  22  23
ENDBRANCH  19  22
ENDBRANCH   1  19
TORSDOF 6
