REMARK  Name = ZINC38684540
REMARK  15 active torsions:
REMARK  status: ('A' for Active; 'I' for Inactive)
REMARK    1  A    between atoms: C_1  and  O_2
REMARK    2  A    between atoms: O_2  and  C_3
REMARK    3  A    between atoms: C_5  and  C_13
REMARK    4  A    between atoms: C_7  and  O_11
REMARK    5  A    between atoms: C_8  and  O_9
REMARK    6  A    between atoms: O_9  and  C_10
REMARK    7  A    between atoms: O_11  and  C_12
REMARK    8  A    between atoms: C_13  and  O_15
REMARK    9  A    between atoms: O_15  and  C_16
REMARK   10  A    between atoms: C_23  and  N_39
REMARK   11  A    between atoms: C_24  and  C_37
REMARK   12  A    between atoms: C_25  and  C_27
REMARK   13  A    between atoms: C_31  and  O_33
REMARK   14  A    between atoms: O_33  and  C_34
REMARK   15  A    between atoms: C_34  and  C_35
REMARK                            x       y       z     vdW  Elec       q    Type
REMARK                         _______ _______ _______ _____ _____    ______ ____
ROOT
ATOM      1  C   UNL     1      -7.113   0.444   0.021  0.00  0.00    +0.135 A 
ATOM      2  C   UNL     1      -6.913   1.815  -0.056  0.00  0.00    +0.047 A 
ATOM      3  C   UNL     1      -7.998   2.670  -0.081  0.00  0.00    +0.012 A 
ATOM      4  C   UNL     1      -9.285   2.164  -0.030  0.00  0.00    +0.008 A 
ATOM      5  C   UNL     1      -9.490   0.796   0.046  0.00  0.00    +0.138 A 
ATOM      6  C   UNL     1      -8.400  -0.065   0.066  0.00  0.00    +0.093 A 
ATOM      7  O   UNL     1     -10.743   0.282   0.097  0.00  0.00    -0.441 OA
ATOM      8  C   UNL     1     -11.774   1.064   0.458  0.00  0.00    +0.199 C 
ATOM      9  C   UNL     1     -11.701   2.415   0.408  0.00  0.00    +0.098 C 
ATOM     10  C   UNL     1     -10.454   3.113  -0.059  0.00  0.00    +0.098 C 
ENDROOT
BRANCH  10  11
ATOM     11  C   UNL     1     -10.658   3.612  -1.466  0.00  0.00    -0.031 A 
ATOM     12  C   UNL     1     -10.932   2.716  -2.484  0.00  0.00    +0.005 A 
ATOM     13  C   UNL     1     -11.120   3.170  -3.776  0.00  0.00    +0.004 A 
ATOM     14  C   UNL     1     -11.033   4.521  -4.054  0.00  0.00    +0.045 A 
ATOM     15  C   UNL     1     -10.758   5.421  -3.035  0.00  0.00    +0.121 A 
ATOM     16  C   UNL     1     -10.576   4.963  -1.738  0.00  0.00    +0.050 A 
BRANCH  15  17
ATOM     17  O   UNL     1     -10.672   6.750  -3.306  0.00  0.00    -0.488 OA
BRANCH  17  18
ATOM     18  C   UNL     1     -10.876   7.150  -4.663  0.00  0.00    +0.256 C 
BRANCH  18  19
ATOM     19  C   UNL     1     -10.743   8.648  -4.770  0.00  0.00    +0.006 C 
ATOM     20  C   UNL     1     -10.047   9.175  -5.746  0.00  0.00    +0.007 C 
ENDBRANCH  18  19
ENDBRANCH  17  18
ENDBRANCH  15  17
ENDBRANCH  10  11
BRANCH   8  21
ATOM     21  N   UNL     1     -12.937   0.476   0.891  0.00  0.00    -0.328 N 
ATOM     22  H   UNL     1     -13.005  -0.491   0.933  0.00  0.00    +0.145 HD
ATOM     23  H   UNL     1     -13.690   1.027   1.155  0.00  0.00    +0.145 HD
ENDBRANCH   8  21
BRANCH   9  24
ATOM     24  C   UNL     1     -12.834   3.195   0.806  0.00  0.00    +0.101 C 
ATOM     25  N   UNL     1     -13.733   3.813   1.123  0.00  0.00    -0.191 NA
ENDBRANCH   9  24
BRANCH   1  26
ATOM     26  O   UNL     1      -6.046  -0.398   0.045  0.00  0.00    -0.422 OA
BRANCH  26  27
ATOM     27  C   UNL     1      -5.735  -1.058  -1.088  0.00  0.00    +0.345 C 
ATOM     28  O   UNL     1      -6.452  -0.961  -2.064  0.00  0.00    -0.245 OA
BRANCH  27  31
ATOM     29  C   UNL     1      -3.065  -3.370  -2.366  0.00  0.00    +0.166 A 
ATOM     30  C   UNL     1      -4.201  -2.583  -2.317  0.00  0.00    +0.064 A 
ATOM     31  C   UNL     1      -4.525  -1.899  -1.143  0.00  0.00    +0.067 A 
ATOM     32  C   UNL     1      -3.699  -2.012  -0.021  0.00  0.00    +0.064 A 
ATOM     33  C   UNL     1      -2.565  -2.800  -0.075  0.00  0.00    +0.166 A 
ATOM     34  C   UNL     1      -2.248  -3.485  -1.245  0.00  0.00    +0.204 A 
BRANCH  29  36
ATOM     35  C   UNL     1      -3.633  -3.874  -4.620  0.00  0.00    +0.277 C 
ATOM     36  O   UNL     1      -2.750  -4.037  -3.509  0.00  0.00    -0.491 OA
ENDBRANCH  29  36
BRANCH  34  37
ATOM     37  O   UNL     1      -1.135  -4.264  -1.294  0.00  0.00    -0.488 OA
ATOM     38  C   UNL     1       0.079  -3.636  -1.713  0.00  0.00    +0.277 C 
ENDBRANCH  34  37
BRANCH  33  39
ATOM     39  O   UNL     1      -1.761  -2.910   1.016  0.00  0.00    -0.491 OA
ATOM     40  C   UNL     1      -2.149  -2.183   2.184  0.00  0.00    +0.277 C 
ENDBRANCH  33  39
ENDBRANCH  27  31
ENDBRANCH  26  27
ENDBRANCH   1  26
TORSDOF 12
