REMARK  Name = ZINC20617297
REMARK  10 active torsions:
REMARK  status: ('A' for Active; 'I' for Inactive)
REMARK    1  A    between atoms: C_1  and  C_2
REMARK    2  A    between atoms: C_5  and  N_9
REMARK    3  A    between atoms: C_6  and  C_8
REMARK    4  A    between atoms: C_10  and  C_12
REMARK    5  A    between atoms: N_15  and  C_17
REMARK    6  A    between atoms: C_17  and  C_19
REMARK    7  A    between atoms: C_17  and  C_20
REMARK    8  A    between atoms: N_22  and  C_23
REMARK    9  A    between atoms: C_26  and  C_30
REMARK   10  A    between atoms: C_28  and  C_29
REMARK                            x       y       z     vdW  Elec       q    Type
REMARK                         _______ _______ _______ _____ _____    ______ ____
ROOT
ATOM      1  C   UNL     1       1.222   1.617  -0.082  0.00  0.00    +0.147 A 
ATOM      2  C   UNL     1       2.143   0.542  -0.115  0.00  0.00    +0.054 A 
ATOM      3  C   UNL     1       1.388  -0.581  -0.098  0.00  0.00    +0.110 A 
ATOM      4  N   UNL     1       0.095  -0.194  -0.058  0.00  0.00    -0.259 N 
ATOM      5  N   UNL     1       0.015   1.088  -0.049  0.00  0.00    -0.166 NA
ENDROOT
BRANCH   1   7
ATOM      6  N   UNL     1       0.564   3.973  -0.051  0.00  0.00    -0.280 N 
ATOM      7  C   UNL     1       1.551   3.056  -0.085  0.00  0.00    +0.268 C 
ATOM      8  O   UNL     1       2.713   3.414  -0.118  0.00  0.00    -0.268 OA
ATOM      9  H   UNL     1      -0.486   3.653  -0.113  0.00  0.00    +0.155 HD
BRANCH   6  14
ATOM     10  C   UNL     1       1.827   9.484   0.413  0.00  0.00    +0.044 C 
ATOM     11  C   UNL     1       1.491   8.020   0.290  0.00  0.00    -0.050 A 
ATOM     12  C   UNL     1       2.380   7.067   0.755  0.00  0.00    +0.005 A 
ATOM     13  C   UNL     1       2.075   5.725   0.643  0.00  0.00    +0.024 A 
ATOM     14  C   UNL     1       0.875   5.332   0.064  0.00  0.00    +0.037 A 
ATOM     15  C   UNL     1      -0.011   6.291  -0.407  0.00  0.00    -0.029 A 
ATOM     16  C   UNL     1       0.297   7.632  -0.288  0.00  0.00    +0.008 A 
ATOM     17  C   UNL     1      -1.311   5.869  -1.043  0.00  0.00    +0.045 C 
ENDBRANCH   6  14
ENDBRANCH   1   7
BRANCH   4  18
ATOM     18  C   UNL     1      -1.052  -1.105  -0.027  0.00  0.00    +0.190 C 
ATOM     19  C   UNL     1      -0.692  -2.352   0.784  0.00  0.00    +0.042 C 
BRANCH  18  20
ATOM     20  C   UNL     1      -1.411  -1.508  -1.435  0.00  0.00    +0.242 C 
ATOM     21  O   UNL     1      -0.771  -1.076  -2.370  0.00  0.00    -0.273 OA
ATOM     22  N   UNL     1      -2.442  -2.348  -1.653  0.00  0.00    -0.284 N 
ATOM     23  H   UNL     1      -3.070  -2.677  -0.812  0.00  0.00    +0.155 HD
BRANCH  22  24
ATOM     24  C   UNL     1      -2.713  -2.800  -2.949  0.00  0.00    +0.036 A 
ATOM     25  C   UNL     1      -2.503  -1.963  -4.037  0.00  0.00    +0.024 A 
ATOM     26  C   UNL     1      -2.772  -2.412  -5.314  0.00  0.00    +0.005 A 
ATOM     27  C   UNL     1      -3.250  -3.695  -5.511  0.00  0.00    -0.050 A 
ATOM     28  C   UNL     1      -3.460  -4.532  -4.431  0.00  0.00    +0.008 A 
ATOM     29  C   UNL     1      -3.187  -4.090  -3.151  0.00  0.00    -0.029 A 
ATOM     30  C   UNL     1      -3.411  -5.004  -1.974  0.00  0.00    +0.045 C 
ATOM     31  C   UNL     1      -3.541  -4.183  -6.907  0.00  0.00    +0.044 C 
ENDBRANCH  22  24
ENDBRANCH  18  20
ENDBRANCH   4  18
TORSDOF 5
