REMARK  Name = ZINC36635765
REMARK  4 active torsions:
REMARK  status: ('A' for Active; 'I' for Inactive)
REMARK    1  A    between atoms: C_1  and  C_2
REMARK    2  A    between atoms: C_7  and  N_8
REMARK    3  A    between atoms: N_8  and  C_9
REMARK    4  A    between atoms: N_14  and  C_17
REMARK                            x       y       z     vdW  Elec       q    Type
REMARK                         _______ _______ _______ _____ _____    ______ ____
ROOT
ATOM      1  C   UNL     1       0.047  -0.758   3.678  0.00  0.00    +0.166 C 
ATOM      2  C   UNL     1      -0.514   0.107   4.825  0.00  0.00    +0.128 C 
ATOM      3  C   UNL     1       0.651   0.227   5.783  0.00  0.00    +0.229 C 
ATOM      4  O   UNL     1       0.638   0.833   6.832  0.00  0.00    -0.275 OA
ATOM      5  N   UNL     1       1.699  -0.443   5.287  0.00  0.00    -0.207 N 
ATOM      6  C   UNL     1       1.471  -1.039   4.106  0.00  0.00    +0.247 C 
ATOM      7  O   UNL     1       2.275  -1.696   3.481  0.00  0.00    -0.273 OA
ENDROOT
BRANCH   5   8
ATOM      8  C   UNL     1       2.933  -0.519   5.948  0.00  0.00    +0.062 A 
ATOM      9  C   UNL     1       3.183  -1.552   6.841  0.00  0.00    +0.025 A 
ATOM     10  C   UNL     1       4.399  -1.624   7.490  0.00  0.00    +0.002 A 
ATOM     11  C   UNL     1       5.369  -0.667   7.253  0.00  0.00    +0.002 A 
ATOM     12  C   UNL     1       5.125   0.364   6.365  0.00  0.00    +0.022 A 
ATOM     13  C   UNL     1       3.912   0.438   5.707  0.00  0.00    +0.063 A 
ATOM     14 CL   UNL     1       3.608   1.728   4.586  0.00  0.00    -0.082 Cl
ENDBRANCH   5   8
BRANCH   1  15
ATOM     15  N   UNL     1       0.025  -0.016   2.415  0.00  0.00    -0.332 N 
ATOM     16  H   UNL     1       0.012   0.954   2.422  0.00  0.00    +0.147 HD
BRANCH  15  23
ATOM     17  C   UNL     1      -0.018   1.503   0.010  0.00  0.00    +0.045 C 
ATOM     18  C   UNL     1       0.002  -0.004   0.002  0.00  0.00    -0.030 A 
ATOM     19  C   UNL     1       0.006  -0.689  -1.198  0.00  0.00    +0.005 A 
ATOM     20  C   UNL     1       0.024  -2.071  -1.206  0.00  0.00    +0.000 A 
ATOM     21  C   UNL     1       0.039  -2.773  -0.014  0.00  0.00    +0.002 A 
ATOM     22  C   UNL     1       0.036  -2.095   1.188  0.00  0.00    +0.023 A 
ATOM     23  C   UNL     1       0.023  -0.706   1.200  0.00  0.00    +0.031 A 
ENDBRANCH  15  23
ENDBRANCH   1  15
TORSDOF 3
