REMARK  Name = ZINC35345132
REMARK  4 active torsions:
REMARK  status: ('A' for Active; 'I' for Inactive)
REMARK    1  A    between atoms: C_1  and  C_2
REMARK    2  A    between atoms: C_5  and  C_21
REMARK    3  A    between atoms: N_8  and  C_10
REMARK    4  A    between atoms: C_15  and  N_16
REMARK                            x       y       z     vdW  Elec       q    Type
REMARK                         _______ _______ _______ _____ _____    ______ ____
ROOT
ATOM      1  C   UNL     1       1.788  -2.769   1.399  0.00  0.00    +0.052 A 
ATOM      2  C   UNL     1       2.445  -3.197   0.258  0.00  0.00    +0.048 A 
ATOM      3  C   UNL     1       3.588  -3.986   0.362  0.00  0.00    +0.039 A 
ATOM      4  C   UNL     1       4.058  -4.333   1.622  0.00  0.00    -0.016 A 
ATOM      5  C   UNL     1       3.409  -3.909   2.762  0.00  0.00    +0.030 A 
ATOM      6  C   UNL     1       2.273  -3.120   2.659  0.00  0.00    +0.046 A 
ATOM      7  C   UNL     1       5.292  -5.177   1.399  0.00  0.00    +0.133 C 
ATOM      8  C   UNL     1       5.428  -5.241  -0.107  0.00  0.00    +0.222 C 
ATOM      9  O   UNL     1       6.292  -5.824  -0.729  0.00  0.00    -0.275 OA
ATOM     10  N   UNL     1       4.412  -4.532  -0.627  0.00  0.00    -0.285 N 
ATOM     11  H   UNL     1       4.266  -4.413  -1.579  0.00  0.00    +0.155 HD
ENDROOT
BRANCH   1  17
ATOM     12  C   UNL     1      -0.019   1.526   0.010  0.00  0.00    +0.009 C 
ATOM     13  C   UNL     1       0.002  -0.004   0.002  0.00  0.00    +0.003 C 
ATOM     14  C   UNL     1      -1.433  -0.534   0.015  0.00  0.00    +0.009 C 
ATOM     15  C   UNL     1      -1.414  -2.064  -0.027  0.00  0.00    +0.003 C 
ATOM     16  C   UNL     1      -0.692  -2.596   1.215  0.00  0.00    +0.108 C 
ATOM     17  N   UNL     1       0.639  -1.977   1.288  0.00  0.00    -0.328 N 
ATOM     18  C   UNL     1       0.742  -0.512   1.244  0.00  0.00    +0.108 C 
ATOM     19  C   UNL     1      -2.850  -2.592  -0.049  0.00  0.00    +0.009 C 
ENDBRANCH   1  17
BRANCH   6  20
ATOM     20  N   UNL     1       1.612  -2.681   3.816  0.00  0.00    -0.357 N 
ATOM     21  H   UNL     1       0.816  -2.132   3.741  0.00  0.00    +0.142 HD
ATOM     22  H   UNL     1       1.952  -2.926   4.691  0.00  0.00    +0.142 HD
ENDBRANCH   6  20
TORSDOF 2
