REMARK  Name = ZINC05642647
REMARK  7 active torsions:
REMARK  status: ('A' for Active; 'I' for Inactive)
REMARK    1  A    between atoms: C_1  and  C_2
REMARK    2  A    between atoms: C_2  and  C_3
REMARK    3  A    between atoms: C_3  and  C_4
REMARK    4  A    between atoms: C_3  and  N_6
REMARK    5  A    between atoms: C_4  and  C_5
REMARK    6  A    between atoms: C_9  and  O_11
REMARK    7  A    between atoms: C_12  and  C_19
REMARK                            x       y       z     vdW  Elec       q    Type
REMARK                         _______ _______ _______ _____ _____    ______ ____
ROOT
ATOM      1  N   UNL     1       0.528  -2.028  -1.354  0.00  0.00    -0.244 N 
ATOM      2  C   UNL     1      -0.075  -2.649  -2.422  0.00  0.00    +0.132 A 
ATOM      3  C   UNL     1      -0.064  -3.976  -2.168  0.00  0.00    +0.072 A 
ATOM      4  C   UNL     1       0.563  -4.169  -0.914  0.00  0.00    +0.238 A 
ATOM      5  N   UNL     1       0.917  -3.007  -0.440  0.00  0.00    -0.131 NA
ATOM      6  C   UNL     1      -0.585  -5.120  -2.980  0.00  0.00    +0.115 C 
ATOM      7  S   UNL     1      -2.065  -4.715  -3.910  0.00  0.00    -0.138 S 
ATOM      8  C   UNL     1      -1.558  -3.523  -5.157  0.00  0.00    +0.166 C 
ATOM      9  C   UNL     1      -1.186  -2.212  -4.585  0.00  0.00    +0.228 C 
ATOM     10  O   UNL     1      -1.529  -1.252  -5.242  0.00  0.00    -0.275 OA
ATOM     11  N   UNL     1      -0.549  -1.924  -3.489  0.00  0.00    -0.270 N 
ATOM     12  H   UNL     1      -0.367  -0.975  -3.404  0.00  0.00    +0.156 HD
ENDROOT
BRANCH   6  13
ATOM     13  C   UNL     1      -0.897  -6.267  -2.054  0.00  0.00    -0.030 A 
ATOM     14  C   UNL     1      -1.832  -6.109  -1.049  0.00  0.00    +0.006 A 
ATOM     15  C   UNL     1      -2.119  -7.161  -0.199  0.00  0.00    +0.020 A 
ATOM     16  C   UNL     1      -1.470  -8.372  -0.355  0.00  0.00    +0.041 A 
ATOM     17  C   UNL     1      -0.533  -8.530  -1.362  0.00  0.00    +0.020 A 
ATOM     18  C   UNL     1      -0.252  -7.479  -2.214  0.00  0.00    +0.006 A 
ATOM     19 CL   UNL     1      -1.829  -9.694   0.712  0.00  0.00    -0.084 Cl
ENDBRANCH   6  13
BRANCH   4  20
ATOM     20  O   UNL     1       0.767  -5.369  -0.307  0.00  0.00    -0.491 OA
ATOM     21  H   UNL     1       1.610  -5.786  -0.534  0.00  0.00    +0.294 HD
ENDBRANCH   4  20
BRANCH   1  22
ATOM     22  C   UNL     1       0.733  -0.585  -1.205  0.00  0.00    +0.109 C 
BRANCH  22  24
ATOM     23  C   UNL     1      -1.492  -0.264  -0.115  0.00  0.00    +0.006 C 
ATOM     24  C   UNL     1       0.020  -0.096   0.057  0.00  0.00    +0.023 C 
ENDBRANCH  22  24
BRANCH  22  25
ATOM     25  C   UNL     1       2.230  -0.292  -1.091  0.00  0.00    +0.023 C 
ATOM     26  C   UNL     1       2.926  -0.671  -2.399  0.00  0.00    +0.006 C 
ENDBRANCH  22  25
ENDBRANCH   1  22
TORSDOF 5
