REMARK  Name = ZINC39605224
REMARK  12 active torsions:
REMARK  status: ('A' for Active; 'I' for Inactive)
REMARK    1  A    between atoms: C_1  and  C_2
REMARK    2  A    between atoms: C_2  and  C_3
REMARK    3  A    between atoms: C_2  and  O_4
REMARK    4  A    between atoms: O_4  and  C_5
REMARK    5  A    between atoms: C_5  and  C_6
REMARK    6  A    between atoms: C_6  and  C_7
REMARK    7  A    between atoms: C_7  and  N_8
REMARK    8  A    between atoms: C_9  and  C_11
REMARK    9  A    between atoms: C_22  and  C_24
REMARK   10  A    between atoms: C_30  and  O_32
REMARK   11  A    between atoms: O_32  and  C_33
REMARK   12  A    between atoms: C_33  and  C_34
REMARK                            x       y       z     vdW  Elec       q    Type
REMARK                         _______ _______ _______ _____ _____    ______ ____
ROOT
ATOM      1  C   UNL     1      -6.375  -5.533  -1.696  0.00  0.00    +0.100 C 
ATOM      2  C   UNL     1      -6.767  -5.867  -0.239  0.00  0.00    +0.121 C 
ATOM      3  N   UNL     1      -7.683  -7.026  -0.354  0.00  0.00    -0.300 N 
ATOM      4  C   UNL     1      -7.090  -7.860  -1.427  0.00  0.00    +0.115 C 
ATOM      5  C   UNL     1      -6.587  -6.844  -2.472  0.00  0.00    -0.004 C 
ATOM      6  C   UNL     1      -5.270  -7.319  -3.078  0.00  0.00    -0.010 C 
ATOM      7  C   UNL     1      -5.518  -8.591  -3.893  0.00  0.00    -0.082 C 
ATOM      8  N   UNL     1      -6.495  -8.313  -4.953  0.00  0.00    +0.379 N 
ATOM      9  C   UNL     1      -7.787  -7.947  -4.359  0.00  0.00    -0.082 C 
ATOM     10  C   UNL     1      -7.635  -6.648  -3.564  0.00  0.00    -0.010 C 
ATOM     11  C   UNL     1      -8.802  -7.268   0.357  0.00  0.00    +0.219 C 
ATOM     12  O   UNL     1      -9.450  -8.271   0.144  0.00  0.00    -0.275 OA
ATOM     13  H   UNL     1      -6.161  -7.552  -5.525  0.00  0.00    -0.086 HD
ATOM     14  H   UNL     1      -6.611  -9.136  -5.526  0.00  0.00    -0.086 HD
ENDROOT
BRANCH  11  15
ATOM     15  C   UNL     1      -9.248  -6.293   1.415  0.00  0.00    +0.078 C 
ATOM     16  C   UNL     1      -8.156  -6.159   2.478  0.00  0.00    +0.032 C 
ATOM     17  C   UNL     1      -8.598  -5.140   3.534  0.00  0.00    +0.112 C 
ATOM     18  N   UNL     1      -9.908  -5.546   4.062  0.00  0.00    -0.267 N 
ATOM     19  C   UNL     1     -11.006  -5.790   3.117  0.00  0.00    +0.112 C 
ATOM     20  C   UNL     1     -10.537  -6.801   2.066  0.00  0.00    +0.032 C 
ATOM     21  C   UNL     1     -10.098  -5.691   5.389  0.00  0.00    +0.403 C 
ATOM     22  O   UNL     1      -9.181  -5.487   6.160  0.00  0.00    -0.226 OA
BRANCH  21  23
ATOM     23  O   UNL     1     -11.303  -6.063   5.859  0.00  0.00    -0.445 OA
BRANCH  23  24
ATOM     24  C   UNL     1     -11.433  -6.198   7.276  0.00  0.00    +0.269 C 
BRANCH  24  25
ATOM     25  C   UNL     1     -12.841  -6.618   7.613  0.00  0.00    -0.010 A 
ATOM     26  C   UNL     1     -13.812  -5.660   7.842  0.00  0.00    +0.007 A 
ATOM     27  C   UNL     1     -15.102  -6.045   8.152  0.00  0.00    +0.000 A 
ATOM     28  C   UNL     1     -15.423  -7.388   8.232  0.00  0.00    +0.000 A 
ATOM     29  C   UNL     1     -14.453  -8.345   8.002  0.00  0.00    +0.000 A 
ATOM     30  C   UNL     1     -13.163  -7.960   7.688  0.00  0.00    +0.007 A 
ENDBRANCH  24  25
ENDBRANCH  23  24
ENDBRANCH  21  23
ENDBRANCH  11  15
BRANCH   1  32
ATOM     31  N   UNL     1      -4.524  -4.261  -2.732  0.00  0.00    -0.315 N 
ATOM     32  C   UNL     1      -4.930  -5.110  -1.767  0.00  0.00    +0.218 C 
ATOM     33  O   UNL     1      -4.134  -5.532  -0.956  0.00  0.00    -0.275 OA
ATOM     34  H   UNL     1      -5.161  -3.923  -3.380  0.00  0.00    +0.149 HD
BRANCH  31  35
ATOM     35  C   UNL     1      -3.119  -3.849  -2.801  0.00  0.00    +0.106 C 
BRANCH  35  36
ATOM     36  C   UNL     1      -2.926  -2.891  -3.978  0.00  0.00    +0.047 C 
BRANCH  36  37
ATOM     37  C   UNL     1      -1.460  -2.461  -4.050  0.00  0.00    +0.161 C 
BRANCH  37  38
ATOM     38  O   UNL     1      -1.279  -1.566  -5.149  0.00  0.00    -0.377 OA
BRANCH  38  40
ATOM     39  C   UNL     1       0.335  -0.820  -6.786  0.00  0.00    +0.037 C 
ATOM     40  C   UNL     1       0.063  -1.102  -5.307  0.00  0.00    +0.112 C 
ATOM     41  C   UNL     1       0.256   0.183  -4.499  0.00  0.00    +0.037 C 
ENDBRANCH  38  40
ENDBRANCH  37  38
ENDBRANCH  36  37
ENDBRANCH  35  36
ENDBRANCH  31  35
ENDBRANCH   1  32
TORSDOF 10
