REMARK  Name = ZINC39670411
REMARK  7 active torsions:
REMARK  status: ('A' for Active; 'I' for Inactive)
REMARK    1  A    between atoms: C_1  and  C_2
REMARK    2  A    between atoms: C_7  and  C_11
REMARK    3  A    between atoms: C_11  and  N_12
REMARK    4  A    between atoms: C_13  and  C_15
REMARK    5  A    between atoms: C_26  and  C_28
REMARK    6  A    between atoms: C_28  and  C_29
REMARK    7  A    between atoms: C_29  and  C_30
REMARK                            x       y       z     vdW  Elec       q    Type
REMARK                         _______ _______ _______ _____ _____    ______ ____
ROOT
ATOM      1  C   UNL     1       3.158  -7.609   3.255  0.00  0.00    +0.100 C 
ATOM      2  C   UNL     1       4.014  -6.555   3.992  0.00  0.00    +0.121 C 
ATOM      3  N   UNL     1       4.000  -6.986   5.410  0.00  0.00    -0.300 N 
ATOM      4  C   UNL     1       4.101  -8.464   5.347  0.00  0.00    +0.115 C 
ATOM      5  C   UNL     1       3.220  -8.861   4.145  0.00  0.00    -0.004 C 
ATOM      6  C   UNL     1       1.821  -9.242   4.621  0.00  0.00    -0.010 C 
ATOM      7  C   UNL     1       1.902 -10.522   5.458  0.00  0.00    -0.082 C 
ATOM      8  N   UNL     1       2.476 -11.603   4.647  0.00  0.00    +0.379 N 
ATOM      9  C   UNL     1       3.855 -11.269   4.271  0.00  0.00    -0.082 C 
ATOM     10  C   UNL     1       3.857 -10.021   3.384  0.00  0.00    -0.010 C 
ATOM     11  C   UNL     1       3.915  -6.210   6.508  0.00  0.00    +0.216 C 
ATOM     12  O   UNL     1       3.916  -6.717   7.610  0.00  0.00    -0.276 OA
ATOM     13  H   UNL     1       2.472 -12.460   5.180  0.00  0.00    -0.086 HD
ATOM     14  H   UNL     1       1.922 -11.726   3.813  0.00  0.00    -0.086 HD
ENDROOT
BRANCH   1  16
ATOM     15  N   UNL     1       0.976  -7.550   2.091  0.00  0.00    -0.309 N 
ATOM     16  C   UNL     1       1.735  -7.130   3.123  0.00  0.00    +0.219 C 
ATOM     17  O   UNL     1       1.273  -6.367   3.944  0.00  0.00    -0.275 OA
ATOM     18  H   UNL     1       1.345  -8.160   1.434  0.00  0.00    +0.149 HD
BRANCH  15  19
ATOM     19  C   UNL     1      -0.407  -7.084   1.962  0.00  0.00    +0.159 C 
BRANCH  19  26
ATOM     20  C   UNL     1      -3.085  -8.901  -4.682  0.00  0.00    +0.045 C 
ATOM     21  C   UNL     1      -2.720  -8.979  -3.222  0.00  0.00    -0.034 A 
ATOM     22  C   UNL     1      -3.052 -10.123  -2.478  0.00  0.00    +0.008 A 
ATOM     23  C   UNL     1      -2.720 -10.190  -1.161  0.00  0.00    +0.045 A 
ATOM     24  C   UNL     1      -2.047  -9.105  -0.563  0.00  0.00    +0.115 A 
ATOM     25  N   UNL     1      -1.611  -8.897   0.671  0.00  0.00    -0.342 N 
ATOM     26  C   UNL     1      -1.031  -7.696   0.734  0.00  0.00    +0.051 A 
ATOM     27  C   UNL     1      -1.097  -7.121  -0.486  0.00  0.00    +0.115 A 
ATOM     28  N   UNL     1      -1.737  -8.002  -1.315  0.00  0.00    -0.308 N 
ATOM     29  C   UNL     1      -2.071  -7.950  -2.637  0.00  0.00    +0.096 A 
ATOM     30  H   UNL     1      -1.699  -9.518   1.411  0.00  0.00    +0.167 HD
ENDBRANCH  19  26
ENDBRANCH  15  19
ENDBRANCH   1  16
BRANCH  11  31
ATOM     31  C   UNL     1       3.818  -4.713   6.368  0.00  0.00    +0.100 C 
BRANCH  31  32
ATOM     32  C   UNL     1       3.734  -4.075   7.756  0.00  0.00    +0.044 C 
BRANCH  32  33
ATOM     33  C   UNL     1       3.637  -2.578   7.615  0.00  0.00    -0.047 A 
ATOM     34  C   UNL     1       4.787  -1.811   7.580  0.00  0.00    +0.003 A 
ATOM     35  C   UNL     1       4.698  -0.437   7.451  0.00  0.00    +0.000 A 
ATOM     36  C   UNL     1       3.460   0.169   7.356  0.00  0.00    +0.000 A 
ATOM     37  C   UNL     1       2.310  -0.597   7.390  0.00  0.00    +0.000 A 
ATOM     38  C   UNL     1       2.399  -1.971   7.515  0.00  0.00    +0.003 A 
ENDBRANCH  32  33
ENDBRANCH  31  32
ENDBRANCH  11  31
TORSDOF 6
