REMARK  Name = ZINC66058289
REMARK  5 active torsions:
REMARK  status: ('A' for Active; 'I' for Inactive)
REMARK    1  A    between atoms: C_1  and  C_2
REMARK    2  A    between atoms: C_2  and  C_22
REMARK    3  A    between atoms: N_5  and  C_9
REMARK    4  A    between atoms: C_9  and  C_10
REMARK    5  A    between atoms: N_12  and  C_13
REMARK                            x       y       z     vdW  Elec       q    Type
REMARK                         _______ _______ _______ _____ _____    ______ ____
ROOT
ATOM      1  C   UNL     1      -2.559  -1.992   1.819  0.00  0.00    +0.214 C 
ENDROOT
BRANCH   1   6
ATOM      2  C   UNL     1       0.007   1.519   0.044  0.00  0.00    +0.042 C 
ATOM      3  C   UNL     1       0.020  -0.011   0.026  0.00  0.00    +0.113 C 
ATOM      4  C   UNL     1      -1.387  -0.558   0.161  0.00  0.00    +0.247 C 
ATOM      5  O   UNL     1      -2.316  -0.384  -0.598  0.00  0.00    -0.273 OA
ATOM      6  N   UNL     1      -1.389  -1.280   1.299  0.00  0.00    -0.215 N 
ATOM      7  C   UNL     1      -0.192  -1.265   1.896  0.00  0.00    +0.310 C 
ATOM      8  O   UNL     1       0.052  -1.844   2.936  0.00  0.00    -0.252 OA
ATOM      9  N   UNL     1       0.712  -0.537   1.216  0.00  0.00    -0.285 N 
ATOM     10  H   UNL     1       1.639  -0.388   1.461  0.00  0.00    +0.151 HD
BRANCH   3  11
ATOM     11  C   UNL     1       0.682  -0.526  -1.253  0.00  0.00    +0.021 C 
ATOM     12  C   UNL     1       1.812  -1.547  -1.103  0.00  0.00    +0.006 C 
ATOM     13  C   UNL     1       2.130  -0.109  -1.517  0.00  0.00    +0.006 C 
ENDBRANCH   3  11
ENDBRANCH   1   6
BRANCH   1  14
ATOM     14  C   UNL     1      -2.581  -3.393   1.264  0.00  0.00    +0.235 C 
ATOM     15  O   UNL     1      -1.706  -3.761   0.509  0.00  0.00    -0.274 OA
ATOM     16  N   UNL     1      -3.573  -4.239   1.608  0.00  0.00    -0.283 N 
ATOM     17  H   UNL     1      -4.237  -3.968   2.261  0.00  0.00    +0.155 HD
BRANCH  16  18
ATOM     18  C   UNL     1      -3.646  -5.508   1.021  0.00  0.00    +0.053 A 
ATOM     19  C   UNL     1      -2.483  -6.194   0.701  0.00  0.00    +0.046 A 
ATOM     20  C   UNL     1      -2.558  -7.447   0.121  0.00  0.00    +0.061 A 
ATOM     21  C   UNL     1      -3.792  -8.017  -0.140  0.00  0.00    +0.061 A 
ATOM     22  C   UNL     1      -4.953  -7.336   0.178  0.00  0.00    +0.043 A 
ATOM     23  C   UNL     1      -4.884  -6.085   0.763  0.00  0.00    +0.064 A 
ATOM     24 CL   UNL     1      -6.341  -5.234   1.169  0.00  0.00    -0.082 Cl
ATOM     25 CL   UNL     1      -3.883  -9.591  -0.869  0.00  0.00    -0.082 Cl
ATOM     26 CL   UNL     1      -1.103  -8.305  -0.280  0.00  0.00    -0.082 Cl
ENDBRANCH  16  18
ENDBRANCH   1  14
TORSDOF 4
