REMARK  Name = ZINC22325079
REMARK  8 active torsions:
REMARK  status: ('A' for Active; 'I' for Inactive)
REMARK    1  A    between atoms: C_1  and  C_2
REMARK    2  A    between atoms: C_5  and  C_37
REMARK    3  A    between atoms: N_8  and  C_10
REMARK    4  A    between atoms: C_10  and  C_11
REMARK    5  A    between atoms: N_16  and  C_17
REMARK    6  A    between atoms: C_17  and  C_19
REMARK    7  A    between atoms: N_28  and  C_30
REMARK    8  A    between atoms: C_30  and  C_31
REMARK                            x       y       z     vdW  Elec       q    Type
REMARK                         _______ _______ _______ _____ _____    ______ ____
ROOT
ATOM      1  C   UNL     1       0.807   3.692   6.407  0.00  0.00    +0.290 C 
ATOM      2  O   UNL     1       0.317   2.821   7.107  0.00  0.00    -0.266 OA
ENDROOT
BRANCH   1   3
ATOM      3  C   UNL     1       0.699   5.112   6.808  0.00  0.00    +0.156 A 
ATOM      4  C   UNL     1      -0.100   5.487   7.984  0.00  0.00    +0.020 A 
ATOM      5  C   UNL     1      -0.771   4.535   8.750  0.00  0.00    +0.011 A 
ATOM      6  C   UNL     1      -1.507   4.936   9.843  0.00  0.00    +0.001 A 
ATOM      7  C   UNL     1      -1.587   6.279  10.190  0.00  0.00    +0.001 A 
ATOM      8  C   UNL     1      -0.932   7.237   9.447  0.00  0.00    +0.014 A 
ATOM      9  C   UNL     1      -0.182   6.851   8.337  0.00  0.00    +0.050 A 
ATOM     10  C   UNL     1       0.538   7.829   7.510  0.00  0.00    +0.275 A 
ATOM     11  O   UNL     1       0.496   9.016   7.778  0.00  0.00    -0.266 OA
ATOM     12  N   UNL     1       1.246   7.391   6.449  0.00  0.00    -0.224 N 
ATOM     13  N   UNL     1       1.319   6.037   6.120  0.00  0.00    -0.163 NA
BRANCH  12  14
ATOM     14  C   UNL     1       1.964   8.364   5.622  0.00  0.00    +0.182 C 
BRANCH  14  15
ATOM     15  C   UNL     1       3.358   8.553   6.165  0.00  0.00    -0.026 A 
ATOM     16  C   UNL     1       3.603   9.522   7.120  0.00  0.00    +0.005 A 
ATOM     17  C   UNL     1       4.881   9.694   7.617  0.00  0.00    +0.000 A 
ATOM     18  C   UNL     1       5.914   8.898   7.160  0.00  0.00    +0.000 A 
ATOM     19  C   UNL     1       5.669   7.928   6.206  0.00  0.00    +0.000 A 
ATOM     20  C   UNL     1       4.390   7.753   5.712  0.00  0.00    +0.005 A 
ENDBRANCH  14  15
ENDBRANCH  12  14
ENDBRANCH   1   3
BRANCH   1  26
ATOM     21  C   UNL     1       2.125   0.213   3.638  0.00  0.00    +0.008 A 
ATOM     22  C   UNL     1       1.509  -0.522   4.571  0.00  0.00    +0.067 A 
ATOM     23  S   UNL     1       0.949   0.727   5.714  0.00  0.00    -0.061 S 
ATOM     24  C   UNL     1       1.539   2.085   4.918  0.00  0.00    +0.163 A 
ATOM     25  N   UNL     1       2.146   1.561   3.818  0.00  0.00    -0.341 N 
ATOM     26  N   UNL     1       1.442   3.363   5.279  0.00  0.00    -0.151 NA
ATOM     27  H   UNL     1       2.583   2.138   3.173  0.00  0.00    +0.167 HD
BRANCH  21  28
ATOM     28  C   UNL     1       2.774  -0.428   2.438  0.00  0.00    -0.024 C 
BRANCH  28  34
ATOM     29  C   UNL     1      -0.088   1.517   0.023  0.00  0.00    +0.005 C 
ATOM     30  C   UNL     1      -0.063  -0.013   0.015  0.00  0.00    -0.031 C 
ATOM     31  C   UNL     1       0.642  -0.506  -1.251  0.00  0.00    +0.003 C 
ATOM     32  C   UNL     1       2.098  -0.030  -1.232  0.00  0.00    -0.031 C 
ATOM     33  C   UNL     1       2.777  -0.533   0.043  0.00  0.00    -0.075 C 
ATOM     34  N   UNL     1       2.073  -0.006   1.218  0.00  0.00    +0.384 N 
ATOM     35  C   UNL     1       0.696  -0.517   1.245  0.00  0.00    -0.075 C 
ATOM     36  C   UNL     1       2.832  -0.582  -2.456  0.00  0.00    +0.005 C 
ATOM     37  H   UNL     1       2.055   1.002   1.174  0.00  0.00    -0.081 HD
ENDBRANCH  28  34
ENDBRANCH  21  28
ENDBRANCH   1  26
TORSDOF 6
