REMARK  Name = ZINC40370166
REMARK  6 active torsions:
REMARK  status: ('A' for Active; 'I' for Inactive)
REMARK    1  A    between atoms: C_1  and  C_2
REMARK    2  A    between atoms: C_2  and  C_3
REMARK    3  A    between atoms: C_3  and  C_5
REMARK    4  A    between atoms: C_3  and  N_9
REMARK    5  A    between atoms: N_6  and  O_7
REMARK    6  A    between atoms: C_10  and  C_12
REMARK                            x       y       z     vdW  Elec       q    Type
REMARK                         _______ _______ _______ _____ _____    ______ ____
ROOT
ATOM      1  N   UNL     1       2.125  -0.091  -1.209  0.00  0.00    -0.301 N 
ATOM      2  C   UNL     1       2.487   1.134  -1.640  0.00  0.00    +0.251 C 
ATOM      3  O   UNL     1       1.646   1.902  -2.068  0.00  0.00    -0.270 OA
ATOM      4  H   UNL     1       2.795  -0.703  -0.868  0.00  0.00    +0.150 HD
ENDROOT
BRANCH   2   5
ATOM      5  C   UNL     1       3.895   1.540  -1.592  0.00  0.00    +0.074 A 
ATOM      6  C   UNL     1       4.470   2.738  -1.974  0.00  0.00    +0.024 A 
ATOM      7  C   UNL     1       5.843   2.852  -1.817  0.00  0.00    -0.036 A 
ATOM      8  C   UNL     1       6.492   1.769  -1.301  0.00  0.00    -0.006 A 
ATOM      9  S   UNL     1       5.312   0.622  -1.019  0.00  0.00    -0.088 S 
ATOM     10  C   UNL     1       7.965   1.646  -1.039  0.00  0.00    +0.043 C 
ATOM     11  C   UNL     1       8.687   2.776  -1.786  0.00  0.00    +0.005 C 
ATOM     12  C   UNL     1       7.969   4.097  -1.494  0.00  0.00    +0.005 C 
ATOM     13  C   UNL     1       6.611   4.116  -2.195  0.00  0.00    +0.036 C 
ENDBRANCH   2   5
BRANCH   1  14
ATOM     14  C   UNL     1       0.718  -0.497  -1.257  0.00  0.00    +0.139 C 
BRANCH  14  15
ATOM     15  C   UNL     1       0.632  -2.000  -1.327  0.00  0.00    +0.152 C 
ATOM     16  N   UNL     1      -0.408  -2.564  -1.848  0.00  0.00    -0.075 NA
ATOM     17  N   UNL     1       1.661  -2.773  -0.837  0.00  0.00    -0.342 N 
ATOM     18  H   UNL     1       2.441  -2.350  -0.446  0.00  0.00    +0.144 HD
ATOM     19  H   UNL     1       1.605  -3.740  -0.883  0.00  0.00    +0.144 HD
BRANCH  16  20
ATOM     20  O   UNL     1      -0.489  -3.976  -1.915  0.00  0.00    -0.408 OA
ATOM     21  H   UNL     1      -1.303  -4.304  -2.320  0.00  0.00    +0.328 HD
ENDBRANCH  16  20
ENDBRANCH  14  15
BRANCH  14  23
ATOM     22  C   UNL     1      -0.019   1.526   0.010  0.00  0.00    +0.006 C 
ATOM     23  C   UNL     1       0.002  -0.004   0.002  0.00  0.00    +0.027 C 
ENDBRANCH  14  23
ENDBRANCH   1  14
TORSDOF 5
