REMARK  Name = ZINC12559580
REMARK  6 active torsions:
REMARK  status: ('A' for Active; 'I' for Inactive)
REMARK    1  A    between atoms: C_4  and  C_7
REMARK    2  A    between atoms: C_8  and  C_28
REMARK    3  A    between atoms: C_9  and  C_15
REMARK    4  A    between atoms: C_17  and  N_25
REMARK    5  A    between atoms: C_20  and  O_21
REMARK    6  A    between atoms: O_21  and  C_22
REMARK                            x       y       z     vdW  Elec       q    Type
REMARK                         _______ _______ _______ _____ _____    ______ ____
ROOT
ATOM      1  C   UNL     1       3.487  -0.712  -0.289  0.00  0.00    +0.050 C 
ATOM      2  C   UNL     1       3.614  -2.047  -0.064  0.00  0.00    +0.031 C 
ATOM      3  C   UNL     1       5.014  -2.623  -0.012  0.00  0.00    +0.143 C 
ATOM      4  N   UNL     1       6.132  -1.687  -0.211  0.00  0.00    -0.288 N 
ATOM      5  C   UNL     1       5.858  -0.386  -0.425  0.00  0.00    +0.305 C 
ATOM      6  O   UNL     1       6.780   0.390  -0.590  0.00  0.00    -0.252 OA
ATOM      7  N   UNL     1       4.604   0.083  -0.469  0.00  0.00    -0.269 N 
ATOM      8  H   UNL     1       7.050  -2.001  -0.187  0.00  0.00    +0.151 HD
ATOM      9  H   UNL     1       4.473   1.031  -0.631  0.00  0.00    +0.156 HD
ENDROOT
BRANCH   2  10
ATOM     10  C   UNL     1       2.439  -2.897   0.122  0.00  0.00    +0.109 A 
ATOM     11  N   UNL     1       2.054  -3.945  -0.584  0.00  0.00    -0.239 NA
ATOM     12  C   UNL     1       0.938  -4.639  -0.293  0.00  0.00    +0.079 A 
ATOM     13  C   UNL     1       0.414  -5.772  -0.962  0.00  0.00    +0.029 A 
ATOM     14  C   UNL     1      -0.736  -6.362  -0.539  0.00  0.00    +0.002 A 
ATOM     15  C   UNL     1      -1.440  -5.883   0.557  0.00  0.00    +0.001 A 
ATOM     16  C   UNL     1      -0.963  -4.779   1.239  0.00  0.00    +0.017 A 
ATOM     17  C   UNL     1       0.198  -4.176   0.821  0.00  0.00    +0.040 A 
ATOM     18  S   UNL     1       1.162  -2.788   1.368  0.00  0.00    -0.067 S 
ENDBRANCH   2  10
BRANCH   1  22
ATOM     19  C   UNL     1      -0.381   1.031  -0.460  0.00  0.00    +0.000 A 
ATOM     20  C   UNL     1       0.595   1.597   0.342  0.00  0.00    +0.001 A 
ATOM     21  C   UNL     1       1.853   1.036   0.402  0.00  0.00    +0.010 A 
ATOM     22  C   UNL     1       2.142  -0.106  -0.348  0.00  0.00    -0.003 A 
ATOM     23  C   UNL     1       1.152  -0.673  -1.154  0.00  0.00    +0.010 A 
ATOM     24  C   UNL     1      -0.102  -0.101  -1.205  0.00  0.00    +0.001 A 
ENDBRANCH   1  22
BRANCH   3  25
ATOM     25  C   UNL     1       5.195  -3.282   1.331  0.00  0.00    +0.021 A 
ATOM     26  C   UNL     1       5.725  -2.565   2.387  0.00  0.00    +0.042 A 
ATOM     27  C   UNL     1       5.891  -3.169   3.619  0.00  0.00    +0.127 A 
ATOM     28  C   UNL     1       5.528  -4.492   3.799  0.00  0.00    +0.036 A 
ATOM     29  C   UNL     1       4.998  -5.212   2.746  0.00  0.00    +0.048 A 
ATOM     30  C   UNL     1       4.824  -4.606   1.510  0.00  0.00    +0.132 A 
BRANCH  27  31
ATOM     31  N   UNL     1       6.460  -2.400   4.748  0.00  0.00    +0.056 N 
ATOM     32  O   UNL     1       6.778  -1.244   4.593  0.00  0.00    -0.126 OA
ATOM     33  O   UNL     1       6.606  -2.927   5.827  0.00  0.00    -0.126 OA
ENDBRANCH  27  31
BRANCH  30  34
ATOM     34  O   UNL     1       4.298  -5.311   0.474  0.00  0.00    -0.434 OA
BRANCH  34  35
ATOM     35  C   UNL     1       4.027  -6.696   0.703  0.00  0.00    +0.541 C 
ATOM     36  F   UNL     1       5.196  -7.336   1.127  0.00  0.00    -0.166 F 
ATOM     37  F   UNL     1       3.043  -6.821   1.690  0.00  0.00    -0.166 F 
ENDBRANCH  34  35
ENDBRANCH  30  34
ENDBRANCH   3  25
TORSDOF 6
