REMARK  Name = ZINC63458473
REMARK  13 active torsions:
REMARK  status: ('A' for Active; 'I' for Inactive)
REMARK    1  A    between atoms: C_1  and  C_2
REMARK    2  A    between atoms: C_2  and  C_3
REMARK    3  A    between atoms: C_2  and  C_4
REMARK    4  A    between atoms: C_2  and  O_5
REMARK    5  A    between atoms: O_5  and  C_6
REMARK    6  A    between atoms: N_8  and  C_9
REMARK    7  A    between atoms: C_9  and  C_11
REMARK    8  A    between atoms: C_9  and  C_21
REMARK    9  A    between atoms: C_11  and  C_12
REMARK   10  A    between atoms: C_25  and  S_28
REMARK   11  A    between atoms: S_28  and  C_29
REMARK   12  A    between atoms: C_29  and  C_30
REMARK   13  A    between atoms: C_30  and  C_32
REMARK                            x       y       z     vdW  Elec       q    Type
REMARK                         _______ _______ _______ _____ _____    ______ ____
ROOT
ATOM      1  C   UNL     1       3.853  -0.485  -2.275  0.00  0.00    +0.133 C 
ENDROOT
BRANCH   1   2
ATOM      2  C   UNL     1       4.544  -1.211  -1.119  0.00  0.00    +0.280 C 
ATOM      3  N   UNL     1       4.452  -2.665  -1.303  0.00  0.00    -0.155 NA
ATOM      4  N   UNL     1       5.546  -3.194  -1.066  0.00  0.00    -0.146 NA
ATOM      5  C   UNL     1       6.529  -2.171  -0.687  0.00  0.00    +0.319 C 
ATOM      6  O   UNL     1       5.956  -0.916  -1.116  0.00  0.00    -0.316 OA
BRANCH   5   7
ATOM      7  S   UNL     1       8.105  -2.468  -1.535  0.00  0.00    -0.097 S 
BRANCH   7   8
ATOM      8  C   UNL     1       7.703  -2.271  -3.293  0.00  0.00    +0.153 C 
BRANCH   8   9
ATOM      9  C   UNL     1       8.910  -2.615  -4.126  0.00  0.00    +0.173 C 
ATOM     10  O   UNL     1       9.911  -3.046  -3.595  0.00  0.00    -0.291 OA
BRANCH   9  11
ATOM     11  C   UNL     1       8.874  -2.428  -5.585  0.00  0.00    +0.018 A 
ATOM     12  C   UNL     1       7.764  -1.828  -6.189  0.00  0.00    +0.013 A 
ATOM     13  C   UNL     1       7.738  -1.656  -7.556  0.00  0.00    +0.020 A 
ATOM     14  C   UNL     1       8.806  -2.076  -8.332  0.00  0.00    +0.041 A 
ATOM     15  C   UNL     1       9.909  -2.672  -7.740  0.00  0.00    +0.020 A 
ATOM     16  C   UNL     1       9.951  -2.845  -6.374  0.00  0.00    +0.013 A 
ATOM     17 CL   UNL     1       8.764  -1.857 -10.053  0.00  0.00    -0.084 Cl
ENDBRANCH   9  11
ENDBRANCH   8   9
ENDBRANCH   7   8
ENDBRANCH   5   7
ENDBRANCH   1   2
BRANCH   1  20
ATOM     18  C   UNL     1       1.686  -0.630  -1.170  0.00  0.00    +0.401 C 
ATOM     19  O   UNL     1       2.175  -0.091  -0.197  0.00  0.00    -0.226 OA
ATOM     20  N   UNL     1       2.427  -0.821  -2.279  0.00  0.00    -0.274 N 
ATOM     21  H   UNL     1       2.016  -1.181  -3.081  0.00  0.00    +0.152 HD
BRANCH  18  22
ATOM     22  O   UNL     1       0.403  -1.038  -1.139  0.00  0.00    -0.445 OA
BRANCH  22  24
ATOM     23  C   UNL     1      -0.368   0.620   0.441  0.00  0.00    +0.055 C 
ATOM     24  C   UNL     1      -0.302  -0.868   0.093  0.00  0.00    +0.107 C 
ATOM     25  C   UNL     1       0.428  -1.621   1.207  0.00  0.00    +0.055 C 
ATOM     26  C   UNL     1      -1.721  -1.421  -0.051  0.00  0.00    +0.055 C 
ENDBRANCH  22  24
ENDBRANCH  18  22
ENDBRANCH   1  20
BRANCH   1  27
ATOM     27  C   UNL     1       4.020   1.026  -2.100  0.00  0.00    +0.060 C 
BRANCH  27  28
ATOM     28  C   UNL     1       3.446   1.736  -3.300  0.00  0.00    -0.040 C 
ATOM     29  C   UNL     1       2.204   2.257  -3.419  0.00  0.00    -0.001 A 
ATOM     30  C   UNL     1       1.058   2.315  -2.504  0.00  0.00    +0.010 A 
ATOM     31  C   UNL     1      -0.081   2.916  -2.916  0.00  0.00    +0.001 A 
ATOM     32  C   UNL     1      -0.195   3.484  -4.193  0.00  0.00    +0.002 A 
ATOM     33  C   UNL     1       0.815   3.470  -5.089  0.00  0.00    +0.026 A 
ATOM     34  C   UNL     1       2.059   2.864  -4.761  0.00  0.00    +0.043 A 
ATOM     35  N   UNL     1       3.168   2.724  -5.445  0.00  0.00    -0.380 N 
ATOM     36  C   UNL     1       4.146   2.017  -4.611  0.00  0.00    +0.144 C 
ATOM     37  H   UNL     1       3.319   3.039  -6.350  0.00  0.00    +0.160 HD
ENDBRANCH  27  28
ENDBRANCH   1  27
TORSDOF 10
