REMARK  Name = ZINC39600562
REMARK  9 active torsions:
REMARK  status: ('A' for Active; 'I' for Inactive)
REMARK    1  A    between atoms: C_1  and  O_2
REMARK    2  A    between atoms: O_2  and  C_3
REMARK    3  A    between atoms: C_6  and  O_37
REMARK    4  A    between atoms: C_7  and  C_9
REMARK    5  A    between atoms: C_13  and  C_22
REMARK    6  A    between atoms: N_24  and  C_25
REMARK    7  A    between atoms: C_25  and  C_26
REMARK    8  A    between atoms: C_28  and  C_33
REMARK    9  A    between atoms: O_37  and  C_38
REMARK                            x       y       z     vdW  Elec       q    Type
REMARK                         _______ _______ _______ _____ _____    ______ ____
ROOT
ATOM      1  C   UNL     1      -2.488  -3.951   0.091  0.00  0.00    +0.250 C 
ATOM      2  O   UNL     1      -3.584  -4.476   0.123  0.00  0.00    -0.270 OA
ATOM      3  N   UNL     1      -1.383  -4.706  -0.071  0.00  0.00    -0.296 N 
ATOM      4  C   UNL     1       0.031  -4.267  -0.029  0.00  0.00    +0.121 C 
ATOM      5  C   UNL     1       0.771  -5.403   0.714  0.00  0.00    +0.100 C 
ATOM      6  C   UNL     1      -0.113  -6.645   0.510  0.00  0.00    -0.004 C 
ATOM      7  C   UNL     1      -1.309  -6.165  -0.325  0.00  0.00    +0.115 C 
ATOM      8  C   UNL     1      -0.596  -7.176   1.856  0.00  0.00    -0.010 C 
ATOM      9  C   UNL     1      -1.425  -8.444   1.631  0.00  0.00    -0.082 C 
ATOM     10  N   UNL     1      -0.605  -9.453   0.950  0.00  0.00    +0.379 N 
ATOM     11  C   UNL     1      -0.222  -8.971  -0.382  0.00  0.00    -0.082 C 
ATOM     12  C   UNL     1       0.658  -7.725  -0.243  0.00  0.00    -0.010 C 
ATOM     13  H   UNL     1       0.226  -9.632   1.493  0.00  0.00    -0.086 HD
ATOM     14  H   UNL     1      -1.134 -10.308   0.858  0.00  0.00    -0.086 HD
ENDROOT
BRANCH   1  19
ATOM     15  C   UNL     1      -1.258  -0.426  -0.326  0.00  0.00    +0.121 A 
ATOM     16  C   UNL     1      -2.143   0.268   0.492  0.00  0.00    +0.049 A 
ATOM     17  C   UNL     1      -3.134  -0.406   1.176  0.00  0.00    +0.050 A 
ATOM     18  C   UNL     1      -3.255  -1.782   1.051  0.00  0.00    +0.132 A 
ATOM     19  C   UNL     1      -2.367  -2.487   0.229  0.00  0.00    +0.082 A 
ATOM     20  C   UNL     1      -1.369  -1.797  -0.464  0.00  0.00    +0.062 A 
BRANCH  15  22
ATOM     21  C   UNL     1      -0.227   1.662  -0.807  0.00  0.00    +0.277 C 
ATOM     22  O   UNL     1      -0.285   0.247  -0.996  0.00  0.00    -0.495 OA
ENDBRANCH  15  22
BRANCH  18  23
ATOM     23  O   UNL     1      -4.230  -2.443   1.725  0.00  0.00    -0.494 OA
ATOM     24  C   UNL     1      -5.098  -1.659   2.545  0.00  0.00    +0.277 C 
ENDBRANCH  18  23
ENDBRANCH   1  19
BRANCH   5  25
ATOM     25  C   UNL     1       2.135  -5.622   0.112  0.00  0.00    +0.218 C 
ATOM     26  O   UNL     1       2.318  -5.410  -1.068  0.00  0.00    -0.275 OA
ATOM     27  N   UNL     1       3.151  -6.054   0.885  0.00  0.00    -0.311 N 
ATOM     28  H   UNL     1       3.004  -6.224   1.828  0.00  0.00    +0.149 HD
BRANCH  27  29
ATOM     29  C   UNL     1       4.477  -6.267   0.300  0.00  0.00    +0.139 C 
BRANCH  29  30
ATOM     30  C   UNL     1       5.426  -6.747   1.368  0.00  0.00    -0.027 A 
ATOM     31  C   UNL     1       6.149  -5.832   2.111  0.00  0.00    +0.017 A 
ATOM     32  C   UNL     1       7.020  -6.271   3.090  0.00  0.00    +0.058 A 
ATOM     33  C   UNL     1       7.169  -7.624   3.328  0.00  0.00    +0.050 A 
ATOM     34  C   UNL     1       6.445  -8.541   2.585  0.00  0.00    +0.124 A 
ATOM     35  C   UNL     1       5.569  -8.100   1.608  0.00  0.00    +0.043 A 
ATOM     36  F   UNL     1       6.591  -9.864   2.816  0.00  0.00    -0.205 F 
BRANCH  32  37
ATOM     37  C   UNL     1       7.808  -5.272   3.899  0.00  0.00    +0.418 C 
ATOM     38  F   UNL     1       7.077  -4.914   5.037  0.00  0.00    -0.166 F 
ATOM     39  F   UNL     1       9.025  -5.843   4.287  0.00  0.00    -0.166 F 
ATOM     40  F   UNL     1       8.052  -4.133   3.125  0.00  0.00    -0.166 F 
ENDBRANCH  32  37
ENDBRANCH  29  30
ENDBRANCH  27  29
ENDBRANCH   5  25
TORSDOF 7
