REMARK  Name = ZINC05482655
REMARK  5 active torsions:
REMARK  status: ('A' for Active; 'I' for Inactive)
REMARK    1  A    between atoms: C_1  and  C_2
REMARK    2  A    between atoms: N_4  and  C_18
REMARK    3  A    between atoms: C_7  and  C_9
REMARK    4  A    between atoms: C_9  and  N_10
REMARK    5  A    between atoms: N_10  and  C_11
REMARK                            x       y       z     vdW  Elec       q    Type
REMARK                         _______ _______ _______ _____ _____    ______ ____
ROOT
ATOM      1  C   UNL     1      -0.018   1.503   0.010  0.00  0.00    +0.063 C 
ATOM      2  C   UNL     1       0.002  -0.004   0.002  0.00  0.00    +0.048 C 
ATOM      3  N   UNL     1       0.008  -0.756  -1.029  0.00  0.00    -0.181 NA
ATOM      4  N   UNL     1       0.029  -2.112  -0.717  0.00  0.00    -0.160 N 
ATOM      5  C   UNL     1       0.037  -2.304   0.619  0.00  0.00    +0.249 C 
ATOM      6  O   UNL     1       0.055  -3.361   1.212  0.00  0.00    -0.273 OA
ATOM      7  C   UNL     1       0.026  -0.910   1.216  0.00  0.00    +0.140 C 
ENDROOT
BRANCH   4   8
ATOM      8  C   UNL     1       0.039  -3.142  -1.665  0.00  0.00    +0.060 A 
ATOM      9  C   UNL     1       0.053  -4.468  -1.252  0.00  0.00    +0.025 A 
ATOM     10  C   UNL     1       0.063  -5.481  -2.190  0.00  0.00    +0.002 A 
ATOM     11  C   UNL     1       0.059  -5.178  -3.539  0.00  0.00    +0.000 A 
ATOM     12  C   UNL     1       0.044  -3.858  -3.954  0.00  0.00    +0.002 A 
ATOM     13  C   UNL     1       0.028  -2.840  -3.021  0.00  0.00    +0.025 A 
ENDBRANCH   4   8
BRANCH   7  14
ATOM     14  C   UNL     1       1.288  -0.666   2.045  0.00  0.00    +0.120 C 
BRANCH  14  15
ATOM     15  N   UNL     1       1.230  -1.466   3.271  0.00  0.00    -0.343 N 
ATOM     16  H   UNL     1       0.463  -2.034   3.442  0.00  0.00    +0.146 HD
BRANCH  15  17
ATOM     17  C   UNL     1       2.278  -1.409   4.193  0.00  0.00    +0.027 A 
ATOM     18  C   UNL     1       3.374  -0.591   3.951  0.00  0.00    +0.024 A 
ATOM     19  C   UNL     1       4.409  -0.537   4.864  0.00  0.00    +0.017 A 
ATOM     20  C   UNL     1       4.354  -1.297   6.019  0.00  0.00    +0.018 A 
ATOM     21  C   UNL     1       3.264  -2.113   6.262  0.00  0.00    +0.017 A 
ATOM     22  C   UNL     1       2.223  -2.166   5.356  0.00  0.00    +0.024 A 
ATOM     23 BR   UNL     1       5.774  -1.221   7.266  0.00  0.00    -0.050 Br
ENDBRANCH  15  17
ENDBRANCH  14  15
ENDBRANCH   7  14
TORSDOF 4
