REMARK  Name = ZINC36051780
REMARK  9 active torsions:
REMARK  status: ('A' for Active; 'I' for Inactive)
REMARK    1  A    between atoms: C_1  and  C_2
REMARK    2  A    between atoms: C_2  and  C_3
REMARK    3  A    between atoms: C_3  and  C_4
REMARK    4  A    between atoms: C_4  and  N_5
REMARK    5  A    between atoms: C_6  and  C_8
REMARK    6  A    between atoms: C_13  and  C_15
REMARK    7  A    between atoms: C_20  and  O_21
REMARK    8  A    between atoms: O_21  and  C_22
REMARK    9  A    between atoms: C_23  and  C_25
REMARK                            x       y       z     vdW  Elec       q    Type
REMARK                         _______ _______ _______ _____ _____    ______ ____
ROOT
ATOM      1  C   UNL     1       2.310  -4.348   3.866  0.00  0.00    +0.101 C 
ATOM      2  C   UNL     1       3.801  -3.960   3.769  0.00  0.00    +0.121 C 
ATOM      3  N   UNL     1       4.528  -5.121   4.334  0.00  0.00    -0.294 N 
ATOM      4  C   UNL     1       3.789  -6.299   3.823  0.00  0.00    +0.117 C 
ATOM      5  C   UNL     1       2.300  -5.891   3.903  0.00  0.00    +0.053 C 
ATOM      6  C   UNL     1       5.614  -5.108   5.132  0.00  0.00    +0.282 C 
ATOM      7  O   UNL     1       6.100  -6.156   5.516  0.00  0.00    -0.267 OA
ENDROOT
BRANCH   5   8
ATOM      8  C   UNL     1       1.542  -6.438   2.722  0.00  0.00    -0.000 A 
ATOM      9  C   UNL     1       2.039  -6.271   1.444  0.00  0.00    +0.007 A 
ATOM     10  C   UNL     1       1.343  -6.772   0.359  0.00  0.00    +0.001 A 
ATOM     11  C   UNL     1       0.149  -7.443   0.550  0.00  0.00    +0.004 A 
ATOM     12  C   UNL     1      -0.352  -7.613   1.826  0.00  0.00    +0.046 A 
ATOM     13  C   UNL     1       0.347  -7.115   2.917  0.00  0.00    +0.124 A 
BRANCH  13  14
ATOM     14  O   UNL     1      -0.141  -7.286   4.174  0.00  0.00    -0.495 OA
ATOM     15  C   UNL     1      -1.377  -7.993   4.299  0.00  0.00    +0.277 C 
ENDBRANCH  13  14
ENDBRANCH   5   8
BRANCH   6  16
ATOM     16  C   UNL     1       6.212  -3.831   5.537  0.00  0.00    +0.189 A 
ATOM     17  C   UNL     1       7.310  -3.676   6.332  0.00  0.00    +0.054 A 
ATOM     18  C   UNL     1       7.527  -2.295   6.457  0.00  0.00    +0.042 A 
ATOM     19  C   UNL     1       6.563  -1.675   5.740  0.00  0.00    +0.196 A 
ATOM     20  O   UNL     1       5.775  -2.604   5.183  0.00  0.00    -0.458 OA
ENDBRANCH   6  16
BRANCH   1  22
ATOM     21  N   UNL     1       0.215  -3.749   2.696  0.00  0.00    -0.315 N 
ATOM     22  C   UNL     1       1.559  -3.848   2.659  0.00  0.00    +0.218 C 
ATOM     23  O   UNL     1       2.163  -3.535   1.656  0.00  0.00    -0.275 OA
ATOM     24  H   UNL     1      -0.268  -3.999   3.498  0.00  0.00    +0.149 HD
BRANCH  21  25
ATOM     25  C   UNL     1      -0.515  -3.263   1.522  0.00  0.00    +0.104 C 
BRANCH  25  26
ATOM     26  C   UNL     1      -2.014  -3.247   1.825  0.00  0.00    +0.018 C 
BRANCH  26  28
ATOM     27  C   UNL     1      -4.277  -2.724   0.903  0.00  0.00    +0.004 C 
ATOM     28  C   UNL     1      -2.777  -2.740   0.600  0.00  0.00    -0.002 C 
ENDBRANCH  26  28
ENDBRANCH  25  26
ENDBRANCH  21  25
ENDBRANCH   1  22
TORSDOF 7
