REMARK  Name = ZINC00820408
REMARK  12 active torsions:
REMARK  status: ('A' for Active; 'I' for Inactive)
REMARK    1  A    between atoms: C_1  and  C_2
REMARK    2  A    between atoms: C_2  and  O_3
REMARK    3  A    between atoms: O_3  and  C_4
REMARK    4  A    between atoms: C_4  and  C_6
REMARK    5  A    between atoms: C_6  and  C_8
REMARK    6  A    between atoms: C_6  and  N_30
REMARK    7  A    between atoms: C_8  and  C_9
REMARK    8  A    between atoms: C_12  and  N_15
REMARK    9  A    between atoms: C_16  and  C_18
REMARK   10  A    between atoms: C_18  and  N_26
REMARK   11  A    between atoms: C_19  and  C_20
REMARK   12  A    between atoms: C_27  and  C_29
REMARK                            x       y       z     vdW  Elec       q    Type
REMARK                         _______ _______ _______ _____ _____    ______ ____
ROOT
ATOM      1  C   UNL     1      -3.393   1.246  -2.881  0.00  0.00    -0.045 A 
ATOM      2  C   UNL     1      -2.010   1.253  -2.901  0.00  0.00    +0.005 A 
ATOM      3  C   UNL     1      -1.331   0.812  -4.020  0.00  0.00    +0.023 A 
ATOM      4  C   UNL     1      -2.039   0.372  -5.131  0.00  0.00    +0.034 A 
ATOM      5  C   UNL     1      -3.428   0.372  -5.110  0.00  0.00    +0.023 A 
ATOM      6  C   UNL     1      -4.101   0.809  -3.986  0.00  0.00    +0.005 A 
ENDROOT
BRANCH   4   7
ATOM      7  N   UNL     1      -1.355  -0.070  -6.267  0.00  0.00    -0.280 N 
ATOM      8  C   UNL     1      -0.123   0.404  -6.539  0.00  0.00    +0.262 C 
ATOM      9  O   UNL     1       0.436   1.137  -5.745  0.00  0.00    -0.268 OA
ATOM     10  H   UNL     1      -1.767  -0.718  -6.860  0.00  0.00    +0.155 HD
BRANCH   8  11
ATOM     11  C   UNL     1       0.545   0.036  -7.796  0.00  0.00    +0.097 C 
ATOM     12  C   UNL     1       1.720   0.616  -8.132  0.00  0.00    +0.036 C 
BRANCH  12  13
ATOM     13  C   UNL     1       2.470   0.133  -9.302  0.00  0.00    -0.023 A 
ATOM     14  C   UNL     1       2.376  -1.206  -9.694  0.00  0.00    +0.008 A 
ATOM     15  C   UNL     1       3.077  -1.649 -10.796  0.00  0.00    +0.001 A 
ATOM     16  C   UNL     1       3.882  -0.775 -11.505  0.00  0.00    +0.000 A 
ATOM     17  C   UNL     1       3.985   0.550 -11.120  0.00  0.00    +0.001 A 
ATOM     18  C   UNL     1       3.286   1.010 -10.024  0.00  0.00    +0.008 A 
ENDBRANCH  12  13
BRANCH  11  19
ATOM     19  N   UNL     1      -0.035  -0.913  -8.644  0.00  0.00    -0.282 N 
ATOM     20  C   UNL     1      -0.129  -2.199  -8.252  0.00  0.00    +0.214 C 
ATOM     21  O   UNL     1       0.299  -2.535  -7.167  0.00  0.00    -0.276 OA
ATOM     22  C   UNL     1      -0.765  -3.219  -9.160  0.00  0.00    +0.109 C 
ATOM     23  H   UNL     1      -0.369  -0.646  -9.514  0.00  0.00    +0.155 HD
ENDBRANCH  11  19
ENDBRANCH   8  11
ENDBRANCH   4   7
BRANCH   1  24
ATOM     24  C   UNL     1      -4.130   1.723  -1.657  0.00  0.00    +0.069 C 
BRANCH  24  25
ATOM     25  C   UNL     1      -4.372   0.541  -0.715  0.00  0.00    +0.197 C 
BRANCH  25  26
ATOM     26  N   UNL     1      -3.087   0.038  -0.223  0.00  0.00    -0.220 N 
ATOM     27  C   UNL     1      -2.636  -1.214  -0.416  0.00  0.00    +0.255 C 
ATOM     28  O   UNL     1      -3.219  -2.093  -1.017  0.00  0.00    -0.270 OA
ATOM     29  C   UNL     1      -1.307  -1.339   0.220  0.00  0.00    +0.049 A 
ATOM     30  C   UNL     1      -0.384  -2.366   0.338  0.00  0.00    +0.014 A 
ATOM     31  C   UNL     1       0.803  -2.147   1.020  0.00  0.00    +0.001 A 
ATOM     32  C   UNL     1       1.071  -0.912   1.581  0.00  0.00    +0.001 A 
ATOM     33  C   UNL     1       0.157   0.123   1.471  0.00  0.00    +0.014 A 
ATOM     34  C   UNL     1      -1.034  -0.081   0.792  0.00  0.00    +0.049 A 
ATOM     35  C   UNL     1      -2.205   0.767   0.485  0.00  0.00    +0.255 C 
ATOM     36  O   UNL     1      -2.345   1.928   0.812  0.00  0.00    -0.270 OA
ENDBRANCH  25  26
BRANCH  25  37
ATOM     37  C   UNL     1      -5.215   0.992   0.450  0.00  0.00    +0.329 C 
ATOM     38  O   UNL     1      -4.786   0.902   1.576  0.00  0.00    -0.249 OA
BRANCH  37  39
ATOM     39  O   UNL     1      -6.442   1.493   0.237  0.00  0.00    -0.464 OA
BRANCH  39  41
ATOM     40  C   UNL     1      -8.559   2.448   0.968  0.00  0.00    +0.048 C 
ATOM     41  C   UNL     1      -7.197   1.907   1.406  0.00  0.00    +0.229 C 
ENDBRANCH  39  41
ENDBRANCH  37  39
ENDBRANCH  25  37
ENDBRANCH  24  25
ENDBRANCH   1  24
TORSDOF 10
