REMARK  Name = ZINC43218886
REMARK  7 active torsions:
REMARK  status: ('A' for Active; 'I' for Inactive)
REMARK    1  A    between atoms: C_1  and  C_2
REMARK    2  A    between atoms: C_2  and  C_3
REMARK    3  A    between atoms: C_6  and  N_9
REMARK    4  A    between atoms: C_14  and  C_31
REMARK    5  A    between atoms: C_17  and  C_22
REMARK    6  A    between atoms: C_17  and  C_28
REMARK    7  A    between atoms: C_34  and  C_37
REMARK                            x       y       z     vdW  Elec       q    Type
REMARK                         _______ _______ _______ _____ _____    ______ ____
ROOT
ATOM      1  N   UNL     1       2.361  -2.022  -4.970  0.00  0.00    -0.210 N 
ATOM      2  C   UNL     1       1.872  -2.323  -6.217  0.00  0.00    +0.229 C 
ATOM      3  O   UNL     1       0.767  -2.086  -6.656  0.00  0.00    -0.275 OA
ATOM      4  C   UNL     1       2.966  -2.983  -6.889  0.00  0.00    +0.078 C 
ATOM      5  C   UNL     1       3.412  -3.332  -8.245  0.00  0.00    -0.026 C 
ATOM      6  N   UNL     1       4.879  -3.605  -8.095  0.00  0.00    +0.398 N 
ATOM      7  C   UNL     1       5.255  -3.283  -6.680  0.00  0.00    +0.074 C 
ATOM      8  C   UNL     1       4.214  -2.206  -6.307  0.00  0.00    +0.090 C 
ATOM      9  C   UNL     1       3.718  -2.158  -4.888  0.00  0.00    +0.229 C 
ATOM     10  O   UNL     1       4.385  -2.229  -3.878  0.00  0.00    -0.275 OA
ATOM     11  H   UNL     1       5.068  -4.577  -8.287  0.00  0.00    -0.083 HD
ATOM     12  H   UNL     1       5.403  -3.020  -8.730  0.00  0.00    -0.083 HD
ENDROOT
BRANCH   1  16
ATOM     13  C   UNL     1      -0.034  -0.807  -1.782  0.00  0.00    -0.048 A 
ATOM     14  C   UNL     1      -0.609  -1.096  -3.006  0.00  0.00    +0.005 A 
ATOM     15  C   UNL     1       0.182  -1.499  -4.064  0.00  0.00    +0.024 A 
ATOM     16  C   UNL     1       1.556  -1.613  -3.898  0.00  0.00    +0.044 A 
ATOM     17  C   UNL     1       2.130  -1.321  -2.668  0.00  0.00    +0.024 A 
ATOM     18  C   UNL     1       1.335  -0.914  -1.615  0.00  0.00    +0.005 A 
BRANCH  13  20
ATOM     19  C   UNL     1      -1.035   1.156  -0.645  0.00  0.00    +0.009 C 
ATOM     20  C   UNL     1      -0.900  -0.368  -0.629  0.00  0.00    +0.032 C 
ENDBRANCH  13  20
ENDBRANCH   1  16
BRANCH   7  21
ATOM     21  C   UNL     1       5.135  -4.503  -5.804  0.00  0.00    -0.047 A 
ATOM     22  C   UNL     1       4.490  -5.632  -6.277  0.00  0.00    +0.003 A 
ATOM     23  C   UNL     1       4.380  -6.751  -5.473  0.00  0.00    +0.000 A 
ATOM     24  C   UNL     1       4.914  -6.743  -4.199  0.00  0.00    +0.000 A 
ATOM     25  C   UNL     1       5.559  -5.615  -3.727  0.00  0.00    +0.000 A 
ATOM     26  C   UNL     1       5.673  -4.497  -4.531  0.00  0.00    +0.003 A 
ENDBRANCH   7  21
BRANCH   5  27
ATOM     27  C   UNL     1       3.181  -2.180  -9.188  0.00  0.00    -0.061 A 
ATOM     28  C   UNL     1       4.077  -1.126  -9.220  0.00  0.00    +0.003 A 
ATOM     29  C   UNL     1       3.871  -0.068 -10.081  0.00  0.00    +0.019 A 
ATOM     30  C   UNL     1       2.756  -0.062 -10.921  0.00  0.00    +0.052 A 
ATOM     31  C   UNL     1       1.857  -1.129 -10.884  0.00  0.00    +0.019 A 
ATOM     32  C   UNL     1       2.077  -2.183 -10.022  0.00  0.00    +0.003 A 
BRANCH  30  33
ATOM     33  C   UNL     1       2.537   1.034 -11.817  0.00  0.00    +0.099 C 
ATOM     34  N   UNL     1       2.362   1.903 -12.528  0.00  0.00    -0.191 NA
ENDBRANCH  30  33
ENDBRANCH   5  27
BRANCH   7  35
ATOM     35  C   UNL     1       6.649  -2.712  -6.614  0.00  0.00    +0.350 C 
ATOM     36  O   UNL     1       7.309  -2.597  -7.633  0.00  0.00    -0.248 OA
ATOM     37  O   UNL     1       7.115  -2.366  -5.543  0.00  0.00    -0.248 OA
ENDBRANCH   7  35
TORSDOF 6
