REMARK  Name = ZINC01148884
REMARK  8 active torsions:
REMARK  status: ('A' for Active; 'I' for Inactive)
REMARK    1  A    between atoms: C_1  and  C_2
REMARK    2  A    between atoms: C_3  and  C_30
REMARK    3  A    between atoms: C_4  and  C_20
REMARK    4  A    between atoms: C_10  and  C_15
REMARK    5  A    between atoms: C_30  and  O_32
REMARK    6  A    between atoms: O_32  and  C_33
REMARK    7  A    between atoms: C_33  and  C_34
REMARK    8  A    between atoms: C_33  and  C_35
REMARK                            x       y       z     vdW  Elec       q    Type
REMARK                         _______ _______ _______ _____ _____    ______ ____
ROOT
ATOM      1  C   UNL     1      -0.631   0.665  -4.853  0.00  0.00    +0.061 C 
ATOM      2  C   UNL     1      -1.033   1.368  -3.582  0.00  0.00    +0.016 C 
ATOM      3  C   UNL     1      -1.468   2.639  -3.631  0.00  0.00    +0.065 C 
ATOM      4  C   UNL     1      -1.884   3.368  -2.387  0.00  0.00    +0.092 C 
ATOM      5  C   UNL     1      -1.352   2.682  -1.154  0.00  0.00    +0.024 C 
ATOM      6  C   UNL     1      -0.919   1.405  -1.208  0.00  0.00    +0.016 C 
ATOM      7  N   UNL     1      -0.952   0.709  -2.387  0.00  0.00    -0.321 N 
ATOM      8  C   UNL     1      -0.385   0.712   0.022  0.00  0.00    +0.060 C 
ATOM      9  C   UNL     1      -1.080   1.269   1.266  0.00  0.00    +0.039 C 
ATOM     10  C   UNL     1      -0.832   2.780   1.326  0.00  0.00    +0.088 C 
ATOM     11  C   UNL     1      -1.325   3.407   0.051  0.00  0.00    +0.162 C 
ATOM     12  O   UNL     1      -1.706   4.560   0.061  0.00  0.00    -0.292 OA
ATOM     13  H   UNL     1      -0.913  -0.390  -2.366  0.00  0.00    +0.152 HD
ENDROOT
BRANCH   4  14
ATOM     14  C   UNL     1      -3.389   3.409  -2.320  0.00  0.00    -0.035 A 
ATOM     15  C   UNL     1      -4.107   2.216  -2.255  0.00  0.00    +0.005 A 
ATOM     16  C   UNL     1      -5.466   2.219  -2.187  0.00  0.00    +0.009 A 
ATOM     17  C   UNL     1      -6.160   3.441  -2.195  0.00  0.00    -0.018 A 
ATOM     18  C   UNL     1      -7.564   3.484  -2.134  0.00  0.00    +0.008 A 
ATOM     19  C   UNL     1      -8.202   4.686  -2.143  0.00  0.00    +0.001 A 
ATOM     20  C   UNL     1      -7.484   5.878  -2.214  0.00  0.00    +0.001 A 
ATOM     21  C   UNL     1      -6.125   5.876  -2.275  0.00  0.00    +0.008 A 
ATOM     22  C   UNL     1      -5.431   4.654  -2.267  0.00  0.00    -0.018 A 
ATOM     23  C   UNL     1      -4.027   4.611  -2.329  0.00  0.00    +0.013 A 
ENDBRANCH   4  14
BRANCH   9  24
ATOM     24  C   UNL     1      -0.512   0.614   2.499  0.00  0.00    -0.006 A 
ATOM     25  C   UNL     1      -1.147  -0.124   3.442  0.00  0.00    +0.011 A 
ATOM     26  C   UNL     1      -0.415  -0.635   4.498  0.00  0.00    +0.008 A 
ATOM     27  C   UNL     1       0.914  -0.374   4.564  0.00  0.00    +0.045 A 
ATOM     28  S   UNL     1       1.169   0.615   3.099  0.00  0.00    -0.101 S 
ENDBRANCH   9  24
BRANCH   3  29
ATOM     29  C   UNL     1      -1.534   3.301  -4.878  0.00  0.00    +0.338 C 
ATOM     30  O   UNL     1      -1.086   2.767  -5.876  0.00  0.00    -0.245 OA
BRANCH  29  31
ATOM     31  O   UNL     1      -2.095   4.526  -4.963  0.00  0.00    -0.459 OA
BRANCH  31  32
ATOM     32  C   UNL     1      -2.128   5.137  -6.254  0.00  0.00    +0.171 C 
ATOM     33  C   UNL     1      -3.425   4.750  -6.968  0.00  0.00    +0.052 C 
ATOM     34  C   UNL     1      -2.065   6.658  -6.101  0.00  0.00    +0.052 C 
ENDBRANCH  31  32
ENDBRANCH  29  31
ENDBRANCH   3  29
TORSDOF 5
