REMARK  Name = ZINC08715937
REMARK  6 active torsions:
REMARK  status: ('A' for Active; 'I' for Inactive)
REMARK    1  A    between atoms: C_1  and  C_2
REMARK    2  A    between atoms: C_9  and  C_14
REMARK    3  A    between atoms: C_14  and  O_16
REMARK    4  A    between atoms: O_16  and  C_17
REMARK    5  A    between atoms: C_17  and  C_18
REMARK    6  A    between atoms: N_20  and  C_21
REMARK                            x       y       z     vdW  Elec       q    Type
REMARK                         _______ _______ _______ _____ _____    ______ ____
ROOT
ATOM      1  O   UNL     1      -6.019   2.912  -0.231  0.00  0.00    -0.452 OA
ENDROOT
BRANCH   1   2
ATOM      2  C   UNL     1      -7.268   3.412  -0.324  0.00  0.00    +0.340 C 
ATOM      3  O   UNL     1      -7.441   4.614  -0.329  0.00  0.00    -0.245 OA
BRANCH   2  11
ATOM      4  C   UNL     1     -14.654   0.064  -0.260  0.00  0.00    +0.029 C 
ATOM      5  C   UNL     1     -13.293   0.665   0.095  0.00  0.00    +0.134 C 
ATOM      6  C   UNL     1     -13.222   2.083  -0.402  0.00  0.00    +0.230 C 
ATOM      7  O   UNL     1     -14.261   2.695  -0.537  0.00  0.00    -0.274 OA
ATOM      8  N   UNL     1     -12.084   2.702  -0.703  0.00  0.00    -0.284 N 
ATOM      9  C   UNL     1     -10.802   2.167  -0.603  0.00  0.00    +0.048 A 
ATOM     10  C   UNL     1      -9.715   3.020  -0.515  0.00  0.00    +0.039 A 
ATOM     11  C   UNL     1      -8.421   2.500  -0.419  0.00  0.00    +0.061 A 
ATOM     12  C   UNL     1      -8.219   1.116  -0.418  0.00  0.00    +0.016 A 
ATOM     13  C   UNL     1      -9.300   0.267  -0.500  0.00  0.00    +0.017 A 
ATOM     14  C   UNL     1     -10.586   0.784  -0.594  0.00  0.00    +0.030 A 
ATOM     15  S   UNL     1     -11.974  -0.301  -0.700  0.00  0.00    -0.111 S 
ATOM     16  H   UNL     1     -12.154   3.615  -1.022  0.00  0.00    +0.155 HD
ENDBRANCH   2  11
ENDBRANCH   1   2
BRANCH   1  17
ATOM     17  C   UNL     1      -4.931   3.868  -0.141  0.00  0.00    +0.328 C 
BRANCH  17  18
ATOM     18  C   UNL     1      -3.620   3.131  -0.045  0.00  0.00    +0.255 C 
ATOM     19  O   UNL     1      -3.605   1.918  -0.052  0.00  0.00    -0.272 OA
ATOM     20  N   UNL     1      -2.465   3.818   0.048  0.00  0.00    -0.283 N 
ATOM     21  H   UNL     1      -2.481   4.785   0.131  0.00  0.00    +0.155 HD
BRANCH  20  22
ATOM     22  C   UNL     1      -1.241   3.138   0.026  0.00  0.00    +0.037 A 
ATOM     23  C   UNL     1      -0.168   3.614   0.768  0.00  0.00    +0.027 A 
ATOM     24  C   UNL     1       1.042   2.948   0.742  0.00  0.00    +0.051 A 
ATOM     25  C   UNL     1       1.185   1.796  -0.015  0.00  0.00    +0.173 A 
ATOM     26  C   UNL     1       0.108   1.311  -0.754  0.00  0.00    +0.174 A 
ATOM     27  C   UNL     1      -1.102   1.983  -0.732  0.00  0.00    +0.073 A 
ATOM     28  O   UNL     1       0.501   0.177  -1.405  0.00  0.00    -0.395 OA
ATOM     29  C   UNL     1       1.701  -0.255  -0.736  0.00  0.00    +0.589 C 
ATOM     30  O   UNL     1       2.252   0.964  -0.202  0.00  0.00    -0.395 OA
ATOM     31  F   UNL     1       1.394  -1.148   0.296  0.00  0.00    -0.125 F 
ATOM     32  F   UNL     1       2.587  -0.842  -1.645  0.00  0.00    -0.125 F 
ENDBRANCH  20  22
ENDBRANCH  17  18
ENDBRANCH   1  17
TORSDOF 5
