REMARK  Name = ZINC33596610
REMARK  5 active torsions:
REMARK  status: ('A' for Active; 'I' for Inactive)
REMARK    1  A    between atoms: C_1  and  C_2
REMARK    2  A    between atoms: C_7  and  N_12
REMARK    3  A    between atoms: C_9  and  C_11
REMARK    4  A    between atoms: C_13  and  C_15
REMARK    5  A    between atoms: C_18  and  C_20
REMARK                            x       y       z     vdW  Elec       q    Type
REMARK                         _______ _______ _______ _____ _____    ______ ____
ROOT
ATOM      1  C   UNL     1       4.178   0.638   2.378  0.00  0.00    +0.164 A 
ATOM      2  C   UNL     1       4.979   0.822   3.464  0.00  0.00    +0.230 A 
ATOM      3  O   UNL     1       6.152   1.299   3.014  0.00  0.00    -0.443 OA
ATOM      4  C   UNL     1       6.075   1.407   1.676  0.00  0.00    +0.229 A 
ATOM      5  N   UNL     1       4.893   1.007   1.282  0.00  0.00    -0.204 NA
ENDROOT
BRANCH   4   6
ATOM      6  C   UNL     1       7.154   1.895   0.792  0.00  0.00    +0.055 A 
ATOM      7  C   UNL     1       8.387   2.294   1.328  0.00  0.00    +0.018 A 
ATOM      8  C   UNL     1       9.364   2.741   0.462  0.00  0.00    +0.044 A 
ATOM      9  C   UNL     1       9.097   2.782  -0.904  0.00  0.00    +0.116 A 
ATOM     10  N   UNL     1       7.921   2.398  -1.379  0.00  0.00    -0.240 NA
ATOM     11  C   UNL     1       6.964   1.958  -0.588  0.00  0.00    +0.126 A 
ATOM     12  N   UNL     1      10.075   3.231  -1.780  0.00  0.00    -0.343 N 
ATOM     13  H   UNL     1       9.872   3.266  -2.861  0.00  0.00    +0.144 HD
ATOM     14  H   UNL     1      11.054   3.552  -1.394  0.00  0.00    +0.144 HD
ENDBRANCH   4   6
BRANCH   1  16
ATOM     15  N   UNL     1       2.116  -0.004   1.231  0.00  0.00    -0.307 N 
ATOM     16  C   UNL     1       2.795   0.128   2.388  0.00  0.00    +0.266 C 
ATOM     17  O   UNL     1       2.266  -0.174   3.441  0.00  0.00    -0.268 OA
ATOM     18  H   UNL     1       2.595   0.270   0.279  0.00  0.00    +0.149 HD
BRANCH  15  24
ATOM     19  C   UNL     1      -2.173  -0.027  -1.227  0.00  0.00    +0.008 C 
ATOM     20  C   UNL     1      -1.433  -0.534   0.013  0.00  0.00    -0.009 C 
ATOM     21  C   UNL     1      -1.413  -2.063   0.004  0.00  0.00    +0.003 C 
ATOM     22  C   UNL     1      -0.673  -2.570   1.244  0.00  0.00    +0.002 C 
ATOM     23  C   UNL     1       0.763  -2.041   1.233  0.00  0.00    +0.022 C 
ATOM     24  C   UNL     1       0.742  -0.511   1.242  0.00  0.00    +0.076 C 
ATOM     25  C   UNL     1       0.002  -0.004   0.002  0.00  0.00    +0.009 C 
ATOM     26  C   UNL     1      -0.019   1.526   0.010  0.00  0.00    +0.009 C 
ENDBRANCH  15  24
ENDBRANCH   1  16
TORSDOF 3
