REMARK  Name = ZINC31205887
REMARK  10 active torsions:
REMARK  status: ('A' for Active; 'I' for Inactive)
REMARK    1  A    between atoms: C_1  and  N_2
REMARK    2  A    between atoms: N_2  and  C_3
REMARK    3  A    between atoms: N_2  and  C_17
REMARK    4  A    between atoms: C_3  and  C_4
REMARK    5  A    between atoms: N_6  and  C_7
REMARK    6  A    between atoms: C_12  and  S_13
REMARK    7  A    between atoms: S_13  and  C_14
REMARK    8  A    between atoms: C_14  and  C_15
REMARK    9  A    between atoms: C_17  and  C_18
REMARK   10  A    between atoms: N_20  and  C_21
REMARK                            x       y       z     vdW  Elec       q    Type
REMARK                         _______ _______ _______ _____ _____    ______ ____
ROOT
ATOM      1  C   UNL     1       2.934   0.419   1.089  0.00  0.00    -0.095 C 
ATOM      2  N   UNL     1       2.917   1.223  -0.140  0.00  0.00    +0.389 N 
ATOM      3  H   UNL     1       2.741   0.543  -0.987  0.00  0.00    -0.081 HD
ENDROOT
BRANCH   2   4
ATOM      4  C   UNL     1       4.212   1.884  -0.355  0.00  0.00    +0.019 C 
BRANCH   4   5
ATOM      5  C   UNL     1       5.269   0.844  -0.621  0.00  0.00    +0.201 C 
ATOM      6  O   UNL     1       4.973  -0.332  -0.632  0.00  0.00    -0.278 OA
ATOM      7  N   UNL     1       6.543   1.221  -0.848  0.00  0.00    -0.286 N 
ATOM      8  H   UNL     1       6.829   2.278  -0.750  0.00  0.00    +0.155 HD
BRANCH   7   9
ATOM      9  C   UNL     1       7.502   0.266  -1.210  0.00  0.00    +0.047 A 
ATOM     10  C   UNL     1       7.142  -0.819  -1.995  0.00  0.00    +0.024 A 
ATOM     11  C   UNL     1       8.092  -1.757  -2.355  0.00  0.00    +0.002 A 
ATOM     12  C   UNL     1       9.399  -1.625  -1.925  0.00  0.00    +0.001 A 
ATOM     13  C   UNL     1       9.766  -0.550  -1.137  0.00  0.00    +0.016 A 
ATOM     14  C   UNL     1       8.821   0.400  -0.775  0.00  0.00    +0.029 A 
BRANCH  14  15
ATOM     15  S   UNL     1       9.286   1.770   0.230  0.00  0.00    -0.119 S 
BRANCH  15  16
ATOM     16  C   UNL     1      11.056   1.513   0.532  0.00  0.00    +0.101 C 
BRANCH  16  17
ATOM     17  C   UNL     1      11.586   2.631   1.392  0.00  0.00    -0.024 C 
ATOM     18  C   UNL     1      12.030   2.376   2.598  0.00  0.00    +0.005 C 
ENDBRANCH  16  17
ENDBRANCH  15  16
ENDBRANCH  14  15
ENDBRANCH   7   9
ENDBRANCH   4   5
ENDBRANCH   2   4
BRANCH   2  19
ATOM     19  C   UNL     1       1.823   2.204  -0.113  0.00  0.00    +0.019 C 
BRANCH  19  20
ATOM     20  C   UNL     1       0.501   1.481  -0.139  0.00  0.00    +0.201 C 
ATOM     21  O   UNL     1       0.472   0.269  -0.176  0.00  0.00    -0.278 OA
ATOM     22  N   UNL     1      -0.650   2.183  -0.126  0.00  0.00    -0.286 N 
ATOM     23  H   UNL     1      -0.626   3.278  -0.028  0.00  0.00    +0.155 HD
BRANCH  22  24
ATOM     24  C   UNL     1      -1.876   1.517  -0.237  0.00  0.00    +0.047 A 
ATOM     25  C   UNL     1      -1.987   0.192   0.162  0.00  0.00    +0.024 A 
ATOM     26  C   UNL     1      -3.200  -0.461   0.056  0.00  0.00    +0.002 A 
ATOM     27  C   UNL     1      -4.300   0.201  -0.458  0.00  0.00    +0.001 A 
ATOM     28  C   UNL     1      -4.193   1.519  -0.861  0.00  0.00    +0.017 A 
ATOM     29  C   UNL     1      -2.983   2.179  -0.752  0.00  0.00    +0.039 A 
ATOM     30 BR   UNL     1      -2.836   3.982  -1.305  0.00  0.00    -0.048 Br
ENDBRANCH  22  24
ENDBRANCH  19  20
ENDBRANCH   2  19
TORSDOF 9
