REMARK  Name = ZINC21523766
REMARK  7 active torsions:
REMARK  status: ('A' for Active; 'I' for Inactive)
REMARK    1  A    between atoms: C_1  and  C_2
REMARK    2  A    between atoms: C_4  and  C_36
REMARK    3  A    between atoms: C_11  and  C_13
REMARK    4  A    between atoms: C_14  and  C_21
REMARK    5  A    between atoms: C_24  and  O_27
REMARK    6  A    between atoms: O_27  and  C_28
REMARK    7  A    between atoms: C_28  and  C_29
REMARK                            x       y       z     vdW  Elec       q    Type
REMARK                         _______ _______ _______ _____ _____    ______ ____
ROOT
ATOM      1  C   UNL     1       7.252   3.581   6.491  0.00  0.00    +0.066 C 
ATOM      2  C   UNL     1       7.251   3.043   5.083  0.00  0.00    +0.044 A 
ATOM      3  C   UNL     1       8.446   2.792   4.427  0.00  0.00    +0.046 A 
ATOM      4  C   UNL     1       8.399   2.297   3.132  0.00  0.00    +0.044 A 
ATOM      5  N   UNL     1       7.223   2.082   2.567  0.00  0.00    -0.216 NA
ATOM      6  C   UNL     1       6.101   2.333   3.222  0.00  0.00    +0.253 A 
ATOM      7  N   UNL     1       6.110   2.811   4.456  0.00  0.00    -0.216 NA
ATOM      8  N   UNL     1       4.879   2.095   2.594  0.00  0.00    -0.183 N 
ATOM      9  C   UNL     1       4.704   1.492   1.366  0.00  0.00    +0.137 A 
ATOM     10  C   UNL     1       3.376   1.458   1.129  0.00  0.00    +0.033 A 
ATOM     11  C   UNL     1       2.725   2.049   2.234  0.00  0.00    +0.067 A 
ATOM     12  N   UNL     1       3.621   2.424   3.099  0.00  0.00    -0.167 NA
ATOM     13  C   UNL     1       1.235   2.217   2.386  0.00  0.00    +0.068 C 
ATOM     14  C   UNL     1       2.617   0.924  -0.046  0.00  0.00    +0.112 C 
ATOM     15  S   UNL     1       3.486   1.125  -1.603  0.00  0.00    -0.138 S 
ATOM     16  C   UNL     1       4.920   0.046  -1.514  0.00  0.00    +0.166 C 
ATOM     17  C   UNL     1       5.930   0.507  -0.538  0.00  0.00    +0.228 C 
ATOM     18  O   UNL     1       7.082   0.353  -0.883  0.00  0.00    -0.275 OA
ATOM     19  N   UNL     1       5.779   1.051   0.632  0.00  0.00    -0.269 N 
ATOM     20  C   UNL     1       9.672   2.008   2.380  0.00  0.00    +0.066 C 
ATOM     21  H   UNL     1       6.796   1.134   1.043  0.00  0.00    +0.156 HD
ENDROOT
BRANCH  14  22
ATOM     22  C   UNL     1       1.294   1.641  -0.134  0.00  0.00    -0.030 A 
ATOM     23  C   UNL     1       0.122   0.963   0.144  0.00  0.00    +0.008 A 
ATOM     24  C   UNL     1      -1.093   1.617   0.058  0.00  0.00    +0.046 A 
ATOM     25  C   UNL     1      -1.134   2.958  -0.295  0.00  0.00    +0.121 A 
ATOM     26  C   UNL     1       0.044   3.636  -0.573  0.00  0.00    +0.046 A 
ATOM     27  C   UNL     1       1.255   2.976  -0.492  0.00  0.00    +0.008 A 
BRANCH  25  28
ATOM     28  O   UNL     1      -2.326   3.604  -0.375  0.00  0.00    -0.487 OA
BRANCH  28  29
ATOM     29  C   UNL     1      -3.498   2.843  -0.074  0.00  0.00    +0.264 C 
BRANCH  29  30
ATOM     30  C   UNL     1      -4.716   3.720  -0.214  0.00  0.00    -0.010 A 
ATOM     31  C   UNL     1      -5.185   4.429   0.875  0.00  0.00    +0.010 A 
ATOM     32  C   UNL     1      -6.299   5.237   0.747  0.00  0.00    +0.039 A 
ATOM     33  C   UNL     1      -6.951   5.327  -0.471  0.00  0.00    +0.123 A 
ATOM     34  C   UNL     1      -6.484   4.612  -1.560  0.00  0.00    +0.039 A 
ATOM     35  C   UNL     1      -5.367   3.809  -1.431  0.00  0.00    +0.010 A 
ATOM     36  F   UNL     1      -8.043   6.113  -0.597  0.00  0.00    -0.205 F 
ENDBRANCH  29  30
ENDBRANCH  28  29
ENDBRANCH  25  28
ENDBRANCH  14  22
TORSDOF 4
