REMARK  Name = ZINC15007627
REMARK  7 active torsions:
REMARK  status: ('A' for Active; 'I' for Inactive)
REMARK    1  A    between atoms: C_4  and  C_7
REMARK    2  A    between atoms: N_10  and  C_19
REMARK    3  A    between atoms: C_19  and  C_20
REMARK    4  A    between atoms: C_20  and  C_21
REMARK    5  A    between atoms: N_23  and  C_24
REMARK    6  A    between atoms: C_24  and  C_25
REMARK    7  A    between atoms: C_25  and  C_26
REMARK                            x       y       z     vdW  Elec       q    Type
REMARK                         _______ _______ _______ _____ _____    ______ ____
ROOT
ATOM      1  C   UNL     1       5.746  -1.677  -3.048  0.00  0.00    -0.069 C 
ENDROOT
BRANCH   1   4
ATOM      2  C   UNL     1       5.914  -1.183   0.676  0.00  0.00    +0.187 C 
ATOM      3  C   UNL     1       6.064  -0.925  -0.806  0.00  0.00    -0.028 C 
ATOM      4  N   UNL     1       5.338  -1.869  -1.649  0.00  0.00    +0.385 N 
ATOM      5  C   UNL     1       3.889  -1.674  -1.540  0.00  0.00    -0.039 C 
ATOM      6  C   UNL     1       3.382  -2.448  -0.338  0.00  0.00    -0.022 A 
ATOM      7  C   UNL     1       2.578  -3.555  -0.517  0.00  0.00    +0.005 A 
ATOM      8  C   UNL     1       2.107  -4.246   0.586  0.00  0.00    +0.000 A 
ATOM      9  C   UNL     1       2.440  -3.826   1.861  0.00  0.00    +0.004 A 
ATOM     10  C   UNL     1       3.249  -2.720   2.040  0.00  0.00    +0.046 A 
ATOM     11  C   UNL     1       3.727  -2.033   0.933  0.00  0.00    +0.123 A 
ATOM     12  O   UNL     1       4.561  -0.968   1.096  0.00  0.00    -0.486 OA
ATOM     13  H   UNL     1       5.568  -2.810  -1.365  0.00  0.00    -0.081 HD
BRANCH   2  17
ATOM     14  C   UNL     1       8.489   1.462   2.826  0.00  0.00    +0.000 A 
ATOM     15  C   UNL     1       8.919   0.188   2.506  0.00  0.00    +0.000 A 
ATOM     16  C   UNL     1       8.085  -0.668   1.810  0.00  0.00    +0.007 A 
ATOM     17  C   UNL     1       6.822  -0.250   1.435  0.00  0.00    -0.009 A 
ATOM     18  C   UNL     1       6.392   1.024   1.757  0.00  0.00    +0.007 A 
ATOM     19  C   UNL     1       7.226   1.880   2.451  0.00  0.00    +0.000 A 
ENDBRANCH   2  17
ENDBRANCH   1   4
BRANCH   1  20
ATOM     20  C   UNL     1       7.220  -2.055  -3.206  0.00  0.00    +0.077 C 
BRANCH  20  21
ATOM     21  C   UNL     1       7.601  -1.990  -4.662  0.00  0.00    +0.211 C 
ATOM     22  O   UNL     1       6.776  -1.672  -5.492  0.00  0.00    -0.276 OA
ATOM     23  N   UNL     1       8.861  -2.284  -5.043  0.00  0.00    -0.315 N 
ATOM     24  H   UNL     1       9.521  -2.538  -4.380  0.00  0.00    +0.149 HD
BRANCH  23  25
ATOM     25  C   UNL     1       9.232  -2.220  -6.459  0.00  0.00    +0.112 C 
BRANCH  25  26
ATOM     26  C   UNL     1      10.706  -2.598  -6.617  0.00  0.00    +0.093 C 
BRANCH  26  27
ATOM     27  C   UNL     1      11.087  -2.533  -8.074  0.00  0.00    +0.112 A 
ATOM     28  N   UNL     1      10.178  -2.189  -8.934  0.00  0.00    -0.234 NA
ATOM     29  H   UNL     1      13.005  -3.078  -7.731  0.00  0.00    +0.170 HD
ATOM     30  C   UNL     1      10.448  -2.108 -10.261  0.00  0.00    +0.078 A 
ATOM     31  C   UNL     1       9.470  -1.740 -11.187  0.00  0.00    +0.028 A 
ATOM     32  C   UNL     1       9.788  -1.671 -12.524  0.00  0.00    +0.002 A 
ATOM     33  C   UNL     1      11.072  -1.965 -12.966  0.00  0.00    +0.001 A 
ATOM     34  C   UNL     1      12.054  -2.331 -12.072  0.00  0.00    +0.015 A 
ATOM     35  C   UNL     1      11.752  -2.406 -10.714  0.00  0.00    +0.065 A 
ATOM     36  C   UNL     1      12.759  -2.792  -9.713  0.00  0.00    +0.259 A 
ATOM     37  O   UNL     1      13.901  -3.061 -10.037  0.00  0.00    -0.267 OA
ATOM     38  N   UNL     1      12.367  -2.831  -8.418  0.00  0.00    -0.310 N 
ENDBRANCH  26  27
ENDBRANCH  25  26
ENDBRANCH  23  25
ENDBRANCH  20  21
ENDBRANCH   1  20
TORSDOF 7
