REMARK  Name = ZINC39444463
REMARK  4 active torsions:
REMARK  status: ('A' for Active; 'I' for Inactive)
REMARK    1  A    between atoms: C_4  and  C_7
REMARK    2  A    between atoms: C_17  and  S_19
REMARK    3  A    between atoms: S_19  and  C_20
REMARK    4  A    between atoms: C_22  and  C_27
REMARK                            x       y       z     vdW  Elec       q    Type
REMARK                         _______ _______ _______ _____ _____    ______ ____
ROOT
ATOM      1  C   UNL     1       3.222  -0.609  -0.121  0.00  0.00    -0.009 C 
ATOM      2  C   UNL     1       4.255   0.325  -0.246  0.00  0.00    +0.003 A 
ATOM      3  C   UNL     1       3.971   1.697  -0.407  0.00  0.00    +0.030 A 
ATOM      4  C   UNL     1       4.995   2.585  -0.525  0.00  0.00    +0.042 A 
ATOM      5  C   UNL     1       6.325   2.166  -0.490  0.00  0.00    +0.022 A 
ATOM      6  C   UNL     1       6.661   0.855  -0.337  0.00  0.00    +0.025 A 
ATOM      7  C   UNL     1       5.653  -0.117  -0.208  0.00  0.00    +0.041 A 
ATOM      8  N   UNL     1       5.986  -1.404  -0.057  0.00  0.00    -0.284 N 
ATOM      9  C   UNL     1       5.102  -2.375   0.069  0.00  0.00    +0.235 C 
ATOM     10  O   UNL     1       5.478  -3.525   0.203  0.00  0.00    -0.274 OA
ATOM     11  C   UNL     1       3.624  -2.061   0.055  0.00  0.00    +0.171 C 
ATOM     12 CL   UNL     1       4.640   4.273  -0.724  0.00  0.00    -0.084 Cl
ATOM     13  H   UNL     1       6.928  -1.636  -0.040  0.00  0.00    +0.155 HD
ENDROOT
BRANCH   1  17
ATOM     14  C   UNL     1      -0.802   0.552  -0.215  0.00  0.00    +0.000 A 
ATOM     15  C   UNL     1      -0.298  -0.263  -1.215  0.00  0.00    +0.001 A 
ATOM     16  C   UNL     1       1.023  -0.651  -1.194  0.00  0.00    +0.008 A 
ATOM     17  C   UNL     1       1.861  -0.215  -0.153  0.00  0.00    -0.020 A 
ATOM     18  C   UNL     1       1.340   0.612   0.855  0.00  0.00    +0.008 A 
ATOM     19  C   UNL     1       0.015   0.987   0.815  0.00  0.00    +0.001 A 
ENDBRANCH   1  17
BRANCH  11  20
ATOM     20  S   UNL     1       2.908  -2.650   1.614  0.00  0.00    -0.070 S 
BRANCH  20  21
ATOM     21  C   UNL     1       3.753  -1.721   2.850  0.00  0.00    +0.170 A 
ATOM     22  N   UNL     1       4.661  -0.836   2.487  0.00  0.00    -0.219 NA
ATOM     23  C   UNL     1       5.322  -0.113   3.389  0.00  0.00    +0.151 A 
ATOM     24  C   UNL     1       5.067  -0.279   4.720  0.00  0.00    +0.102 A 
ATOM     25  C   UNL     1       4.100  -1.220   5.115  0.00  0.00    +0.253 A 
ATOM     26  N   UNL     1       3.453  -1.925   4.163  0.00  0.00    -0.302 N 
ATOM     27  O   UNL     1       3.848  -1.393   6.296  0.00  0.00    -0.268 OA
ATOM     28  H   UNL     1       2.780  -2.577   4.413  0.00  0.00    +0.171 HD
BRANCH  23  29
ATOM     29  C   UNL     1       6.353   0.889   2.939  0.00  0.00    +0.434 C 
ATOM     30  F   UNL     1       6.908   1.521   4.058  0.00  0.00    -0.164 F 
ATOM     31  F   UNL     1       7.362   0.232   2.227  0.00  0.00    -0.164 F 
ATOM     32  F   UNL     1       5.748   1.845   2.117  0.00  0.00    -0.164 F 
ENDBRANCH  23  29
ENDBRANCH  20  21
ENDBRANCH  11  20
TORSDOF 4
