REMARK  Name = ZINC11973690
REMARK  4 active torsions:
REMARK  status: ('A' for Active; 'I' for Inactive)
REMARK    1  A    between atoms: C_6  and  C_7
REMARK    2  A    between atoms: C_15  and  C_18
REMARK    3  A    between atoms: C_18  and  N_19
REMARK    4  A    between atoms: C_20  and  C_22
REMARK                            x       y       z     vdW  Elec       q    Type
REMARK                         _______ _______ _______ _____ _____    ______ ____
ROOT
ATOM      1  C   UNL     1       3.699  -0.678  -0.027  0.00  0.00    +0.247 C 
ATOM      2  O   UNL     1       3.720  -1.892   0.038  0.00  0.00    -0.270 OA
ATOM      3  N   UNL     1       4.852   0.012  -0.134  0.00  0.00    -0.297 N 
ATOM      4  C   UNL     1       4.847   1.481  -0.136  0.00  0.00    +0.111 C 
ATOM      5  C   UNL     1       5.586   1.979  -1.377  0.00  0.00    +0.054 C 
ATOM      6  C   UNL     1       6.978   1.348  -1.427  0.00  0.00    +0.073 C 
ATOM      7  C   UNL     1       7.731   1.868  -2.669  0.00  0.00    +0.038 C 
ATOM      8  C   UNL     1       8.612   2.998  -2.070  0.00  0.00    +0.036 C 
ATOM      9  C   UNL     1       8.927   2.413  -0.669  0.00  0.00    +0.136 C 
ATOM     10  O   UNL     1       7.729   1.727  -0.271  0.00  0.00    -0.369 OA
ATOM     11  C   UNL     1       6.863  -0.174  -1.503  0.00  0.00    +0.054 C 
ATOM     12  C   UNL     1       6.136  -0.691  -0.258  0.00  0.00    +0.111 C 
ENDROOT
BRANCH   1  18
ATOM     13  C   UNL     1       2.224   1.098   0.905  0.00  0.00    +0.017 A 
ATOM     14  C   UNL     1       1.020   1.766   0.939  0.00  0.00    +0.050 A 
ATOM     15  C   UNL     1      -0.014   1.391   0.089  0.00  0.00    +0.162 A 
ATOM     16  C   UNL     1       0.166   0.339  -0.805  0.00  0.00    +0.163 A 
ATOM     17  C   UNL     1       1.372  -0.336  -0.844  0.00  0.00    +0.062 A 
ATOM     18  C   UNL     1       2.410   0.040   0.012  0.00  0.00    +0.041 A 
ATOM     19  O   UNL     1      -0.834  -0.035  -1.650  0.00  0.00    -0.485 OA
ATOM     20  C   UNL     1      -2.153   0.416  -1.325  0.00  0.00    +0.270 C 
ATOM     21  C   UNL     1      -2.077   1.907  -0.972  0.00  0.00    +0.270 C 
ATOM     22  O   UNL     1      -1.197   2.059   0.147  0.00  0.00    -0.485 OA
ENDBRANCH   1  18
BRANCH   9  23
ATOM     23  C   UNL     1       9.248   3.538   0.318  0.00  0.00    +0.135 C 
BRANCH  23  24
ATOM     24  N   UNL     1       9.594   2.961   1.619  0.00  0.00    -0.313 N 
ATOM     25  C   UNL     1       9.915   3.768   2.650  0.00  0.00    +0.216 C 
ATOM     26  O   UNL     1       9.918   4.972   2.500  0.00  0.00    -0.276 OA
ATOM     27  H   UNL     1       9.592   1.999   1.739  0.00  0.00    +0.149 HD
BRANCH  25  28
ATOM     28  C   UNL     1      10.271   3.175   3.989  0.00  0.00    +0.075 C 
ATOM     29  C   UNL     1       9.090   2.357   4.514  0.00  0.00    +0.013 C 
ATOM     30  C   UNL     1       9.451   1.755   5.874  0.00  0.00    +0.001 C 
ATOM     31  C   UNL     1       9.772   2.879   6.860  0.00  0.00    +0.000 C 
ATOM     32  C   UNL     1      10.953   3.697   6.335  0.00  0.00    +0.001 C 
ATOM     33  C   UNL     1      10.592   4.300   4.976  0.00  0.00    +0.013 C 
ENDBRANCH  25  28
ENDBRANCH  23  24
ENDBRANCH   9  23
TORSDOF 4
