REMARK  Name = ZINC63426778
REMARK  12 active torsions:
REMARK  status: ('A' for Active; 'I' for Inactive)
REMARK    1  A    between atoms: C_1  and  C_2
REMARK    2  A    between atoms: C_2  and  C_3
REMARK    3  A    between atoms: C_2  and  C_4
REMARK    4  A    between atoms: C_2  and  O_5
REMARK    5  A    between atoms: O_5  and  C_6
REMARK    6  A    between atoms: N_8  and  C_9
REMARK    7  A    between atoms: C_9  and  C_11
REMARK    8  A    between atoms: C_9  and  C_21
REMARK    9  A    between atoms: C_11  and  C_12
REMARK   10  A    between atoms: C_25  and  S_28
REMARK   11  A    between atoms: S_28  and  C_29
REMARK   12  A    between atoms: C_29  and  C_30
REMARK                            x       y       z     vdW  Elec       q    Type
REMARK                         _______ _______ _______ _____ _____    ______ ____
ROOT
ATOM      1  C   UNL     1       4.135   0.126  -2.476  0.00  0.00    +0.133 C 
ENDROOT
BRANCH   1   2
ATOM      2  C   UNL     1       5.109  -0.612  -1.555  0.00  0.00    +0.280 C 
ATOM      3  N   UNL     1       4.612  -0.599  -0.173  0.00  0.00    -0.155 NA
ATOM      4  N   UNL     1       4.735  -1.722   0.333  0.00  0.00    -0.146 NA
ATOM      5  C   UNL     1       5.333  -2.650  -0.636  0.00  0.00    +0.319 C 
ATOM      6  O   UNL     1       5.184  -2.005  -1.920  0.00  0.00    -0.316 OA
BRANCH   5   7
ATOM      7  S   UNL     1       4.450  -4.234  -0.617  0.00  0.00    -0.100 S 
BRANCH   7   8
ATOM      8  C   UNL     1       2.774  -3.810  -1.166  0.00  0.00    +0.108 C 
BRANCH   8   9
ATOM      9  C   UNL     1       1.893  -5.029  -1.077  0.00  0.00    -0.036 A 
ATOM     10  C   UNL     1       1.786  -5.885  -2.157  0.00  0.00    +0.006 A 
ATOM     11  C   UNL     1       0.978  -7.003  -2.077  0.00  0.00    +0.022 A 
ATOM     12  C   UNL     1       0.275  -7.266  -0.915  0.00  0.00    +0.059 A 
ATOM     13  C   UNL     1       0.382  -6.409   0.167  0.00  0.00    +0.060 A 
ATOM     14  C   UNL     1       1.196  -5.293   0.087  0.00  0.00    +0.026 A 
ATOM     15 CL   UNL     1      -0.500  -6.737   1.626  0.00  0.00    -0.082 Cl
ATOM     16 CL   UNL     1      -0.742  -8.670  -0.813  0.00  0.00    -0.082 Cl
ENDBRANCH   8   9
ENDBRANCH   7   8
ENDBRANCH   5   7
ENDBRANCH   1   2
BRANCH   1  19
ATOM     17  C   UNL     1       2.157  -0.972  -3.381  0.00  0.00    +0.401 C 
ATOM     18  O   UNL     1       2.660  -0.909  -4.485  0.00  0.00    -0.226 OA
ATOM     19  N   UNL     1       2.792  -0.438  -2.319  0.00  0.00    -0.274 N 
ATOM     20  H   UNL     1       2.360  -0.427  -1.450  0.00  0.00    +0.152 HD
BRANCH  17  21
ATOM     21  O   UNL     1       0.964  -1.575  -3.219  0.00  0.00    -0.445 OA
BRANCH  21  23
ATOM     22  C   UNL     1       1.265  -3.190  -4.991  0.00  0.00    +0.055 C 
ATOM     23  C   UNL     1       0.350  -2.123  -4.386  0.00  0.00    +0.107 C 
ATOM     24  C   UNL     1       0.118  -1.010  -5.411  0.00  0.00    +0.055 C 
ATOM     25  C   UNL     1      -0.991  -2.756  -4.008  0.00  0.00    +0.055 C 
ENDBRANCH  21  23
ENDBRANCH  17  21
ENDBRANCH   1  19
BRANCH   1  26
ATOM     26  C   UNL     1       4.111   1.611  -2.108  0.00  0.00    +0.060 C 
BRANCH  26  27
ATOM     27  C   UNL     1       3.247   2.358  -3.092  0.00  0.00    -0.040 C 
ATOM     28  C   UNL     1       1.940   2.677  -2.948  0.00  0.00    -0.001 A 
ATOM     29  C   UNL     1       0.970   2.433  -1.875  0.00  0.00    +0.010 A 
ATOM     30  C   UNL     1      -0.297   2.884  -2.021  0.00  0.00    +0.001 A 
ATOM     31  C   UNL     1      -0.705   3.576  -3.169  0.00  0.00    +0.002 A 
ATOM     32  C   UNL     1       0.129   3.839  -4.197  0.00  0.00    +0.026 A 
ATOM     33  C   UNL     1       1.485   3.411  -4.150  0.00  0.00    +0.043 A 
ATOM     34  N   UNL     1       2.471   3.541  -5.004  0.00  0.00    -0.380 N 
ATOM     35  C   UNL     1       3.667   2.908  -4.436  0.00  0.00    +0.144 C 
ATOM     36  H   UNL     1       2.420   3.985  -5.865  0.00  0.00    +0.160 HD
ENDBRANCH  26  27
ENDBRANCH   1  26
TORSDOF 9
