REMARK  Name = ZINC67530926
REMARK  8 active torsions:
REMARK  status: ('A' for Active; 'I' for Inactive)
REMARK    1  A    between atoms: C_1  and  C_2
REMARK    2  A    between atoms: C_2  and  C_3
REMARK    3  A    between atoms: C_3  and  O_4
REMARK    4  A    between atoms: O_4  and  C_5
REMARK    5  A    between atoms: N_14  and  C_15
REMARK    6  A    between atoms: C_15  and  C_16
REMARK    7  A    between atoms: C_20  and  C_22
REMARK    8  A    between atoms: C_22  and  N_23
REMARK                            x       y       z     vdW  Elec       q    Type
REMARK                         _______ _______ _______ _____ _____    ______ ____
ROOT
ATOM      1  C   UNL     1       1.390  -2.491  -2.399  0.00  0.00    +0.136 C 
ATOM      2  C   UNL     1       0.758  -3.845  -2.728  0.00  0.00    +0.035 C 
ATOM      3  C   UNL     1       1.428  -4.435  -3.971  0.00  0.00    +0.022 C 
ATOM      4  C   UNL     1       2.918  -4.652  -3.688  0.00  0.00    +0.109 C 
ATOM      5  N   UNL     1       3.503  -3.385  -3.231  0.00  0.00    -0.283 N 
ATOM      6  C   UNL     1       2.880  -2.686  -2.099  0.00  0.00    +0.140 C 
ATOM      7  C   UNL     1       4.590  -2.872  -3.839  0.00  0.00    +0.303 C 
ATOM      8  O   UNL     1       5.008  -1.777  -3.515  0.00  0.00    -0.253 OA
ATOM      9  N   UNL     1       5.215  -3.572  -4.807  0.00  0.00    -0.295 N 
ATOM     10  H   UNL     1       4.841  -4.412  -5.116  0.00  0.00    +0.151 HD
ENDROOT
BRANCH   1  11
ATOM     11  O   UNL     1       0.743  -1.927  -1.256  0.00  0.00    -0.375 OA
BRANCH  11  12
ATOM     12  C   UNL     1       0.727  -0.498  -1.244  0.00  0.00    +0.160 C 
BRANCH  12  14
ATOM     13  C   UNL     1      -0.004   1.522   0.032  0.00  0.00    +0.006 C 
ATOM     14  C   UNL     1       0.013  -0.008   0.018  0.00  0.00    +0.025 C 
ENDBRANCH  12  14
ENDBRANCH  11  12
ENDBRANCH   1  11
BRANCH   9  15
ATOM     15  C   UNL     1       6.459  -3.065  -5.391  0.00  0.00    +0.141 C 
BRANCH  15  16
ATOM     16  C   UNL     1       6.949  -4.028  -6.442  0.00  0.00    -0.030 A 
ATOM     17  C   UNL     1       7.800  -5.060  -6.091  0.00  0.00    +0.005 A 
ATOM     18  C   UNL     1       8.249  -5.943  -7.055  0.00  0.00    +0.001 A 
ATOM     19  C   UNL     1       7.848  -5.794  -8.370  0.00  0.00    +0.005 A 
ATOM     20  C   UNL     1       6.997  -4.763  -8.720  0.00  0.00    -0.030 A 
ATOM     21  C   UNL     1       6.544  -3.883  -7.756  0.00  0.00    +0.010 A 
BRANCH  20  22
ATOM     22  C   UNL     1       6.560  -4.601 -10.153  0.00  0.00    +0.142 C 
BRANCH  22  23
ATOM     23  N   UNL     1       5.330  -5.365 -10.378  0.00  0.00    -0.297 N 
ATOM     24  C   UNL     1       5.294  -6.768 -10.810  0.00  0.00    +0.108 C 
ATOM     25  C   UNL     1       3.864  -7.260 -10.493  0.00  0.00    +0.028 C 
ATOM     26  C   UNL     1       3.062  -5.938 -10.525  0.00  0.00    +0.097 C 
ATOM     27  C   UNL     1       4.090  -4.874 -10.210  0.00  0.00    +0.216 C 
ATOM     28  O   UNL     1       3.833  -3.742  -9.860  0.00  0.00    -0.276 OA
ENDBRANCH  22  23
ENDBRANCH  20  22
ENDBRANCH  15  16
ENDBRANCH   9  15
TORSDOF 7
