REMARK  Name = ZINC13543656
REMARK  8 active torsions:
REMARK  status: ('A' for Active; 'I' for Inactive)
REMARK    1  A    between atoms: C_1  and  C_2
REMARK    2  A    between atoms: C_6  and  C_27
REMARK    3  A    between atoms: C_8  and  N_12
REMARK    4  A    between atoms: N_14  and  C_15
REMARK    5  A    between atoms: C_15  and  N_17
REMARK    6  A    between atoms: N_17  and  C_18
REMARK    7  A    between atoms: C_21  and  O_24
REMARK    8  A    between atoms: O_24  and  C_25
REMARK                            x       y       z     vdW  Elec       q    Type
REMARK                         _______ _______ _______ _____ _____    ______ ____
ROOT
ATOM      1  N   UNL     1       0.959  -5.646   4.138  0.00  0.00    -0.179 NA
ATOM      2  C   UNL     1       0.427  -6.837   3.965  0.00  0.00    +0.195 C 
ATOM      3  N   UNL     1      -0.252  -7.442   4.996  0.00  0.00    -0.268 N 
ATOM      4  N   UNL     1       0.549  -7.473   2.760  0.00  0.00    -0.371 N 
ATOM      5  H   UNL     1       1.383  -7.420   2.266  0.00  0.00    +0.159 HD
ATOM      6  H   UNL     1      -0.197  -7.976   2.399  0.00  0.00    +0.159 HD
ATOM      7  H   UNL     1      -0.571  -8.353   4.898  0.00  0.00    +0.157 HD
ENDROOT
BRANCH   1  15
ATOM      8  C   UNL     1       4.141   0.241   1.518  0.00  0.00    +0.044 C 
ATOM      9  C   UNL     1       3.586  -1.149   1.342  0.00  0.00    -0.048 A 
ATOM     10  C   UNL     1       3.635  -1.754   0.088  0.00  0.00    +0.004 A 
ATOM     11  C   UNL     1       3.141  -3.010  -0.105  0.00  0.00    +0.012 A 
ATOM     12  C   UNL     1       2.576  -3.703   0.974  0.00  0.00    +0.022 A 
ATOM     13  C   UNL     1       2.051  -5.003   0.833  0.00  0.00    +0.051 A 
ATOM     14  N   UNL     1       1.537  -5.591   1.891  0.00  0.00    -0.215 NA
ATOM     15  C   UNL     1       1.504  -4.984   3.082  0.00  0.00    +0.254 A 
ATOM     16  N   UNL     1       1.982  -3.764   3.272  0.00  0.00    -0.211 NA
ATOM     17  C   UNL     1       2.526  -3.088   2.252  0.00  0.00    +0.077 A 
ATOM     18  C   UNL     1       3.048  -1.797   2.414  0.00  0.00    +0.032 A 
ATOM     19  C   UNL     1       2.078  -5.703  -0.501  0.00  0.00    +0.066 C 
ENDBRANCH   1  15
BRANCH   3  20
ATOM     20  C   UNL     1      -0.476  -6.769   6.142  0.00  0.00    +0.141 C 
ATOM     21  S   UNL     1      -0.035  -5.120   6.267  0.00  0.00    -0.018 S 
BRANCH  20  22
ATOM     22  N   UNL     1      -1.047  -7.396   7.190  0.00  0.00    -0.297 N 
ATOM     23  H   UNL     1      -1.240  -8.345   7.141  0.00  0.00    +0.154 HD
BRANCH  22  24
ATOM     24  C   UNL     1      -1.360  -6.676   8.350  0.00  0.00    +0.033 A 
ATOM     25  C   UNL     1      -2.578  -6.879   8.986  0.00  0.00    +0.027 A 
ATOM     26  C   UNL     1      -2.886  -6.169  10.130  0.00  0.00    +0.047 A 
ATOM     27  C   UNL     1      -1.980  -5.253  10.643  0.00  0.00    +0.120 A 
ATOM     28  C   UNL     1      -0.763  -5.049  10.009  0.00  0.00    +0.047 A 
ATOM     29  C   UNL     1      -0.451  -5.763   8.868  0.00  0.00    +0.027 A 
BRANCH  27  30
ATOM     30  O   UNL     1      -2.284  -4.554  11.769  0.00  0.00    -0.495 OA
ATOM     31  C   UNL     1      -1.305  -3.627  12.242  0.00  0.00    +0.277 C 
ENDBRANCH  27  30
ENDBRANCH  22  24
ENDBRANCH  20  22
ENDBRANCH   3  20
TORSDOF 5
