REMARK  Name = ZINC33597647
REMARK  9 active torsions:
REMARK  status: ('A' for Active; 'I' for Inactive)
REMARK    1  A    between atoms: C_1  and  C_2
REMARK    2  A    between atoms: C_2  and  C_3
REMARK    3  A    between atoms: C_6  and  N_9
REMARK    4  A    between atoms: C_14  and  C_33
REMARK    5  A    between atoms: C_17  and  C_22
REMARK    6  A    between atoms: C_17  and  C_30
REMARK    7  A    between atoms: C_22  and  C_23
REMARK    8  A    between atoms: C_26  and  O_29
REMARK    9  A    between atoms: C_38  and  C_39
REMARK                            x       y       z     vdW  Elec       q    Type
REMARK                         _______ _______ _______ _____ _____    ______ ____
ROOT
ATOM      1  N   UNL     1       0.089  -0.073   0.071  0.00  0.00    -0.210 N 
ATOM      2  C   UNL     1       0.029   1.298   0.066  0.00  0.00    +0.229 C 
ATOM      3  O   UNL     1      -0.966   1.992   0.085  0.00  0.00    -0.275 OA
ATOM      4  C   UNL     1       1.400   1.736   0.026  0.00  0.00    +0.077 C 
ATOM      5  C   UNL     1       2.254   2.918   0.205  0.00  0.00    -0.026 C 
ATOM      6  N   UNL     1       3.646   2.379   0.348  0.00  0.00    +0.396 N 
ATOM      7  C   UNL     1       3.558   0.883   0.325  0.00  0.00    +0.052 C 
ATOM      8  C   UNL     1       2.146   0.605   0.821  0.00  0.00    +0.086 C 
ATOM      9  C   UNL     1       1.350  -0.547   0.300  0.00  0.00    +0.229 C 
ATOM     10  O   UNL     1       1.745  -1.678   0.116  0.00  0.00    -0.275 OA
ATOM     11  H   UNL     1       4.266   2.739  -0.487  0.00  0.00    -0.083 HD
ATOM     12  H   UNL     1       4.077   2.723   1.300  0.00  0.00    -0.083 HD
ENDROOT
BRANCH   5  13
ATOM     13  C   UNL     1       1.846   3.655   1.454  0.00  0.00    -0.058 A 
ATOM     14  C   UNL     1       2.407   3.315   2.672  0.00  0.00    +0.002 A 
ATOM     15  C   UNL     1       2.037   3.994   3.817  0.00  0.00    +0.000 A 
ATOM     16  C   UNL     1       1.097   5.006   3.747  0.00  0.00    +0.000 A 
ATOM     17  C   UNL     1       0.532   5.342   2.531  0.00  0.00    +0.003 A 
ATOM     18  C   UNL     1       0.907   4.667   1.385  0.00  0.00    -0.049 A 
ATOM     19  C   UNL     1       0.291   5.033   0.059  0.00  0.00    +0.044 C 
ENDBRANCH   5  13
BRANCH   1  23
ATOM     20  C   UNL     1      -3.222  -2.530  -0.545  0.00  0.00    -0.048 A 
ATOM     21  C   UNL     1      -3.369  -1.155  -0.566  0.00  0.00    +0.005 A 
ATOM     22  C   UNL     1      -2.274  -0.339  -0.362  0.00  0.00    +0.024 A 
ATOM     23  C   UNL     1      -1.025  -0.899  -0.136  0.00  0.00    +0.044 A 
ATOM     24  C   UNL     1      -0.879  -2.280  -0.120  0.00  0.00    +0.024 A 
ATOM     25  C   UNL     1      -1.979  -3.091  -0.319  0.00  0.00    +0.005 A 
BRANCH  20  27
ATOM     26  C   UNL     1      -4.564  -3.713  -2.262  0.00  0.00    +0.009 C 
ATOM     27  C   UNL     1      -4.419  -3.418  -0.768  0.00  0.00    +0.032 C 
ENDBRANCH  20  27
ENDBRANCH   1  23
BRANCH   7  28
ATOM     28  C   UNL     1       4.577   0.277   1.255  0.00  0.00    +0.347 C 
ATOM     29  O   UNL     1       4.278  -0.670   1.944  0.00  0.00    -0.248 OA
ATOM     30  O   UNL     1       5.816   0.788   1.318  0.00  0.00    -0.248 OA
ENDBRANCH   7  28
BRANCH   7  31
ATOM     31  C   UNL     1       3.744   0.354  -1.099  0.00  0.00    +0.035 C 
BRANCH  31  32
ATOM     32  C   UNL     1       5.148   0.642  -1.563  0.00  0.00    -0.048 A 
ATOM     33  C   UNL     1       5.428   1.827  -2.220  0.00  0.00    +0.007 A 
ATOM     34  C   UNL     1       6.715   2.096  -2.642  0.00  0.00    +0.045 A 
ATOM     35  C   UNL     1       7.726   1.173  -2.416  0.00  0.00    +0.117 A 
ATOM     36  C   UNL     1       7.441  -0.017  -1.762  0.00  0.00    +0.045 A 
ATOM     37  C   UNL     1       6.153  -0.280  -1.337  0.00  0.00    +0.007 A 
BRANCH  35  38
ATOM     38  O   UNL     1       8.992   1.433  -2.836  0.00  0.00    -0.507 OA
ATOM     39  H   UNL     1       9.792   0.700  -2.656  0.00  0.00    +0.292 HD
ENDBRANCH  35  38
ENDBRANCH  31  32
ENDBRANCH   7  31
TORSDOF 7
