REMARK  Name = ZINC40739402
REMARK  11 active torsions:
REMARK  status: ('A' for Active; 'I' for Inactive)
REMARK    1  A    between atoms: C_1  and  C_2
REMARK    2  A    between atoms: C_7  and  C_8
REMARK    3  A    between atoms: C_8  and  O_9
REMARK    4  A    between atoms: O_9  and  C_10
REMARK    5  A    between atoms: C_15  and  C_16
REMARK    6  A    between atoms: C_16  and  N_17
REMARK    7  A    between atoms: N_17  and  C_18
REMARK    8  A    between atoms: C_18  and  C_19
REMARK    9  A    between atoms: C_19  and  S_20
REMARK   10  A    between atoms: S_20  and  C_21
REMARK   11  A    between atoms: N_25  and  C_26
REMARK                            x       y       z     vdW  Elec       q    Type
REMARK                         _______ _______ _______ _____ _____    ______ ____
ROOT
ATOM      1  C   UNL     1       0.093  -2.720   5.736  0.00  0.00    -0.043 C 
ENDROOT
BRANCH   1   7
ATOM      2  C   UNL     1       0.053  -0.377   4.844  0.00  0.00    +0.122 A 
ATOM      3  C   UNL     1       0.031   0.997   5.035  0.00  0.00    +0.047 A 
ATOM      4  C   UNL     1       0.036   1.516   6.314  0.00  0.00    +0.019 A 
ATOM      5  C   UNL     1       0.064   0.667   7.406  0.00  0.00    +0.018 A 
ATOM      6  C   UNL     1       0.086  -0.703   7.219  0.00  0.00    +0.020 A 
ATOM      7  C   UNL     1       0.075  -1.227   5.940  0.00  0.00    -0.022 A 
ATOM      8 BR   UNL     1       0.071   1.380   9.158  0.00  0.00    -0.050 Br
BRANCH   2   9
ATOM      9  O   UNL     1       0.048  -0.889   3.585  0.00  0.00    -0.487 OA
BRANCH   9  10
ATOM     10  C   UNL     1       0.025   0.045   2.504  0.00  0.00    +0.264 C 
BRANCH  10  17
ATOM     11  C   UNL     1      -0.018   1.503   0.010  0.00  0.00    +0.044 C 
ATOM     12  C   UNL     1       0.002  -0.004   0.002  0.00  0.00    -0.044 A 
ATOM     13  C   UNL     1       0.006  -0.689  -1.199  0.00  0.00    +0.004 A 
ATOM     14  C   UNL     1       0.025  -2.071  -1.207  0.00  0.00    +0.000 A 
ATOM     15  C   UNL     1       0.040  -2.768  -0.013  0.00  0.00    +0.000 A 
ATOM     16  C   UNL     1       0.037  -2.084   1.188  0.00  0.00    +0.007 A 
ATOM     17  C   UNL     1       0.023  -0.702   1.195  0.00  0.00    -0.007 A 
ENDBRANCH  10  17
ENDBRANCH   9  10
ENDBRANCH   2   9
ENDBRANCH   1   7
BRANCH   1  18
ATOM     18  N   UNL     1       1.460  -3.154   5.418  0.00  0.00    +0.382 N 
ATOM     19  H   UNL     1       1.771  -2.696   4.575  0.00  0.00    -0.085 HD
ATOM     20  H   UNL     1       2.075  -2.912   6.180  0.00  0.00    -0.085 HD
BRANCH  18  21
ATOM     21  C   UNL     1       1.477  -4.610   5.220  0.00  0.00    -0.071 C 
BRANCH  21  22
ATOM     22  C   UNL     1       2.900  -5.062   4.888  0.00  0.00    +0.058 C 
BRANCH  22  23
ATOM     23  S   UNL     1       2.922  -6.860   4.643  0.00  0.00    -0.086 S 
BRANCH  23  24
ATOM     24  C   UNL     1       4.607  -7.220   4.275  0.00  0.00    +0.214 A 
ATOM     25  N   UNL     1       5.595  -6.354   4.209  0.00  0.00    -0.101 NA
ATOM     26  N   UNL     1       6.696  -6.949   3.919  0.00  0.00    -0.022 NA
ATOM     27  N   UNL     1       6.499  -8.215   3.780  0.00  0.00    -0.038 NA
ATOM     28  N   UNL     1       5.131  -8.443   4.011  0.00  0.00    -0.187 N 
BRANCH  28  29
ATOM     29  C   UNL     1       4.454  -9.670   3.975  0.00  0.00    +0.070 A 
ATOM     30  C   UNL     1       3.400  -9.909   4.846  0.00  0.00    +0.028 A 
ATOM     31  C   UNL     1       2.734 -11.119   4.807  0.00  0.00    +0.002 A 
ATOM     32  C   UNL     1       3.118 -12.092   3.903  0.00  0.00    +0.000 A 
ATOM     33  C   UNL     1       4.168 -11.857   3.034  0.00  0.00    +0.002 A 
ATOM     34  C   UNL     1       4.833 -10.647   3.064  0.00  0.00    +0.028 A 
ENDBRANCH  28  29
ENDBRANCH  23  24
ENDBRANCH  22  23
ENDBRANCH  21  22
ENDBRANCH  18  21
ENDBRANCH   1  18
TORSDOF 10
