REMARK  Name = ZINC02963666
REMARK  6 active torsions:
REMARK  status: ('A' for Active; 'I' for Inactive)
REMARK    1  A    between atoms: C_1  and  C_2
REMARK    2  A    between atoms: C_10  and  O_13
REMARK    3  A    between atoms: O_13  and  C_14
REMARK    4  A    between atoms: N_18  and  C_19
REMARK    5  A    between atoms: C_23  and  S_25
REMARK    6  A    between atoms: S_25  and  C_26
REMARK                            x       y       z     vdW  Elec       q    Type
REMARK                         _______ _______ _______ _____ _____    ______ ____
ROOT
ATOM      1  C   UNL     1       2.188   3.838   0.325  0.00  0.00    +0.079 C 
ATOM      2  C   UNL     1       1.781   2.377   0.126  0.00  0.00    +0.183 C 
ATOM      3  C   UNL     1       2.582   1.484   1.109  0.00  0.00    +0.096 C 
ATOM      4  C   UNL     1       2.226   0.032   0.751  0.00  0.00    +0.111 C 
ATOM      5  C   UNL     1       0.722  -0.114   0.800  0.00  0.00    +0.018 A 
ATOM      6  C   UNL     1       0.176  -1.367   1.018  0.00  0.00    +0.009 A 
ATOM      7  C   UNL     1      -1.195  -1.534   1.050  0.00  0.00    +0.004 A 
ATOM      8  C   UNL     1      -2.028  -0.447   0.862  0.00  0.00    +0.049 A 
ATOM      9  C   UNL     1      -1.488   0.809   0.647  0.00  0.00    +0.162 A 
ATOM     10  C   UNL     1      -0.102   0.981   0.619  0.00  0.00    +0.170 A 
ATOM     11  O   UNL     1       0.393   2.229   0.414  0.00  0.00    -0.464 OA
ATOM     12  N   UNL     1       2.647  -0.217  -0.638  0.00  0.00    -0.319 N 
ATOM     13  C   UNL     1       2.515   0.753  -1.558  0.00  0.00    +0.141 C 
ATOM     14  S   UNL     1       2.929   0.410  -3.183  0.00  0.00    -0.018 S 
ATOM     15  N   UNL     1       2.072   1.981  -1.250  0.00  0.00    -0.244 N 
ATOM     16  H   UNL     1       3.017  -1.078  -0.887  0.00  0.00    +0.148 HD
ENDROOT
BRANCH  15  17
ATOM     17  C   UNL     1       1.881   2.911  -2.277  0.00  0.00    +0.040 A 
ATOM     18  C   UNL     1       2.952   3.670  -2.735  0.00  0.00    +0.024 A 
ATOM     19  C   UNL     1       2.765   4.588  -3.750  0.00  0.00    +0.003 A 
ATOM     20  C   UNL     1       1.515   4.756  -4.314  0.00  0.00    +0.015 A 
ATOM     21  C   UNL     1       0.440   4.001  -3.860  0.00  0.00    +0.009 A 
ATOM     22  C   UNL     1       0.626   3.073  -2.844  0.00  0.00    +0.038 A 
BRANCH  21  23
ATOM     23  S   UNL     1      -1.154   4.214  -4.579  0.00  0.00    -0.129 S 
ATOM     24  C   UNL     1      -0.900   5.497  -5.837  0.00  0.00    +0.090 C 
ENDBRANCH  21  23
ENDBRANCH  15  17
BRANCH   9  25
ATOM     25  O   UNL     1      -2.308   1.878   0.463  0.00  0.00    -0.491 OA
ATOM     26  C   UNL     1      -3.715   1.631   0.504  0.00  0.00    +0.277 C 
ENDBRANCH   9  25
TORSDOF 3
