REMARK  Name = ZINC65054983
REMARK  8 active torsions:
REMARK  status: ('A' for Active; 'I' for Inactive)
REMARK    1  A    between atoms: C_1  and  C_2
REMARK    2  A    between atoms: N_8  and  C_9
REMARK    3  A    between atoms: C_9  and  C_10
REMARK    4  A    between atoms: C_10  and  N_11
REMARK    5  A    between atoms: C_12  and  C_14
REMARK    6  A    between atoms: C_17  and  C_19
REMARK    7  A    between atoms: C_20  and  C_29
REMARK    8  A    between atoms: N_23  and  C_24
REMARK                            x       y       z     vdW  Elec       q    Type
REMARK                         _______ _______ _______ _____ _____    ______ ____
ROOT
ATOM      1  C   UNL     1       6.265   0.595   3.630  0.00  0.00    +0.190 A 
ATOM      2  C   UNL     1       7.189   0.438   4.643  0.00  0.00    +0.055 A 
ATOM      3  C   UNL     1       8.331   1.144   4.264  0.00  0.00    +0.052 A 
ATOM      4  C   UNL     1       8.066   1.708   3.032  0.00  0.00    +0.154 A 
ATOM      5  O   UNL     1       6.819   1.361   2.665  0.00  0.00    -0.449 OA
ENDROOT
BRANCH   4   6
ATOM      6  C   UNL     1       8.989   2.540   2.253  0.00  0.00    +0.112 A 
ATOM      7  C   UNL     1       9.781   3.577   2.728  0.00  0.00    +0.100 A 
ATOM      8  N   UNL     1      10.469   4.065   1.681  0.00  0.00    -0.235 NA
ATOM      9  C   UNL     1      10.155   3.402   0.602  0.00  0.00    +0.200 A 
ATOM     10  N   UNL     1       9.251   2.447   0.902  0.00  0.00    -0.324 N 
BRANCH   7  11
ATOM     11  C   UNL     1       9.855   4.056   4.126  0.00  0.00    +0.003 A 
ATOM     12  C   UNL     1       8.715   4.045   4.931  0.00  0.00    +0.013 A 
ATOM     13  C   UNL     1       8.788   4.493   6.233  0.00  0.00    +0.039 A 
ATOM     14  C   UNL     1       9.992   4.953   6.743  0.00  0.00    +0.123 A 
ATOM     15  C   UNL     1      11.127   4.967   5.948  0.00  0.00    +0.039 A 
ATOM     16  C   UNL     1      11.065   4.515   4.646  0.00  0.00    +0.013 A 
ATOM     17  F   UNL     1      10.059   5.391   8.020  0.00  0.00    -0.205 F 
ENDBRANCH   7  11
BRANCH  10  18
ATOM     18  C   UNL     1       8.654   1.491  -0.034  0.00  0.00    +0.089 C 
ATOM     19  C   UNL     1       9.761   0.671  -0.729  0.00  0.00    +0.025 C 
ATOM     20  C   UNL     1       9.245   0.488  -2.178  0.00  0.00    +0.002 C 
ATOM     21  C   UNL     1       8.574   1.852  -2.476  0.00  0.00    +0.002 C 
ATOM     22  C   UNL     1       7.899   2.241  -1.145  0.00  0.00    +0.025 C 
ENDBRANCH  10  18
ENDBRANCH   4   6
BRANCH   1  24
ATOM     23  N   UNL     1       4.113   0.250   2.546  0.00  0.00    -0.311 N 
ATOM     24  C   UNL     1       4.919   0.025   3.602  0.00  0.00    +0.279 C 
ATOM     25  O   UNL     1       4.526  -0.654   4.534  0.00  0.00    -0.267 OA
ATOM     26  H   UNL     1       4.426   0.791   1.803  0.00  0.00    +0.149 HD
BRANCH  23  27
ATOM     27  C   UNL     1       2.764  -0.321   2.518  0.00  0.00    +0.086 C 
BRANCH  27  28
ATOM     28  C   UNL     1       2.066   0.083   1.218  0.00  0.00    -0.059 C 
BRANCH  28  35
ATOM     29  C   UNL     1      -0.019   1.526   0.010  0.00  0.00    -0.013 C 
ATOM     30  C   UNL     1       0.002  -0.004   0.002  0.00  0.00    -0.072 C 
ATOM     31  C   UNL     1      -1.434  -0.533   0.011  0.00  0.00    -0.016 C 
ATOM     32  C   UNL     1      -1.408  -2.064   0.003  0.00  0.00    -0.003 C 
ATOM     33  C   UNL     1      -0.600  -2.558   1.206  0.00  0.00    -0.019 C 
ATOM     34  C   UNL     1       0.805  -1.954   1.152  0.00  0.00    -0.078 C 
ATOM     35  N   UNL     1       0.713  -0.490   1.191  0.00  0.00    +0.382 N 
ATOM     36  H   UNL     1       0.213  -0.206   2.020  0.00  0.00    -0.081 HD
ENDBRANCH  28  35
ENDBRANCH  27  28
ENDBRANCH  23  27
ENDBRANCH   1  24
TORSDOF 7
