REMARK  Name = ZINC08432820
REMARK  11 active torsions:
REMARK  status: ('A' for Active; 'I' for Inactive)
REMARK    1  A    between atoms: C_1  and  C_2
REMARK    2  A    between atoms: C_2  and  N_3
REMARK    3  A    between atoms: N_3  and  C_4
REMARK    4  A    between atoms: N_3  and  C_6
REMARK    5  A    between atoms: C_4  and  C_5
REMARK    6  A    between atoms: C_9  and  C_12
REMARK    7  A    between atoms: C_19  and  C_40
REMARK    8  A    between atoms: C_19  and  C_41
REMARK    9  A    between atoms: C_30  and  C_32
REMARK   10  A    between atoms: C_35  and  O_38
REMARK   11  A    between atoms: O_38  and  C_39
REMARK                            x       y       z     vdW  Elec       q    Type
REMARK                         _______ _______ _______ _____ _____    ______ ____
ROOT
ATOM      1  C   UNL     1       1.084  -5.830   0.684  0.00  0.00    +0.147 C 
ATOM      2  C   UNL     1       1.546  -5.964   2.115  0.00  0.00    +0.037 C 
ATOM      3  H   UNL     1       4.480  -7.061   1.858  0.00  0.00    +0.152 HD
ATOM      4  C   UNL     1       0.506  -5.836   3.066  0.00  0.00    +0.163 C 
ATOM      5  O   UNL     1      -0.630  -5.660   2.673  0.00  0.00    -0.292 OA
ATOM      6  C   UNL     1       0.758  -5.912   4.543  0.00  0.00    +0.086 C 
ATOM      7  C   UNL     1       2.188  -5.431   4.817  0.00  0.00    -0.023 C 
ATOM      8  C   UNL     1       3.136  -6.304   3.998  0.00  0.00    +0.058 C 
ATOM      9  C   UNL     1       2.809  -6.182   2.519  0.00  0.00    +0.017 C 
ATOM     10  N   UNL     1       3.873  -6.324   1.687  0.00  0.00    -0.316 N 
ATOM     11  C   UNL     1       4.156  -5.495   0.610  0.00  0.00    +0.053 A 
ATOM     12  C   UNL     1       5.287  -4.698   0.565  0.00  0.00    +0.025 A 
ATOM     13  C   UNL     1       5.533  -3.931  -0.561  0.00  0.00    +0.002 A 
ATOM     14  C   UNL     1       4.659  -3.965  -1.633  0.00  0.00    +0.002 A 
ATOM     15  C   UNL     1       3.518  -4.747  -1.582  0.00  0.00    +0.025 A 
ATOM     16  C   UNL     1       3.259  -5.498  -0.447  0.00  0.00    +0.059 A 
ATOM     17  N   UNL     1       2.072  -6.212  -0.302  0.00  0.00    -0.254 N 
ATOM     18  C   UNL     1       1.839  -7.274  -1.098  0.00  0.00    +0.252 C 
ATOM     19  O   UNL     1       0.786  -7.876  -1.016  0.00  0.00    -0.270 OA
ATOM     20  C   UNL     1       2.334  -3.968   4.395  0.00  0.00    +0.011 C 
ATOM     21  C   UNL     1       2.506  -5.575   6.307  0.00  0.00    +0.011 C 
ENDROOT
BRANCH   1  25
ATOM     22  C   UNL     1      -0.015  -1.760  -0.009  0.00  0.00    +0.013 A 
ATOM     23  C   UNL     1       1.301  -2.084   0.266  0.00  0.00    +0.022 A 
ATOM     24  C   UNL     1       1.657  -3.401   0.490  0.00  0.00    +0.007 A 
ATOM     25  C   UNL     1       0.696  -4.394   0.440  0.00  0.00    -0.022 A 
ATOM     26  C   UNL     1      -0.619  -4.070   0.166  0.00  0.00    +0.007 A 
ATOM     27  C   UNL     1      -0.976  -2.753  -0.054  0.00  0.00    +0.022 A 
BRANCH  22  28
ATOM     28  N   UNL     1      -0.374  -0.428  -0.236  0.00  0.00    -0.394 NA
ATOM     29  H   UNL     1      -1.365  -0.374  -0.416  0.00  0.00    +0.126 HD
BRANCH  28  31
ATOM     30  C   UNL     1      -0.551   1.806   0.749  0.00  0.00    +0.022 C 
ATOM     31  C   UNL     1      -0.045   0.376   0.948  0.00  0.00    +0.081 C 
ENDBRANCH  28  31
BRANCH  28  32
ATOM     32  C   UNL     1       0.363   0.086  -1.398  0.00  0.00    +0.081 C 
ATOM     33  C   UNL     1      -0.072  -0.670  -2.655  0.00  0.00    +0.022 C 
ENDBRANCH  28  32
ENDBRANCH  22  28
ENDBRANCH   1  25
BRANCH  18  34
ATOM     34  C   UNL     1       2.863  -7.707  -2.069  0.00  0.00    +0.037 A 
ATOM     35  C   UNL     1       4.204  -7.370  -1.870  0.00  0.00    +0.016 A 
ATOM     36  C   UNL     1       5.156  -7.776  -2.778  0.00  0.00    +0.046 A 
ATOM     37  C   UNL     1       4.784  -8.521  -3.892  0.00  0.00    +0.120 A 
ATOM     38  C   UNL     1       3.451  -8.858  -4.094  0.00  0.00    +0.046 A 
ATOM     39  C   UNL     1       2.494  -8.460  -3.187  0.00  0.00    +0.016 A 
BRANCH  37  40
ATOM     40  O   UNL     1       5.726  -8.919  -4.785  0.00  0.00    -0.495 OA
ATOM     41  C   UNL     1       5.275  -9.681  -5.906  0.00  0.00    +0.277 C 
ENDBRANCH  37  40
ENDBRANCH  18  34
TORSDOF 6
