REMARK  Name = ZINC09138108
REMARK  9 active torsions:
REMARK  status: ('A' for Active; 'I' for Inactive)
REMARK    1  A    between atoms: C_1  and  C_2
REMARK    2  A    between atoms: C_4  and  C_33
REMARK    3  A    between atoms: C_6  and  N_8
REMARK    4  A    between atoms: C_9  and  C_11
REMARK    5  A    between atoms: N_13  and  C_14
REMARK    6  A    between atoms: C_14  and  C_15
REMARK    7  A    between atoms: C_15  and  C_17
REMARK    8  A    between atoms: C_15  and  N_69
REMARK    9  A    between atoms: N_26  and  C_27
REMARK                            x       y       z     vdW  Elec       q    Type
REMARK                         _______ _______ _______ _____ _____    ______ ____
ROOT
ATOM      1  C   UNL     1      -2.475  -0.069   0.702  0.00  0.00    -0.020 C 
ENDROOT
BRANCH   1   2
ATOM      2  C   UNL     1      -1.099  -0.650   0.504  0.00  0.00    -0.059 A 
ATOM      3  C   UNL     1       0.004   0.182   0.450  0.00  0.00    +0.004 A 
ATOM      4  C   UNL     1       1.260  -0.351   0.261  0.00  0.00    +0.023 A 
ATOM      5  C   UNL     1       1.429  -1.730   0.123  0.00  0.00    +0.033 A 
ATOM      6  C   UNL     1       0.323  -2.559   0.182  0.00  0.00    -0.026 A 
ATOM      7  C   UNL     1      -0.938  -2.015   0.371  0.00  0.00    +0.007 A 
ATOM      8  C   UNL     1       0.439  -4.057   0.051  0.00  0.00    +0.038 C 
ATOM      9  C   UNL     1       1.810  -4.419  -0.524  0.00  0.00    +0.024 C 
ATOM     10  C   UNL     1       2.871  -3.627   0.251  0.00  0.00    +0.105 C 
ATOM     11  N   UNL     1       2.724  -2.206  -0.075  0.00  0.00    -0.333 N 
ATOM     12  C   UNL     1       3.702  -1.394   0.661  0.00  0.00    +0.129 C 
ENDBRANCH   1   2
BRANCH   1  18
ATOM     13  C   UNL     1      -2.001   0.728  -1.535  0.00  0.00    -0.078 C 
ATOM     14  C   UNL     1      -2.369   1.795  -2.569  0.00  0.00    -0.019 C 
ATOM     15  C   UNL     1      -1.965   3.174  -2.039  0.00  0.00    -0.004 C 
ATOM     16  C   UNL     1      -2.664   3.421  -0.699  0.00  0.00    -0.019 C 
ATOM     17  C   UNL     1      -2.288   2.308   0.281  0.00  0.00    -0.078 C 
ATOM     18  N   UNL     1      -2.725   1.010  -0.276  0.00  0.00    +0.385 N 
ATOM     19  H   UNL     1      -3.731   1.055  -0.474  0.00  0.00    -0.081 HD
ENDBRANCH   1  18
BRANCH   1  20
ATOM     20  C   UNL     1      -2.593   0.492   2.120  0.00  0.00    +0.094 C 
BRANCH  20  23
ATOM     21  C   UNL     1      -4.245   1.673   3.468  0.00  0.00    +0.299 C 
ATOM     22  O   UNL     1      -3.406   1.794   4.337  0.00  0.00    -0.265 OA
ATOM     23  N   UNL     1      -3.939   1.037   2.319  0.00  0.00    -0.309 N 
ATOM     24  H   UNL     1      -4.609   0.940   1.625  0.00  0.00    +0.149 HD
BRANCH  21  26
ATOM     25  N   UNL     1      -5.923   2.864   4.819  0.00  0.00    -0.278 N 
ATOM     26  C   UNL     1      -5.616   2.228   3.671  0.00  0.00    +0.303 C 
ATOM     27  O   UNL     1      -6.455   2.107   2.802  0.00  0.00    -0.265 OA
ATOM     28  H   UNL     1      -5.234   3.023   5.484  0.00  0.00    +0.155 HD
BRANCH  25  34
ATOM     29  C   UNL     1      -9.655   3.557   7.940  0.00  0.00    +0.044 C 
ATOM     30  C   UNL     1      -9.067   3.641   6.556  0.00  0.00    -0.048 A 
ATOM     31  C   UNL     1      -9.824   4.145   5.513  0.00  0.00    +0.006 A 
ATOM     32  C   UNL     1      -9.288   4.224   4.241  0.00  0.00    -0.048 A 
ATOM     33  C   UNL     1      -7.994   3.800   4.007  0.00  0.00    +0.026 A 
ATOM     34  C   UNL     1      -7.231   3.294   5.052  0.00  0.00    +0.034 A 
ATOM     35  C   UNL     1      -7.775   3.211   6.328  0.00  0.00    +0.026 A 
ATOM     36  C   UNL     1     -10.116   4.773   3.108  0.00  0.00    +0.044 C 
ENDBRANCH  25  34
ENDBRANCH  21  26
ENDBRANCH  20  23
ENDBRANCH   1  20
TORSDOF 6
