REMARK  Name = ZINC64502908
REMARK  3 active torsions:
REMARK  status: ('A' for Active; 'I' for Inactive)
REMARK    1  A    between atoms: C_4  and  N_7
REMARK    2  A    between atoms: C_12  and  N_15
REMARK    3  A    between atoms: C_22  and  C_24
REMARK                            x       y       z     vdW  Elec       q    Type
REMARK                         _______ _______ _______ _____ _____    ______ ____
ROOT
ATOM      1  N   UNL     1       4.980  -4.649   0.381  0.00  0.00    -0.281 NA
ATOM      2  C   UNL     1       6.054  -5.377  -0.292  0.00  0.00    +0.088 C 
ATOM      3  C   UNL     1       6.265  -6.704   0.402  0.00  0.00    +0.034 C 
ATOM      4  C   UNL     1       5.412  -7.786  -0.281  0.00  0.00    +0.109 C 
ATOM      5  N   UNL     1       4.081  -7.266  -0.651  0.00  0.00    -0.298 N 
ATOM      6  C   UNL     1       3.311  -6.404   0.224  0.00  0.00    +0.123 C 
ATOM      7  C   UNL     1       3.664  -4.925  -0.058  0.00  0.00    +0.105 C 
ATOM      8  C   UNL     1       3.562  -7.604  -1.848  0.00  0.00    +0.242 C 
ATOM      9  O   UNL     1       2.518  -7.111  -2.217  0.00  0.00    -0.273 OA
ENDROOT
BRANCH   8  10
ATOM     10  C   UNL     1       4.280  -8.596  -2.727  0.00  0.00    +0.190 C 
ATOM     11  C   UNL     1       5.437  -7.925  -3.433  0.00  0.00    +0.016 C 
ATOM     12  C   UNL     1       5.182  -8.034  -4.756  0.00  0.00    -0.002 A 
ATOM     13  C   UNL     1       5.913  -7.590  -5.949  0.00  0.00    +0.029 A 
ATOM     14  C   UNL     1       5.394  -7.850  -7.172  0.00  0.00    +0.042 A 
ATOM     15  C   UNL     1       4.178  -8.532  -7.327  0.00  0.00    +0.022 A 
ATOM     16  C   UNL     1       3.450  -8.970  -6.278  0.00  0.00    +0.027 A 
ATOM     17  C   UNL     1       3.901  -8.751  -4.947  0.00  0.00    +0.043 A 
ATOM     18  N   UNL     1       3.384  -9.074  -3.785  0.00  0.00    -0.370 N 
ATOM     19 CL   UNL     1       6.256  -7.327  -8.585  0.00  0.00    -0.084 Cl
ATOM     20  H   UNL     1       2.549  -9.550  -3.648  0.00  0.00    +0.161 HD
ENDBRANCH   8  10
BRANCH   1  26
ATOM     21  N   UNL     1       4.421  -1.191   1.278  0.00  0.00    -0.200 N 
ATOM     22  C   UNL     1       5.667  -0.760   1.563  0.00  0.00    +0.257 C 
ATOM     23  O   UNL     1       5.883   0.421   1.762  0.00  0.00    -0.269 OA
ATOM     24  C   UNL     1       6.763  -1.745   1.629  0.00  0.00    +0.068 C 
ATOM     25  C   UNL     1       6.565  -2.937   1.058  0.00  0.00    +0.014 C 
ATOM     26  C   UNL     1       5.244  -3.204   0.382  0.00  0.00    +0.166 C 
ATOM     27  N   UNL     1       4.165  -2.517   1.103  0.00  0.00    -0.212 NA
ATOM     28  H   UNL     1       3.970  -2.967   1.985  0.00  0.00    +0.147 HD
BRANCH  21  32
ATOM     29  C   UNL     1       1.316   1.566   0.950  0.00  0.00    +0.000 A 
ATOM     30  C   UNL     1       1.114   0.376   1.625  0.00  0.00    +0.002 A 
ATOM     31  C   UNL     1       2.141  -0.540   1.735  0.00  0.00    +0.025 A 
ATOM     32  C   UNL     1       3.379  -0.266   1.168  0.00  0.00    +0.053 A 
ATOM     33  C   UNL     1       3.579   0.931   0.491  0.00  0.00    +0.025 A 
ATOM     34  C   UNL     1       2.547   1.843   0.384  0.00  0.00    +0.002 A 
ENDBRANCH  21  32
ENDBRANCH   1  26
TORSDOF 3
