REMARK  Name = ZINC63399921
REMARK  7 active torsions:
REMARK  status: ('A' for Active; 'I' for Inactive)
REMARK    1  A    between atoms: C_1  and  S_2
REMARK    2  A    between atoms: S_2  and  N_5
REMARK    3  A    between atoms: C_8  and  C_11
REMARK    4  A    between atoms: N_13  and  C_14
REMARK    5  A    between atoms: C_14  and  C_15
REMARK    6  A    between atoms: C_15  and  C_17
REMARK    7  A    between atoms: C_15  and  C_24
REMARK                            x       y       z     vdW  Elec       q    Type
REMARK                         _______ _______ _______ _____ _____    ______ ____
ROOT
ATOM      1  C   UNL     1       5.413  -5.175  -4.916  0.00  0.00    +0.066 C 
ENDROOT
BRANCH   1   2
ATOM      2  C   UNL     1       5.767  -6.558  -5.400  0.00  0.00    -0.033 C 
ATOM      3  C   UNL     1       6.539  -7.469  -4.764  0.00  0.00    -0.000 A 
ATOM      4  C   UNL     1       7.255  -7.445  -3.483  0.00  0.00    +0.010 A 
ATOM      5  C   UNL     1       7.962  -8.534  -3.107  0.00  0.00    +0.001 A 
ATOM      6  C   UNL     1       8.030  -9.682  -3.908  0.00  0.00    +0.002 A 
ATOM      7  C   UNL     1       7.400  -9.779  -5.098  0.00  0.00    +0.026 A 
ATOM      8  C   UNL     1       6.626  -8.693  -5.592  0.00  0.00    +0.043 A 
ATOM      9  N   UNL     1       5.934  -8.546  -6.696  0.00  0.00    -0.380 N 
ATOM     10  C   UNL     1       5.325  -7.211  -6.690  0.00  0.00    +0.145 C 
ATOM     11  H   UNL     1       5.838  -9.209  -7.397  0.00  0.00    +0.160 HD
ENDBRANCH   1   2
BRANCH   1  12
ATOM     12  C   UNL     1       5.902  -4.155  -5.911  0.00  0.00    -0.020 A 
ATOM     13  C   UNL     1       5.436  -4.178  -7.212  0.00  0.00    +0.006 A 
ATOM     14  C   UNL     1       5.885  -3.242  -8.125  0.00  0.00    +0.000 A 
ATOM     15  C   UNL     1       6.801  -2.282  -7.737  0.00  0.00    +0.001 A 
ATOM     16  C   UNL     1       7.268  -2.258  -6.437  0.00  0.00    +0.020 A 
ATOM     17  C   UNL     1       6.815  -3.191  -5.521  0.00  0.00    +0.045 A 
ATOM     18 CL   UNL     1       7.396  -3.157  -3.886  0.00  0.00    -0.083 Cl
ENDBRANCH   1  12
BRANCH   1  19
ATOM     19  C   UNL     1       3.894  -5.059  -4.772  0.00  0.00    +0.116 C 
BRANCH  19  22
ATOM     20  C   UNL     1       2.269  -3.431  -3.968  0.00  0.00    +0.216 C 
ATOM     21  O   UNL     1       1.387  -4.215  -4.252  0.00  0.00    -0.276 OA
ATOM     22  N   UNL     1       3.558  -3.757  -4.189  0.00  0.00    -0.314 N 
ATOM     23  H   UNL     1       4.262  -3.131  -3.963  0.00  0.00    +0.149 HD
BRANCH  20  27
ATOM     24  N   UNL     1       0.795  -0.411  -1.394  0.00  0.00    -0.181 NA
ATOM     25  C   UNL     1       0.053  -0.601  -2.648  0.00  0.00    +0.110 C 
ATOM     26  C   UNL     1       0.403  -1.976  -3.225  0.00  0.00    +0.030 C 
ATOM     27  C   UNL     1       1.922  -2.092  -3.369  0.00  0.00    +0.077 C 
ATOM     28  C   UNL     1       2.579  -1.965  -1.993  0.00  0.00    +0.030 C 
ATOM     29  C   UNL     1       2.254  -0.584  -1.403  0.00  0.00    +0.110 C 
BRANCH  24  31
ATOM     30  C   UNL     1      -0.022   1.810   0.012  0.00  0.00    +0.215 C 
ATOM     31  S   UNL     1       0.002  -0.004   0.002  0.00  0.00    +0.029 S 
ATOM     32  O   UNL     1       0.835  -0.488   1.046  0.00  0.00    -0.158 OA
ATOM     33  O   UNL     1      -1.315  -0.510  -0.168  0.00  0.00    -0.158 OA
ENDBRANCH  24  31
ENDBRANCH  20  27
ENDBRANCH  19  22
ENDBRANCH   1  19
TORSDOF 6
