REMARK  Name = ZINC39638482
REMARK  9 active torsions:
REMARK  status: ('A' for Active; 'I' for Inactive)
REMARK    1  A    between atoms: C_1  and  O_2
REMARK    2  A    between atoms: O_2  and  C_3
REMARK    3  A    between atoms: C_7  and  C_11
REMARK    4  A    between atoms: C_8  and  O_9
REMARK    5  A    between atoms: O_9  and  C_10
REMARK    6  A    between atoms: C_11  and  N_12
REMARK    7  A    between atoms: C_13  and  C_15
REMARK    8  A    between atoms: C_26  and  C_28
REMARK    9  A    between atoms: C_31  and  C_33
REMARK                            x       y       z     vdW  Elec       q    Type
REMARK                         _______ _______ _______ _____ _____    ______ ____
ROOT
ATOM      1  C   UNL     1      -0.311  -4.934  -4.485  0.00  0.00    +0.100 C 
ATOM      2  C   UNL     1      -0.262  -4.047  -5.750  0.00  0.00    +0.121 C 
ATOM      3  N   UNL     1       0.421  -4.882  -6.766  0.00  0.00    -0.294 N 
ATOM      4  C   UNL     1      -0.114  -6.246  -6.543  0.00  0.00    +0.115 C 
ATOM      5  C   UNL     1      -0.217  -6.376  -5.010  0.00  0.00    -0.004 C 
ATOM      6  C   UNL     1       1.028  -7.060  -4.455  0.00  0.00    -0.010 C 
ATOM      7  C   UNL     1       1.070  -8.511  -4.945  0.00  0.00    -0.082 C 
ATOM      8  N   UNL     1      -0.139  -9.214  -4.500  0.00  0.00    +0.379 N 
ATOM      9  C   UNL     1      -1.327  -8.606  -5.112  0.00  0.00    -0.082 C 
ATOM     10  C   UNL     1      -1.469  -7.160  -4.630  0.00  0.00    -0.010 C 
ATOM     11  C   UNL     1       1.325  -4.490  -7.686  0.00  0.00    +0.282 C 
ATOM     12  O   UNL     1       1.800  -5.302  -8.458  0.00  0.00    -0.267 OA
ATOM     13  H   UNL     1      -0.082 -10.184  -4.771  0.00  0.00    -0.086 HD
ATOM     14  H   UNL     1      -0.212  -9.152  -3.495  0.00  0.00    -0.086 HD
ENDROOT
BRANCH  11  15
ATOM     15  C   UNL     1       1.737  -3.086  -7.755  0.00  0.00    +0.190 A 
ATOM     16  C   UNL     1       2.643  -2.551  -8.645  0.00  0.00    +0.055 A 
ATOM     17  C   UNL     1       2.734  -1.186  -8.357  0.00  0.00    +0.050 A 
ATOM     18  C   UNL     1       1.890  -0.938  -7.313  0.00  0.00    +0.136 A 
ATOM     19  O   UNL     1       1.290  -2.088  -6.963  0.00  0.00    -0.450 OA
BRANCH  18  20
ATOM     20  C   UNL     1       1.668   0.376  -6.679  0.00  0.00    +0.017 A 
ATOM     21  C   UNL     1       2.348   1.504  -7.146  0.00  0.00    +0.014 A 
ATOM     22  C   UNL     1       2.136   2.729  -6.549  0.00  0.00    +0.039 A 
ATOM     23  C   UNL     1       1.251   2.843  -5.489  0.00  0.00    +0.123 A 
ATOM     24  C   UNL     1       0.574   1.728  -5.021  0.00  0.00    +0.039 A 
ATOM     25  C   UNL     1       0.773   0.498  -5.613  0.00  0.00    +0.014 A 
ATOM     26  F   UNL     1       1.048   4.046  -4.908  0.00  0.00    -0.205 F 
ENDBRANCH  18  20
ENDBRANCH  11  15
BRANCH   1  28
ATOM     27  N   UNL     1       0.762  -4.850  -2.258  0.00  0.00    -0.311 N 
ATOM     28  C   UNL     1       0.857  -4.626  -3.584  0.00  0.00    +0.218 C 
ATOM     29  O   UNL     1       1.882  -4.177  -4.051  0.00  0.00    -0.275 OA
ATOM     30  H   UNL     1      -0.030  -5.274  -1.893  0.00  0.00    +0.149 HD
BRANCH  27  31
ATOM     31  C   UNL     1       1.856  -4.453  -1.368  0.00  0.00    +0.143 C 
BRANCH  31  36
ATOM     32  C   UNL     1       1.134  -6.180   1.922  0.00  0.00    +0.162 A 
ATOM     33  C   UNL     1       0.699  -5.117   2.697  0.00  0.00    +0.049 A 
ATOM     34  C   UNL     1       0.641  -3.846   2.156  0.00  0.00    +0.004 A 
ATOM     35  C   UNL     1       1.015  -3.632   0.842  0.00  0.00    +0.009 A 
ATOM     36  C   UNL     1       1.449  -4.689   0.064  0.00  0.00    +0.015 A 
ATOM     37  C   UNL     1       1.516  -5.965   0.601  0.00  0.00    +0.166 A 
BRANCH  32  39
ATOM     38  C   UNL     1       0.784  -7.578   3.814  0.00  0.00    +0.277 C 
ATOM     39  O   UNL     1       1.192  -7.431   2.453  0.00  0.00    -0.491 OA
ENDBRANCH  32  39
BRANCH  37  40
ATOM     40  O   UNL     1       1.948  -7.004  -0.161  0.00  0.00    -0.491 OA
ATOM     41  C   UNL     1       0.949  -7.795  -0.807  0.00  0.00    +0.277 C 
ENDBRANCH  37  40
ENDBRANCH  31  36
ENDBRANCH  27  31
ENDBRANCH   1  28
TORSDOF 7
