REMARK  Name = ZINC38533032
REMARK  10 active torsions:
REMARK  status: ('A' for Active; 'I' for Inactive)
REMARK    1  A    between atoms: C_1  and  C_2
REMARK    2  A    between atoms: C_2  and  O_3
REMARK    3  A    between atoms: O_3  and  C_4
REMARK    4  A    between atoms: C_6  and  C_19
REMARK    5  A    between atoms: C_9  and  O_10
REMARK    6  A    between atoms: O_10  and  C_11
REMARK    7  A    between atoms: C_11  and  C_12
REMARK    8  A    between atoms: C_21  and  C_32
REMARK    9  A    between atoms: C_22  and  N_31
REMARK   10  A    between atoms: C_27  and  C_30
REMARK                            x       y       z     vdW  Elec       q    Type
REMARK                         _______ _______ _______ _____ _____    ______ ____
ROOT
ATOM      1  C   UNL     1       0.802  -1.825   1.306  0.00  0.00    +0.162 A 
ATOM      2  C   UNL     1       0.261  -2.673   0.353  0.00  0.00    +0.054 A 
ATOM      3  C   UNL     1       0.372  -4.043   0.502  0.00  0.00    -0.031 A 
ATOM      4  C   UNL     1       1.024  -4.570   1.602  0.00  0.00    +0.008 A 
ATOM      5  C   UNL     1       1.566  -3.730   2.557  0.00  0.00    +0.050 A 
ATOM      6  C   UNL     1       1.462  -2.356   2.410  0.00  0.00    +0.162 A 
ENDROOT
BRANCH   3   7
ATOM      7  C   UNL     1      -0.217  -4.963  -0.535  0.00  0.00    +0.098 C 
ATOM      8  C   UNL     1      -1.226  -5.898   0.105  0.00  0.00    +0.097 C 
ATOM      9  C   UNL     1      -1.162  -7.236  -0.065  0.00  0.00    +0.195 C 
ATOM     10  O   UNL     1      -0.234  -7.913  -0.766  0.00  0.00    -0.448 OA
ATOM     11  C   UNL     1       0.492  -7.190  -1.763  0.00  0.00    +0.343 C 
ATOM     12  C   UNL     1       0.851  -5.853  -1.108  0.00  0.00    +0.030 C 
ATOM     13  C   UNL     1       2.157  -5.774  -1.188  0.00  0.00    +0.066 C 
ATOM     14  N   UNL     1       2.667  -6.919  -1.709  0.00  0.00    -0.155 NA
ATOM     15  N   UNL     1       1.809  -7.774  -2.033  0.00  0.00    -0.138 NA
ATOM     16  C   UNL     1       2.975  -4.582  -0.763  0.00  0.00    +0.067 C 
BRANCH   9  17
ATOM     17  N   UNL     1      -2.143  -7.981   0.540  0.00  0.00    -0.329 N 
ATOM     18  H   UNL     1      -2.835  -7.542   1.058  0.00  0.00    +0.145 HD
ATOM     19  H   UNL     1      -2.143  -8.947   0.449  0.00  0.00    +0.145 HD
ENDBRANCH   9  17
BRANCH   8  20
ATOM     20  C   UNL     1      -2.274  -5.348   0.912  0.00  0.00    +0.101 C 
ATOM     21  N   UNL     1      -3.105  -4.911   1.551  0.00  0.00    -0.191 NA
ENDBRANCH   8  20
ENDBRANCH   3   7
BRANCH   1  22
ATOM     22  O   UNL     1       0.693  -0.477   1.160  0.00  0.00    -0.489 OA
BRANCH  22  24
ATOM     23  C   UNL     1      -0.019   1.526   0.010  0.00  0.00    +0.048 C 
ATOM     24  C   UNL     1       0.002  -0.004   0.002  0.00  0.00    +0.226 C 
ENDBRANCH  22  24
ENDBRANCH   1  22
BRANCH   6  25
ATOM     25  O   UNL     1       2.000  -1.528   3.345  0.00  0.00    -0.484 OA
BRANCH  25  26
ATOM     26  C   UNL     1       2.664  -2.143   4.451  0.00  0.00    +0.264 C 
BRANCH  26  27
ATOM     27  C   UNL     1       3.191  -1.077   5.376  0.00  0.00    -0.008 A 
ATOM     28  C   UNL     1       4.463  -0.566   5.189  0.00  0.00    +0.007 A 
ATOM     29  C   UNL     1       4.948   0.411   6.036  0.00  0.00    +0.003 A 
ATOM     30  C   UNL     1       4.163   0.880   7.073  0.00  0.00    +0.038 A 
ATOM     31  C   UNL     1       2.890   0.370   7.262  0.00  0.00    +0.124 A 
ATOM     32  C   UNL     1       2.403  -0.606   6.408  0.00  0.00    +0.045 A 
ATOM     33  F   UNL     1       2.123   0.827   8.275  0.00  0.00    -0.205 F 
ENDBRANCH  26  27
ENDBRANCH  25  26
ENDBRANCH   6  25
TORSDOF 8
