REMARK  Name = ZINC12603061
REMARK  7 active torsions:
REMARK  status: ('A' for Active; 'I' for Inactive)
REMARK    1  A    between atoms: C_1  and  O_2
REMARK    2  A    between atoms: O_2  and  C_3
REMARK    3  A    between atoms: C_3  and  C_5
REMARK    4  A    between atoms: C_21  and  C_35
REMARK    5  A    between atoms: C_24  and  N_27
REMARK    6  A    between atoms: N_27  and  C_28
REMARK    7  A    between atoms: C_28  and  C_29
REMARK                            x       y       z     vdW  Elec       q    Type
REMARK                         _______ _______ _______ _____ _____    ______ ____
ROOT
ATOM      1  C   UNL     1      -2.564   1.709   2.152  0.00  0.00    +0.049 C 
ATOM      2  C   UNL     1      -1.683   1.106   3.255  0.00  0.00    +0.033 C 
ATOM      3  C   UNL     1      -1.923  -0.382   3.288  0.00  0.00    -0.022 A 
ATOM      4  C   UNL     1      -1.139  -1.422   3.917  0.00  0.00    +0.003 A 
ATOM      5  C   UNL     1       0.043  -1.402   4.664  0.00  0.00    +0.010 A 
ATOM      6  C   UNL     1       0.515  -2.611   5.113  0.00  0.00    +0.001 A 
ATOM      7  C   UNL     1      -0.139  -3.802   4.845  0.00  0.00    +0.002 A 
ATOM      8  C   UNL     1      -1.310  -3.852   4.108  0.00  0.00    +0.026 A 
ATOM      9  C   UNL     1      -1.813  -2.640   3.639  0.00  0.00    +0.047 A 
ATOM     10  N   UNL     1      -2.919  -2.334   2.899  0.00  0.00    -0.359 N 
ATOM     11  H   UNL     1      -3.598  -3.134   2.569  0.00  0.00    +0.166 HD
ATOM     12  C   UNL     1      -2.978  -0.983   2.690  0.00  0.00    +0.007 A 
ATOM     13  C   UNL     1      -4.028  -0.219   1.924  0.00  0.00    -0.017 C 
ATOM     14  N   UNL     1      -3.934   1.202   2.288  0.00  0.00    +0.399 N 
ATOM     15  C   UNL     1      -4.891   2.005   1.518  0.00  0.00    -0.031 C 
ATOM     16  C   UNL     1      -6.312   1.556   1.836  0.00  0.00    +0.008 C 
ATOM     17  C   UNL     1      -6.466   0.070   1.499  0.00  0.00    +0.051 C 
ATOM     18  C   UNL     1      -5.423  -0.738   2.276  0.00  0.00    +0.009 C 
ATOM     19  H   UNL     1      -4.201   1.296   3.351  0.00  0.00    -0.079 HD
ENDROOT
BRANCH  15  20
ATOM     20  C   UNL     1      -4.729   3.460   1.876  0.00  0.00    -0.026 A 
ATOM     21  C   UNL     1      -4.677   4.416   0.878  0.00  0.00    +0.005 A 
ATOM     22  C   UNL     1      -4.530   5.750   1.206  0.00  0.00    +0.000 A 
ATOM     23  C   UNL     1      -4.435   6.131   2.532  0.00  0.00    +0.003 A 
ATOM     24  C   UNL     1      -4.486   5.178   3.531  0.00  0.00    +0.038 A 
ATOM     25  C   UNL     1      -4.639   3.841   3.204  0.00  0.00    +0.125 A 
ATOM     26  F   UNL     1      -4.696   2.908   4.180  0.00  0.00    -0.205 F 
ENDBRANCH  15  20
BRANCH   1  27
ATOM     27  C   UNL     1      -2.016   1.319   0.803  0.00  0.00    +0.294 C 
ATOM     28  O   UNL     1      -2.754   0.868  -0.041  0.00  0.00    -0.253 OA
BRANCH  27  30
ATOM     29  C   UNL     1      -0.252   1.075  -0.780  0.00  0.00    +0.280 C 
ATOM     30  O   UNL     1      -0.709   1.471   0.540  0.00  0.00    -0.469 OA
ENDBRANCH  27  30
ENDBRANCH   1  27
BRANCH  17  31
ATOM     31  N   UNL     1      -6.267  -0.129   0.057  0.00  0.00    -0.311 NA
ATOM     32  H   UNL     1      -5.505   0.575  -0.308  0.00  0.00    +0.122 HD
BRANCH  31  33
ATOM     33  C   UNL     1      -7.514   0.102  -0.684  0.00  0.00    +0.112 C 
BRANCH  33  34
ATOM     34  C   UNL     1      -7.268  -0.115  -2.178  0.00  0.00    +0.132 C 
ATOM     35  C   UNL     1      -8.554   0.193  -2.986  0.00  0.00    +0.035 C 
ATOM     36  C   UNL     1      -7.953   0.547  -4.373  0.00  0.00    +0.031 C 
ATOM     37  C   UNL     1      -6.626   1.238  -3.989  0.00  0.00    +0.160 C 
ATOM     38  O   UNL     1      -6.288   0.819  -2.662  0.00  0.00    -0.375 OA
ENDBRANCH  33  34
ENDBRANCH  31  33
ENDBRANCH  17  31
TORSDOF 6
