REMARK  Name = ZINC14459670
REMARK  5 active torsions:
REMARK  status: ('A' for Active; 'I' for Inactive)
REMARK    1  A    between atoms: C_1  and  O_2
REMARK    2  A    between atoms: O_2  and  C_3
REMARK    3  A    between atoms: C_7  and  C_10
REMARK    4  A    between atoms: C_8  and  O_9
REMARK    5  A    between atoms: C_20  and  N_27
REMARK                            x       y       z     vdW  Elec       q    Type
REMARK                         _______ _______ _______ _____ _____    ______ ____
ROOT
ATOM      1  C   UNL     1       1.225  -2.188   0.063  0.00  0.00    +0.109 C 
ATOM      2  C   UNL     1       1.319  -2.731  -1.364  0.00  0.00    +0.029 C 
ATOM      3  C   UNL     1       2.517  -2.030  -2.063  0.00  0.00    +0.033 C 
ATOM      4  C   UNL     1       1.937  -0.707  -2.522  0.00  0.00    -0.030 C 
ATOM      5  C   UNL     1       0.631  -0.780  -2.600  0.00  0.00    -0.023 C 
ATOM      6  C   UNL     1       0.153  -2.156  -2.197  0.00  0.00    +0.051 C 
ATOM      7  C   UNL     1      -1.108  -2.061  -1.389  0.00  0.00    +0.014 A 
ATOM      8  C   UNL     1      -2.278  -1.705  -2.048  0.00  0.00    +0.132 A 
ATOM      9  C   UNL     1      -3.467  -1.592  -1.359  0.00  0.00    +0.036 A 
ATOM     10  C   UNL     1      -3.505  -1.835   0.003  0.00  0.00    +0.042 A 
ATOM     11  C   UNL     1      -2.349  -2.192   0.666  0.00  0.00    +0.145 A 
ATOM     12  C   UNL     1      -1.143  -2.309  -0.029  0.00  0.00    +0.069 A 
ATOM     13  N   UNL     1      -0.004  -2.676   0.690  0.00  0.00    -0.334 N 
ATOM     14  F   UNL     1      -2.383  -2.431   1.996  0.00  0.00    -0.204 F 
ATOM     15  H   UNL     1      -0.068  -2.369   1.649  0.00  0.00    +0.147 HD
ENDROOT
BRANCH   1  20
ATOM     16  C   UNL     1       2.373   1.419   0.108  0.00  0.00    +0.162 A 
ATOM     17  C   UNL     1       1.169   2.088  -0.040  0.00  0.00    +0.049 A 
ATOM     18  C   UNL     1      -0.010   1.375  -0.153  0.00  0.00    +0.004 A 
ATOM     19  C   UNL     1       0.010  -0.007  -0.119  0.00  0.00    +0.009 A 
ATOM     20  C   UNL     1       1.208  -0.682   0.028  0.00  0.00    +0.018 A 
ATOM     21  C   UNL     1       2.392   0.028   0.142  0.00  0.00    +0.163 A 
BRANCH  16  23
ATOM     22  C   UNL     1       3.437   3.545   0.176  0.00  0.00    +0.277 C 
ATOM     23  O   UNL     1       3.533   2.120   0.219  0.00  0.00    -0.491 OA
ENDBRANCH  16  23
BRANCH  21  24
ATOM     24  O   UNL     1       3.572  -0.634   0.286  0.00  0.00    -0.503 OA
ATOM     25  H   UNL     1       4.060  -0.752  -0.539  0.00  0.00    +0.292 HD
ENDBRANCH  21  24
ENDBRANCH   1  20
BRANCH   8  26
ATOM     26  N   UNL     1      -2.248  -1.444  -3.505  0.00  0.00    +0.057 N 
ATOM     27  O   UNL     1      -3.271  -1.131  -4.088  0.00  0.00    -0.126 OA
ATOM     28  O   UNL     1      -1.202  -1.542  -4.120  0.00  0.00    -0.126 OA
ENDBRANCH   8  26
TORSDOF 4
