REMARK  Name = ZINC16724621
REMARK  9 active torsions:
REMARK  status: ('A' for Active; 'I' for Inactive)
REMARK    1  A    between atoms: C_1  and  C_2
REMARK    2  A    between atoms: C_5  and  N_9
REMARK    3  A    between atoms: C_6  and  C_8
REMARK    4  A    between atoms: C_10  and  C_12
REMARK    5  A    between atoms: C_12  and  C_14
REMARK    6  A    between atoms: C_12  and  S_15
REMARK    7  A    between atoms: S_15  and  C_16
REMARK    8  A    between atoms: N_29  and  C_30
REMARK    9  A    between atoms: C_35  and  C_36
REMARK                            x       y       z     vdW  Elec       q    Type
REMARK                         _______ _______ _______ _____ _____    ______ ____
ROOT
ATOM      1  C   UNL     1       0.204   4.431  -0.006  0.00  0.00    +0.198 A 
ATOM      2  N   UNL     1       0.792   5.604  -0.013  0.00  0.00    -0.120 NA
ATOM      3  N   UNL     1       2.068   5.458  -0.035  0.00  0.00    -0.109 NA
ATOM      4  C   UNL     1       2.377   4.183  -0.044  0.00  0.00    +0.245 A 
ATOM      5  N   UNL     1       1.195   3.488  -0.025  0.00  0.00    -0.255 N 
ATOM      6  C   UNL     1       1.185   2.099  -0.029  0.00  0.00    +0.064 A 
ATOM      7  C   UNL     1      -0.006   1.388  -0.012  0.00  0.00    +0.027 A 
ATOM      8  C   UNL     1       0.017   0.007  -0.017  0.00  0.00    +0.002 A 
ATOM      9  C   UNL     1       1.221  -0.678  -0.039  0.00  0.00    +0.001 A 
ATOM     10  C   UNL     1       2.415   0.012  -0.058  0.00  0.00    +0.015 A 
ATOM     11  C   UNL     1       2.406   1.405  -0.053  0.00  0.00    +0.064 A 
ATOM     12  C   UNL     1       3.660   2.179  -0.072  0.00  0.00    +0.268 A 
ATOM     13  O   UNL     1       4.736   1.611  -0.093  0.00  0.00    -0.267 OA
ATOM     14  N   UNL     1       3.598   3.527  -0.067  0.00  0.00    -0.245 N 
ENDROOT
BRANCH  14  15
ATOM     15  C   UNL     1       4.782   4.273  -0.085  0.00  0.00    +0.056 A 
ATOM     16  C   UNL     1       5.350   4.647  -1.296  0.00  0.00    +0.026 A 
ATOM     17  C   UNL     1       6.518   5.383  -1.311  0.00  0.00    +0.002 A 
ATOM     18  C   UNL     1       7.123   5.747  -0.121  0.00  0.00    +0.000 A 
ATOM     19  C   UNL     1       6.559   5.377   1.086  0.00  0.00    +0.005 A 
ATOM     20  C   UNL     1       5.388   4.645   1.107  0.00  0.00    -0.026 A 
ATOM     21  C   UNL     1       4.771   4.247   2.423  0.00  0.00    +0.046 C 
ENDBRANCH  14  15
BRANCH   1  22
ATOM     22  S   UNL     1      -1.532   4.128   0.024  0.00  0.00    -0.073 S 
BRANCH  22  23
ATOM     23  C   UNL     1      -2.267   5.787   0.041  0.00  0.00    +0.137 C 
ATOM     24  C   UNL     1      -1.939   6.503  -1.271  0.00  0.00    +0.029 C 
BRANCH  23  26
ATOM     25  N   UNL     1      -4.478   6.727   0.627  0.00  0.00    -0.284 N 
ATOM     26  C   UNL     1      -3.762   5.672   0.191  0.00  0.00    +0.230 C 
ATOM     27  O   UNL     1      -4.320   4.631  -0.081  0.00  0.00    -0.274 OA
ATOM     28  H   UNL     1      -4.025   7.533   0.921  0.00  0.00    +0.155 HD
BRANCH  25  33
ATOM     29  C   UNL     1     -10.143   6.455   0.747  0.00  0.00    +0.044 C 
ATOM     30  C   UNL     1      -8.638   6.527   0.715  0.00  0.00    -0.050 A 
ATOM     31  C   UNL     1      -7.928   5.729  -0.162  0.00  0.00    +0.005 A 
ATOM     32  C   UNL     1      -6.548   5.793  -0.194  0.00  0.00    +0.024 A 
ATOM     33  C   UNL     1      -5.875   6.660   0.657  0.00  0.00    +0.036 A 
ATOM     34  C   UNL     1      -6.591   7.457   1.540  0.00  0.00    -0.029 A 
ATOM     35  C   UNL     1      -7.971   7.392   1.563  0.00  0.00    +0.008 A 
ATOM     36  C   UNL     1      -5.865   8.395   2.469  0.00  0.00    +0.045 C 
ENDBRANCH  25  33
ENDBRANCH  23  26
ENDBRANCH  22  23
ENDBRANCH   1  22
TORSDOF 5
