REMARK  Name = ZINC35065706
REMARK  13 active torsions:
REMARK  status: ('A' for Active; 'I' for Inactive)
REMARK    1  A    between atoms: C_1  and  C_2
REMARK    2  A    between atoms: C_2  and  C_4
REMARK    3  A    between atoms: C_2  and  N_24
REMARK    4  A    between atoms: N_14  and  C_15
REMARK    5  A    between atoms: C_18  and  O_21
REMARK    6  A    between atoms: O_21  and  C_22
REMARK    7  A    between atoms: N_24  and  C_25
REMARK    8  A    between atoms: C_25  and  C_26
REMARK    9  A    between atoms: C_26  and  N_27
REMARK   10  A    between atoms: N_27  and  C_28
REMARK   11  A    between atoms: N_27  and  C_29
REMARK   12  A    between atoms: C_30  and  C_32
REMARK   13  A    between atoms: C_33  and  C_34
REMARK                            x       y       z     vdW  Elec       q    Type
REMARK                         _______ _______ _______ _____ _____    ______ ____
ROOT
ATOM      1  C   UNL     1       0.921  -0.842   0.679  0.00  0.00    +0.138 A 
ATOM      2  N   UNL     1       1.651   0.061   1.261  0.00  0.00    -0.231 NA
ATOM      3  C   UNL     1       2.316  -0.197   2.415  0.00  0.00    +0.080 A 
ATOM      4  C   UNL     1       3.101   0.772   3.041  0.00  0.00    +0.048 A 
ATOM      5  C   UNL     1       3.757   0.462   4.213  0.00  0.00    +0.043 A 
ATOM      6  C   UNL     1       3.646  -0.804   4.777  0.00  0.00    +0.021 A 
ATOM      7  C   UNL     1       2.882  -1.769   4.181  0.00  0.00    +0.017 A 
ATOM      8  C   UNL     1       2.208  -1.481   2.996  0.00  0.00    +0.065 A 
ATOM      9  C   UNL     1       1.374  -2.479   2.313  0.00  0.00    +0.266 A 
ATOM     10  O   UNL     1       1.239  -3.603   2.761  0.00  0.00    -0.267 OA
ATOM     11  N   UNL     1       0.757  -2.100   1.170  0.00  0.00    -0.263 N 
ATOM     12 CL   UNL     1       4.734   1.665   4.994  0.00  0.00    -0.083 Cl
ENDROOT
BRANCH  11  13
ATOM     13  C   UNL     1      -0.055  -3.013   0.483  0.00  0.00    +0.051 A 
ATOM     14  C   UNL     1       0.523  -4.014  -0.287  0.00  0.00    +0.030 A 
ATOM     15  C   UNL     1      -0.277  -4.913  -0.964  0.00  0.00    +0.047 A 
ATOM     16  C   UNL     1      -1.658  -4.816  -0.875  0.00  0.00    +0.120 A 
ATOM     17  C   UNL     1      -2.236  -3.816  -0.107  0.00  0.00    +0.047 A 
ATOM     18  C   UNL     1      -1.437  -2.920   0.576  0.00  0.00    +0.030 A 
BRANCH  16  19
ATOM     19  O   UNL     1      -2.445  -5.701  -1.543  0.00  0.00    -0.495 OA
ATOM     20  C   UNL     1      -3.859  -5.542  -1.407  0.00  0.00    +0.277 C 
ENDBRANCH  16  19
ENDBRANCH  11  13
BRANCH   1  22
ATOM     21  C   UNL     1       0.222   1.046  -0.769  0.00  0.00    +0.036 C 
ATOM     22  C   UNL     1       0.214  -0.475  -0.600  0.00  0.00    +0.140 C 
BRANCH  22  23
ATOM     23  N   UNL     1       0.904  -1.096  -1.734  0.00  0.00    -0.290 N 
ATOM     24  C   UNL     1       0.219  -1.875  -2.594  0.00  0.00    +0.240 C 
ATOM     25  O   UNL     1      -0.972  -2.063  -2.430  0.00  0.00    -0.271 OA
BRANCH  24  26
ATOM     26  C   UNL     1       0.909  -2.496  -3.728  0.00  0.00    +0.068 C 
ATOM     27  C   UNL     1       0.224  -3.275  -4.588  0.00  0.00    +0.013 C 
BRANCH  27  28
ATOM     28  C   UNL     1       0.917  -3.899  -5.728  0.00  0.00    -0.025 A 
ATOM     29  C   UNL     1       2.286  -3.690  -5.917  0.00  0.00    +0.008 A 
ATOM     30  C   UNL     1       2.928  -4.278  -6.987  0.00  0.00    +0.001 A 
ATOM     31  C   UNL     1       2.220  -5.072  -7.871  0.00  0.00    +0.000 A 
ATOM     32  C   UNL     1       0.865  -5.284  -7.691  0.00  0.00    +0.001 A 
ATOM     33  C   UNL     1       0.210  -4.708  -6.622  0.00  0.00    +0.008 A 
ENDBRANCH  27  28
ENDBRANCH  24  26
BRANCH  23  34
ATOM     34  C   UNL     1       2.338  -0.870  -1.932  0.00  0.00    +0.090 C 
BRANCH  34  35
ATOM     35  C   UNL     1       3.127  -2.025  -1.314  0.00  0.00    -0.060 C 
BRANCH  35  36
ATOM     36  N   UNL     1       4.565  -1.797  -1.511  0.00  0.00    +0.377 N 
ATOM     37  C   UNL     1       4.977  -0.602  -0.764  0.00  0.00    -0.097 C 
ATOM     38  C   UNL     1       5.316  -2.962  -1.024  0.00  0.00    -0.097 C 
ATOM     39  H   UNL     1       4.752  -1.662  -2.493  0.00  0.00    -0.083 HD
ENDBRANCH  35  36
ENDBRANCH  34  35
ENDBRANCH  23  34
ENDBRANCH  22  23
ENDBRANCH   1  22
TORSDOF 9
