REMARK  Name = ZINC02326317
REMARK  6 active torsions:
REMARK  status: ('A' for Active; 'I' for Inactive)
REMARK    1  A    between atoms: C_1  and  N_53
REMARK    2  A    between atoms: C_12  and  C_15
REMARK    3  A    between atoms: C_19  and  O_21
REMARK    4  A    between atoms: O_21  and  C_22
REMARK    5  A    between atoms: C_25  and  N_31
REMARK    6  A    between atoms: C_27  and  N_28
REMARK                            x       y       z     vdW  Elec       q    Type
REMARK                         _______ _______ _______ _____ _____    ______ ____
ROOT
ATOM      1  C   UNL     1      -1.416   4.450   5.439  0.00  0.00    -0.006 A 
ATOM      2  C   UNL     1      -0.331   4.034   6.188  0.00  0.00    +0.007 A 
ATOM      3  C   UNL     1       0.561   4.963   6.691  0.00  0.00    +0.004 A 
ATOM      4  C   UNL     1       0.371   6.309   6.447  0.00  0.00    +0.046 A 
ATOM      5  C   UNL     1      -0.718   6.729   5.695  0.00  0.00    +0.129 A 
ATOM      6  C   UNL     1      -1.608   5.794   5.186  0.00  0.00    +0.053 A 
ENDROOT
BRANCH   1  18
ATOM      7  C   UNL     1       1.973   1.509  -2.124  0.00  0.00    -0.096 C 
ATOM      8  C   UNL     1       0.616   3.168  -0.996  0.00  0.00    -0.074 C 
ATOM      9  C   UNL     1      -0.667   3.345  -0.180  0.00  0.00    +0.018 C 
ATOM     10  C   UNL     1      -0.490   2.616   1.148  0.00  0.00    -0.027 A 
ATOM     11  C   UNL     1       0.483   1.686   1.285  0.00  0.00    -0.021 A 
ATOM     12  S   UNL     1       0.331   1.108   2.953  0.00  0.00    -0.080 S 
ATOM     13  C   UNL     1      -0.990   2.076   3.452  0.00  0.00    +0.080 A 
ATOM     14  C   UNL     1      -1.309   2.849   2.325  0.00  0.00    +0.068 A 
ATOM     15  C   UNL     1      -2.438   3.800   2.445  0.00  0.00    +0.248 C 
ATOM     16  O   UNL     1      -2.855   4.414   1.480  0.00  0.00    -0.270 OA
ATOM     17  N   UNL     1      -2.985   3.959   3.668  0.00  0.00    -0.289 N 
ATOM     18  C   UNL     1      -2.387   3.435   4.892  0.00  0.00    +0.190 C 
ATOM     19  N   UNL     1      -1.672   2.171   4.638  0.00  0.00    -0.316 N 
ATOM     20  C   UNL     1       1.459   1.259   0.234  0.00  0.00    -0.036 C 
ATOM     21  H   UNL     1      -3.821   4.447   3.738  0.00  0.00    +0.151 HD
ATOM     22  H   UNL     1      -1.683   1.442   5.278  0.00  0.00    +0.149 HD
ATOM     23  N   UNL     1       0.952   1.732  -1.077  0.00  0.00    +0.381 N 
ATOM     24  H   UNL     1       0.105   1.204  -1.318  0.00  0.00    -0.082 HD
ENDBRANCH   1  18
BRANCH   5  25
ATOM     25  O   UNL     1      -0.907   8.052   5.453  0.00  0.00    -0.454 OA
BRANCH  25  26
ATOM     26  C   UNL     1      -1.845   8.707   6.186  0.00  0.00    +0.159 A 
ATOM     27  C   UNL     1      -2.522   8.044   7.200  0.00  0.00    +0.051 A 
ATOM     28  C   UNL     1      -3.471   8.714   7.948  0.00  0.00    +0.036 A 
ATOM     29  C   UNL     1      -3.754  10.041   7.680  0.00  0.00    +0.129 A 
ATOM     30  C   UNL     1      -3.085  10.702   6.667  0.00  0.00    +0.069 A 
ATOM     31  C   UNL     1      -2.131  10.038   5.919  0.00  0.00    +0.170 A 
BRANCH  31  32
ATOM     32  N   UNL     1      -1.415  10.747   4.835  0.00  0.00    +0.060 N 
ATOM     33  O   UNL     1      -1.667  11.915   4.601  0.00  0.00    -0.126 OA
ATOM     34  O   UNL     1      -0.574  10.162   4.176  0.00  0.00    -0.126 OA
ENDBRANCH  31  32
BRANCH  29  35
ATOM     35  N   UNL     1      -4.776  10.754   8.479  0.00  0.00    +0.057 N 
ATOM     36  O   UNL     1      -5.027  11.922   8.243  0.00  0.00    -0.126 OA
ATOM     37  O   UNL     1      -5.366  10.172   9.371  0.00  0.00    -0.126 OA
ENDBRANCH  29  35
ENDBRANCH  25  26
ENDBRANCH   5  25
TORSDOF 5
