REMARK  Name = ZINC49735117
REMARK  8 active torsions:
REMARK  status: ('A' for Active; 'I' for Inactive)
REMARK    1  A    between atoms: C_1  and  C_2
REMARK    2  A    between atoms: C_2  and  C_3
REMARK    3  A    between atoms: C_3  and  C_4
REMARK    4  A    between atoms: C_4  and  N_5
REMARK    5  A    between atoms: C_24  and  C_27
REMARK    6  A    between atoms: C_30  and  O_35
REMARK    7  A    between atoms: C_31  and  O_33
REMARK    8  A    between atoms: O_33  and  C_34
REMARK                            x       y       z     vdW  Elec       q    Type
REMARK                         _______ _______ _______ _____ _____    ______ ____
ROOT
ATOM      1  N   UNL     1      -2.913  -2.314  -0.002  0.00  0.00    -0.249 N 
ATOM      2  C   UNL     1      -3.530  -2.526   1.178  0.00  0.00    +0.259 C 
ATOM      3  O   UNL     1      -3.068  -2.083   2.213  0.00  0.00    -0.269 OA
ATOM      4  C   UNL     1      -4.779  -3.309   1.180  0.00  0.00    +0.116 C 
ATOM      5  C   UNL     1      -5.262  -3.805  -0.121  0.00  0.00    +0.256 C 
ATOM      6  N   UNL     1      -4.540  -3.514  -1.222  0.00  0.00    -0.263 N 
ATOM      7  H   UNL     1      -4.844  -3.833  -2.086  0.00  0.00    +0.157 HD
ATOM      8  C   UNL     1      -3.413  -2.791  -1.151  0.00  0.00    +0.146 C 
ATOM      9  S   UNL     1      -2.565  -2.466  -2.602  0.00  0.00    -0.018 S 
ATOM     10  O   UNL     1      -6.285  -4.459  -0.199  0.00  0.00    -0.270 OA
ATOM     11  C   UNL     1      -5.466  -3.568   2.352  0.00  0.00    +0.027 C 
ATOM     12  N   UNL     1      -4.782  -3.423   3.432  0.00  0.00    -0.316 N 
ATOM     13  C   UNL     1      -4.934  -3.313   4.787  0.00  0.00    +0.045 A 
ATOM     14  C   UNL     1      -3.788  -2.870   5.470  0.00  0.00    +0.024 A 
ATOM     15  C   UNL     1      -3.774  -2.711   6.834  0.00  0.00    +0.002 A 
ATOM     16  C   UNL     1      -4.914  -2.991   7.567  0.00  0.00    +0.001 A 
ATOM     17  C   UNL     1      -6.045  -3.423   6.916  0.00  0.00    +0.016 A 
ATOM     18  C   UNL     1      -6.076  -3.589   5.524  0.00  0.00    +0.030 A 
ATOM     19  S   UNL     1      -7.587  -4.139   4.840  0.00  0.00    -0.115 S 
ATOM     20  C   UNL     1      -7.782  -3.388   3.231  0.00  0.00    +0.087 C 
ATOM     21  C   UNL     1      -6.889  -3.966   2.176  0.00  0.00    +0.071 C 
ATOM     22  H   UNL     1      -3.838  -3.377   3.210  0.00  0.00    +0.152 HD
ENDROOT
BRANCH  20  23
ATOM     23  C   UNL     1      -9.214  -3.558   2.792  0.00  0.00    -0.030 A 
ATOM     24  C   UNL     1      -9.748  -4.826   2.657  0.00  0.00    +0.008 A 
ATOM     25  C   UNL     1     -11.060  -4.987   2.254  0.00  0.00    +0.049 A 
ATOM     26  C   UNL     1     -11.844  -3.876   1.986  0.00  0.00    +0.158 A 
ATOM     27  C   UNL     1     -11.307  -2.600   2.123  0.00  0.00    +0.162 A 
ATOM     28  C   UNL     1      -9.992  -2.445   2.531  0.00  0.00    +0.054 A 
BRANCH  27  29
ATOM     29  O   UNL     1     -12.072  -1.507   1.861  0.00  0.00    -0.491 OA
ATOM     30  C   UNL     1     -11.454  -0.228   2.023  0.00  0.00    +0.277 C 
ENDBRANCH  27  29
BRANCH  26  31
ATOM     31  O   UNL     1     -13.135  -4.033   1.589  0.00  0.00    -0.503 OA
ATOM     32  H   UNL     1     -13.770  -4.059   2.318  0.00  0.00    +0.292 HD
ENDBRANCH  26  31
ENDBRANCH  20  23
BRANCH   1  33
ATOM     33  C   UNL     1      -1.670  -1.538  -0.031  0.00  0.00    +0.116 C 
BRANCH  33  34
ATOM     34  C   UNL     1      -1.999  -0.055  -0.214  0.00  0.00    +0.019 C 
BRANCH  34  36
ATOM     35  C   UNL     1      -1.030   2.238  -0.426  0.00  0.00    +0.004 C 
ATOM     36  C   UNL     1      -0.702   0.755  -0.243  0.00  0.00    -0.002 C 
ENDBRANCH  34  36
ENDBRANCH  33  34
ENDBRANCH   1  33
TORSDOF 6
