REMARK  Name = ZINC15220391
REMARK  6 active torsions:
REMARK  status: ('A' for Active; 'I' for Inactive)
REMARK    1  A    between atoms: C_1  and  C_2
REMARK    2  A    between atoms: C_13  and  N_14
REMARK    3  A    between atoms: N_14  and  N_15
REMARK    4  A    between atoms: C_16  and  C_17
REMARK    5  A    between atoms: C_18  and  O_30
REMARK    6  A    between atoms: C_23  and  C_29
REMARK                            x       y       z     vdW  Elec       q    Type
REMARK                         _______ _______ _______ _____ _____    ______ ____
ROOT
ATOM      1  N   UNL     1      -0.016   1.296   0.009  0.00  0.00    -0.190 NA
ATOM      2  C   UNL     1       0.002  -0.004   0.002  0.00  0.00    +0.147 C 
ENDROOT
BRANCH   2   3
ATOM      3  C   UNL     1      -1.261  -0.756   0.010  0.00  0.00    +0.101 A 
ATOM      4  C   UNL     1      -1.253  -2.149   0.003  0.00  0.00    +0.140 A 
ATOM      5  C   UNL     1      -2.540  -2.852   0.011  0.00  0.00    +0.041 A 
ATOM      6  C   UNL     1      -2.587  -4.251   0.004  0.00  0.00    +0.013 A 
ATOM      7  C   UNL     1      -3.795  -4.890   0.012  0.00  0.00    +0.001 A 
ATOM      8  C   UNL     1      -4.976  -4.162   0.027  0.00  0.00    +0.005 A 
ATOM      9  C   UNL     1      -4.953  -2.784   0.034  0.00  0.00    -0.026 A 
ATOM     10  C   UNL     1      -3.735  -2.111   0.026  0.00  0.00    +0.056 A 
ATOM     11  N   UNL     1      -3.703  -0.731   0.034  0.00  0.00    -0.321 N 
ATOM     12  H   UNL     1      -4.538  -0.239   0.045  0.00  0.00    +0.169 HD
ATOM     13  C   UNL     1      -2.543  -0.053   0.032  0.00  0.00    +0.261 A 
ATOM     14  O   UNL     1      -2.559   1.166   0.044  0.00  0.00    -0.267 OA
ATOM     15  C   UNL     1      -6.245  -2.008   0.050  0.00  0.00    +0.046 C 
BRANCH   4  16
ATOM     16  O   UNL     1      -0.088  -2.836  -0.013  0.00  0.00    -0.505 OA
ATOM     17  H   UNL     1       0.699  -2.274  -0.018  0.00  0.00    +0.292 HD
ENDBRANCH   4  16
ENDBRANCH   2   3
BRANCH   1  18
ATOM     18  N   UNL     1       1.188   2.013   0.002  0.00  0.00    -0.237 N 
ATOM     19  H   UNL     1       2.035   1.539  -0.009  0.00  0.00    +0.174 HD
BRANCH  18  32
ATOM     20  C   UNL     1       3.470   7.814   0.014  0.00  0.00    +0.046 C 
ATOM     21  C   UNL     1       3.528   6.308   0.004  0.00  0.00    -0.026 A 
ATOM     22  C   UNL     1       4.747   5.665  -0.012  0.00  0.00    +0.005 A 
ATOM     23  C   UNL     1       4.815   4.279  -0.021  0.00  0.00    +0.001 A 
ATOM     24  C   UNL     1       3.663   3.525  -0.015  0.00  0.00    +0.012 A 
ATOM     25  C   UNL     1       2.421   4.162   0.007  0.00  0.00    +0.021 A 
ATOM     26  C   UNL     1       2.352   5.566   0.010  0.00  0.00    +0.054 A 
ATOM     27  N   UNL     1       1.121   6.190   0.026  0.00  0.00    -0.322 N 
ATOM     28  H   UNL     1       1.079   7.159   0.032  0.00  0.00    +0.169 HD
ATOM     29  C   UNL     1      -0.022   5.483   0.032  0.00  0.00    +0.251 A 
ATOM     30  O   UNL     1      -1.087   6.078   0.046  0.00  0.00    -0.268 OA
ATOM     31  C   UNL     1      -0.025   4.082   0.024  0.00  0.00    +0.095 A 
ATOM     32  C   UNL     1       1.169   3.389   0.009  0.00  0.00    +0.062 A 
ENDBRANCH  18  32
ENDBRANCH   1  18
TORSDOF 4
