REMARK  Name = ZINC17014588
REMARK  4 active torsions:
REMARK  status: ('A' for Active; 'I' for Inactive)
REMARK    1  A    between atoms: C_3  and  C_6
REMARK    2  A    between atoms: N_10  and  N_11
REMARK    3  A    between atoms: C_12  and  C_13
REMARK    4  A    between atoms: C_18  and  O_19
REMARK                            x       y       z     vdW  Elec       q    Type
REMARK                         _______ _______ _______ _____ _____    ______ ____
ROOT
ATOM      1  C   UNL     1       3.591   0.609   0.194  0.00  0.00    +0.218 A 
ATOM      2  N   UNL     1       4.375   1.653   0.131  0.00  0.00    -0.148 NA
ATOM      3  N   UNL     1       5.672   1.204  -0.150  0.00  0.00    -0.252 N 
ATOM      4  C   UNL     1       5.625  -0.140  -0.250  0.00  0.00    +0.197 A 
ATOM      5  N   UNL     1       4.351  -0.523  -0.035  0.00  0.00    -0.185 N 
ATOM      6  S   UNL     1       6.948  -1.175  -0.583  0.00  0.00    -0.010 S 
ATOM      7  H   UNL     1       6.461   1.759  -0.254  0.00  0.00    +0.191 HD
ENDROOT
BRANCH   1  10
ATOM      8  C   UNL     1       0.072   1.308   0.910  0.00  0.00    +0.042 A 
ATOM      9  C   UNL     1       1.392   1.747   0.695  0.00  0.00    +0.053 A 
ATOM     10  C   UNL     1       2.144   0.634   0.469  0.00  0.00    +0.173 A 
ATOM     11  O   UNL     1       1.334  -0.440   0.540  0.00  0.00    -0.460 OA
ATOM     12  C   UNL     1       0.081  -0.036   0.806  0.00  0.00    +0.196 A 
ENDBRANCH   1  10
BRANCH   5  13
ATOM     13  N   UNL     1       3.877  -1.842  -0.045  0.00  0.00    -0.170 NA
ATOM     14  C   UNL     1       4.712  -2.830  -0.157  0.00  0.00    +0.145 C 
BRANCH  14  15
ATOM     15  C   UNL     1       4.208  -4.210  -0.270  0.00  0.00    +0.038 A 
ATOM     16  C   UNL     1       5.102  -5.278  -0.384  0.00  0.00    +0.028 A 
ATOM     17  C   UNL     1       4.624  -6.567  -0.490  0.00  0.00    +0.020 A 
ATOM     18  C   UNL     1       3.260  -6.809  -0.484  0.00  0.00    +0.034 A 
ATOM     19  C   UNL     1       2.365  -5.761  -0.371  0.00  0.00    +0.061 A 
ATOM     20  C   UNL     1       2.829  -4.460  -0.258  0.00  0.00    +0.139 A 
ATOM     21 BR   UNL     1       0.505  -6.105  -0.365  0.00  0.00    -0.046 Br
ATOM     22 BR   UNL     1       5.836  -8.011  -0.644  0.00  0.00    -0.050 Br
BRANCH  20  23
ATOM     23  O   UNL     1       1.950  -3.431  -0.142  0.00  0.00    -0.505 OA
ATOM     24  H   UNL     1       1.674  -3.052  -0.988  0.00  0.00    +0.292 HD
ENDBRANCH  20  23
ENDBRANCH  14  15
ENDBRANCH   5  13
TORSDOF 4
