REMARK  Name = ZINC02229585
REMARK  9 active torsions:
REMARK  status: ('A' for Active; 'I' for Inactive)
REMARK    1  A    between atoms: C_1  and  C_2
REMARK    2  A    between atoms: C_6  and  N_8
REMARK    3  A    between atoms: C_23  and  C_25
REMARK    4  A    between atoms: C_27  and  O_35
REMARK    5  A    between atoms: C_28  and  O_33
REMARK    6  A    between atoms: C_29  and  O_31
REMARK    7  A    between atoms: O_31  and  C_32
REMARK    8  A    between atoms: O_33  and  C_34
REMARK    9  A    between atoms: O_35  and  C_36
REMARK                            x       y       z     vdW  Elec       q    Type
REMARK                         _______ _______ _______ _____ _____    ______ ____
ROOT
ATOM      1  N   UNL     1       3.304  -0.152  -1.761  0.00  0.00    -0.202 N 
ATOM      2  C   UNL     1       2.122  -0.780  -1.823  0.00  0.00    +0.257 C 
ATOM      3  O   UNL     1       1.863  -1.709  -2.565  0.00  0.00    -0.269 OA
ATOM      4  C   UNL     1       1.213  -0.198  -0.889  0.00  0.00    +0.058 C 
ATOM      5  C   UNL     1       1.892   0.728  -0.187  0.00  0.00    +0.086 C 
ATOM      6  C   UNL     1       3.255   0.795  -0.809  0.00  0.00    +0.265 C 
ATOM      7  O   UNL     1       4.146   1.562  -0.510  0.00  0.00    -0.269 OA
ATOM      8  S   UNL     1       1.415   1.704   1.194  0.00  0.00    -0.082 S 
ATOM      9  C   UNL     1      -0.193   2.255   0.725  0.00  0.00    +0.034 A 
ATOM     10  C   UNL     1      -0.481   3.608   0.670  0.00  0.00    +0.017 A 
ATOM     11  C   UNL     1      -1.777   4.024   0.428  0.00  0.00    +0.001 A 
ATOM     12  C   UNL     1      -2.775   3.084   0.239  0.00  0.00    +0.002 A 
ATOM     13  C   UNL     1      -2.480   1.737   0.247  0.00  0.00    +0.024 A 
ATOM     14  C   UNL     1      -1.170   1.300   0.453  0.00  0.00    +0.042 A 
ATOM     15  N   UNL     1      -0.900  -0.048   0.358  0.00  0.00    -0.332 N 
ATOM     16  C   UNL     1      -0.230  -0.607  -0.793  0.00  0.00    +0.138 C 
ATOM     17  H   UNL     1      -1.207  -0.703   1.187  0.00  0.00    +0.147 HD
ENDROOT
BRANCH   1  23
ATOM     18  C   UNL     1       7.963   0.784  -3.026  0.00  0.00    +0.044 C 
ATOM     19  C   UNL     1       6.687   0.000  -3.196  0.00  0.00    -0.049 A 
ATOM     20  C   UNL     1       6.615  -1.003  -4.145  0.00  0.00    +0.003 A 
ATOM     21  C   UNL     1       5.446  -1.725  -4.304  0.00  0.00    +0.002 A 
ATOM     22  C   UNL     1       4.347  -1.445  -3.516  0.00  0.00    +0.024 A 
ATOM     23  C   UNL     1       4.417  -0.438  -2.562  0.00  0.00    +0.045 A 
ATOM     24  C   UNL     1       5.590   0.288  -2.409  0.00  0.00    +0.027 A 
ENDBRANCH   1  23
BRANCH  16  25
ATOM     25  C   UNL     1      -0.946  -0.152  -2.038  0.00  0.00    -0.016 A 
ATOM     26  C   UNL     1      -1.579  -1.079  -2.846  0.00  0.00    +0.055 A 
ATOM     27  C   UNL     1      -2.244  -0.664  -3.990  0.00  0.00    +0.165 A 
ATOM     28  C   UNL     1      -2.264   0.683  -4.330  0.00  0.00    +0.204 A 
ATOM     29  C   UNL     1      -1.622   1.610  -3.519  0.00  0.00    +0.165 A 
ATOM     30  C   UNL     1      -0.964   1.188  -2.373  0.00  0.00    +0.055 A 
BRANCH  29  31
ATOM     31  O   UNL     1      -1.639   2.930  -3.848  0.00  0.00    -0.491 OA
ATOM     32  C   UNL     1      -0.958   3.826  -2.967  0.00  0.00    +0.277 C 
ENDBRANCH  29  31
BRANCH  28  33
ATOM     33  O   UNL     1      -2.910   1.093  -5.456  0.00  0.00    -0.488 OA
ATOM     34  C   UNL     1      -2.148   1.134  -6.664  0.00  0.00    +0.277 C 
ENDBRANCH  28  33
BRANCH  27  35
ATOM     35  O   UNL     1      -2.871  -1.576  -4.781  0.00  0.00    -0.491 OA
ATOM     36  C   UNL     1      -2.894  -2.928  -4.319  0.00  0.00    +0.277 C 
ENDBRANCH  27  35
ENDBRANCH  16  25
TORSDOF 5
