REMARK  Name = ZINC06320953
REMARK  13 active torsions:
REMARK  status: ('A' for Active; 'I' for Inactive)
REMARK    1  A    between atoms: C_1  and  C_2
REMARK    2  A    between atoms: C_6  and  C_15
REMARK    3  A    between atoms: C_13  and  C_14
REMARK    4  A    between atoms: C_15  and  C_17
REMARK    5  A    between atoms: C_15  and  N_69
REMARK    6  A    between atoms: N_21  and  C_22
REMARK    7  A    between atoms: C_22  and  C_23
REMARK    8  A    between atoms: C_22  and  C_24
REMARK    9  A    between atoms: C_22  and  C_25
REMARK   10  A    between atoms: C_26  and  C_27
REMARK   11  A    between atoms: C_26  and  N_69
REMARK   12  A    between atoms: C_33  and  C_34
REMARK   13  A    between atoms: C_33  and  N_69
REMARK                            x       y       z     vdW  Elec       q    Type
REMARK                         _______ _______ _______ _____ _____    ______ ____
ROOT
ATOM      1  C   UNL     1       5.242  -1.787  -2.126  0.00  0.00    +0.040 C 
ENDROOT
BRANCH   1   7
ATOM      2  C   UNL     1       6.009  -5.693  -8.433  0.00  0.00    +0.044 C 
ATOM      3  C   UNL     1       6.205  -4.427  -7.639  0.00  0.00    -0.047 A 
ATOM      4  C   UNL     1       5.769  -4.365  -6.346  0.00  0.00    +0.013 A 
ATOM      5  C   UNL     1       5.951  -3.190  -5.609  0.00  0.00    -0.001 A 
ATOM      6  C   UNL     1       5.500  -3.090  -4.219  0.00  0.00    +0.017 A 
ATOM      7  C   UNL     1       5.699  -1.924  -3.556  0.00  0.00    +0.011 A 
ATOM      8  C   UNL     1       6.337  -0.841  -4.198  0.00  0.00    +0.251 A 
ATOM      9  O   UNL     1       6.510   0.196  -3.582  0.00  0.00    -0.268 OA
ATOM     10  N   UNL     1       6.759  -0.925  -5.471  0.00  0.00    -0.322 N 
ATOM     11  H   UNL     1       7.194  -0.162  -5.882  0.00  0.00    +0.169 HD
ATOM     12  C   UNL     1       6.582  -2.081  -6.202  0.00  0.00    +0.049 A 
ATOM     13  C   UNL     1       7.018  -2.168  -7.520  0.00  0.00    +0.030 A 
ATOM     14  C   UNL     1       6.828  -3.335  -8.228  0.00  0.00    -0.046 A 
ATOM     15  C   UNL     1       7.301  -3.427  -9.656  0.00  0.00    +0.044 C 
ENDBRANCH   1   7
BRANCH   1  16
ATOM     16  C   UNL     1       6.438  -1.562  -1.237  0.00  0.00    +0.143 A 
ATOM     17  N   UNL     1       7.146  -0.464  -1.140  0.00  0.00    -0.115 NA
ATOM     18  N   UNL     1       8.079  -0.667  -0.274  0.00  0.00    -0.023 NA
ATOM     19  N   UNL     1       7.989  -1.869   0.177  0.00  0.00    -0.043 NA
ATOM     20  N   UNL     1       6.989  -2.453  -0.392  0.00  0.00    -0.225 N 
BRANCH  20  21
ATOM     21  C   UNL     1       6.539  -3.828  -0.162  0.00  0.00    +0.059 C 
ATOM     22  C   UNL     1       6.521  -4.588  -1.490  0.00  0.00    +0.036 C 
ATOM     23  C   UNL     1       7.496  -4.522   0.810  0.00  0.00    +0.036 C 
ATOM     24  C   UNL     1       5.130  -3.810   0.435  0.00  0.00    +0.036 C 
ENDBRANCH  20  21
ENDBRANCH   1  16
BRANCH   1  25
ATOM     25  N   UNL     1       4.341  -0.620  -2.018  0.00  0.00    +0.397 N 
ATOM     26  H   UNL     1       4.879   0.235  -2.202  0.00  0.00    -0.079 HD
BRANCH  25  27
ATOM     27  C   UNL     1       3.254  -0.727  -3.014  0.00  0.00    -0.041 C 
BRANCH  27  28
ATOM     28  C   UNL     1       2.484   0.568  -3.034  0.00  0.00    -0.064 A 
ATOM     29  C   UNL     1       2.875   1.592  -3.875  0.00  0.00    +0.002 A 
ATOM     30  C   UNL     1       2.168   2.780  -3.893  0.00  0.00    +0.000 A 
ATOM     31  C   UNL     1       1.070   2.944  -3.070  0.00  0.00    +0.000 A 
ATOM     32  C   UNL     1       0.679   1.919  -2.228  0.00  0.00    +0.000 A 
ATOM     33  C   UNL     1       1.386   0.731  -2.210  0.00  0.00    +0.002 A 
ENDBRANCH  27  28
ENDBRANCH  25  27
BRANCH  25  34
ATOM     34  C   UNL     1       3.772  -0.546  -0.656  0.00  0.00    -0.001 C 
BRANCH  34  35
ATOM     35  C   UNL     1       4.827  -0.014   0.280  0.00  0.00    +0.089 A 
ATOM     36  C   UNL     1       5.126   1.284   0.472  0.00  0.00    +0.042 A 
ATOM     37  C   UNL     1       6.167   1.327   1.427  0.00  0.00    +0.041 A 
ATOM     38  C   UNL     1       6.443   0.054   1.761  0.00  0.00    +0.195 A 
ATOM     39  O   UNL     1       5.624  -0.754   1.068  0.00  0.00    -0.470 OA
ENDBRANCH  34  35
ENDBRANCH  25  34
ENDBRANCH   1  25
TORSDOF 8
