REMARK  Name = ZINC64066689
REMARK  9 active torsions:
REMARK  status: ('A' for Active; 'I' for Inactive)
REMARK    1  A    between atoms: C_1  and  C_2
REMARK    2  A    between atoms: C_7  and  C_8
REMARK    3  A    between atoms: C_10  and  C_23
REMARK    4  A    between atoms: N_13  and  C_15
REMARK    5  A    between atoms: C_23  and  N_24
REMARK    6  A    between atoms: N_24  and  C_25
REMARK    7  A    between atoms: N_24  and  C_26
REMARK    8  A    between atoms: C_26  and  C_27
REMARK    9  A    between atoms: C_31  and  C_33
REMARK                            x       y       z     vdW  Elec       q    Type
REMARK                         _______ _______ _______ _____ _____    ______ ____
ROOT
ATOM      1  C   UNL     1       0.025   0.045   2.504  0.00  0.00    +0.109 C 
ATOM      2  C   UNL     1      -1.416   0.453   2.914  0.00  0.00    +0.045 C 
ATOM      3  C   UNL     1      -1.287   0.499   4.456  0.00  0.00    +0.131 C 
ATOM      4  N   UNL     1      -0.095  -0.303   4.773  0.00  0.00    -0.263 N 
ATOM      5  N   UNL     1       0.419  -0.848   3.624  0.00  0.00    -0.232 NA
ATOM      6  H   UNL     1       0.071  -1.784   3.481  0.00  0.00    +0.145 HD
ENDROOT
BRANCH   4   7
ATOM      7  C   UNL     1       0.436  -0.483   6.056  0.00  0.00    +0.080 A 
ATOM      8  C   UNL     1      -0.365  -0.975   7.077  0.00  0.00    +0.030 A 
ATOM      9  C   UNL     1       0.160  -1.151   8.343  0.00  0.00    +0.040 A 
ATOM     10  C   UNL     1       1.485  -0.838   8.594  0.00  0.00    +0.126 A 
ATOM     11  C   UNL     1       2.287  -0.346   7.578  0.00  0.00    +0.078 A 
ATOM     12  C   UNL     1       1.768  -0.174   6.308  0.00  0.00    +0.148 A 
ATOM     13  F   UNL     1       2.552   0.299   5.315  0.00  0.00    -0.203 F 
ATOM     14  F   UNL     1       1.996  -1.011   9.833  0.00  0.00    -0.205 F 
ENDBRANCH   4   7
BRANCH   1  21
ATOM     15  C   UNL     1       0.413   1.476   0.025  0.00  0.00    +0.044 C 
ATOM     16  C   UNL     1       0.208  -0.017   0.009  0.00  0.00    -0.046 A 
ATOM     17  C   UNL     1       0.212  -0.702  -1.192  0.00  0.00    +0.003 A 
ATOM     18  C   UNL     1       0.024  -2.072  -1.206  0.00  0.00    +0.000 A 
ATOM     19  C   UNL     1      -0.166  -2.756  -0.020  0.00  0.00    +0.000 A 
ATOM     20  C   UNL     1      -0.169  -2.071   1.180  0.00  0.00    +0.005 A 
ATOM     21  C   UNL     1       0.023  -0.702   1.195  0.00  0.00    -0.026 A 
ENDBRANCH   1  21
BRANCH   2  22
ATOM     22  C   UNL     1      -2.432  -0.605   2.478  0.00  0.00    +0.091 C 
BRANCH  22  23
ATOM     23  N   UNL     1      -3.791  -0.131   2.775  0.00  0.00    -0.298 NA
ATOM     24  C   UNL     1      -4.130   1.040   1.954  0.00  0.00    +0.105 C 
BRANCH  23  25
ATOM     25  C   UNL     1      -4.775  -1.205   2.591  0.00  0.00    +0.156 C 
BRANCH  25  26
ATOM     26  C   UNL     1      -6.109  -0.762   3.135  0.00  0.00    +0.099 A 
ATOM     27  H   UNL     1      -7.463  -2.032   2.199  0.00  0.00    +0.167 HD
ATOM     28  N   UNL     1      -6.299   0.206   3.988  0.00  0.00    -0.349 N 
ATOM     29  C   UNL     1      -7.611   0.319   4.244  0.00  0.00    +0.105 A 
ATOM     30  C   UNL     1      -8.258  -0.615   3.522  0.00  0.00    +0.030 A 
ATOM     31  N   UNL     1      -7.307  -1.298   2.814  0.00  0.00    -0.346 N 
ATOM     32  C   UNL     1      -9.745  -0.859   3.495  0.00  0.00    +0.065 C 
ATOM     33  H   UNL     1      -5.602   0.758   4.376  0.00  0.00    +0.166 HD
ENDBRANCH  25  26
ENDBRANCH  23  25
ENDBRANCH  22  23
ENDBRANCH   2  22
TORSDOF 6
