REMARK  Name = ZINC63384323
REMARK  8 active torsions:
REMARK  status: ('A' for Active; 'I' for Inactive)
REMARK    1  A    between atoms: C_1  and  C_2
REMARK    2  A    between atoms: C_2  and  C_3
REMARK    3  A    between atoms: C_2  and  C_4
REMARK    4  A    between atoms: C_4  and  C_6
REMARK    5  A    between atoms: C_4  and  N_16
REMARK    6  A    between atoms: N_8  and  C_9
REMARK    7  A    between atoms: C_9  and  C_10
REMARK    8  A    between atoms: C_17  and  C_19
REMARK                            x       y       z     vdW  Elec       q    Type
REMARK                         _______ _______ _______ _____ _____    ______ ____
ROOT
ATOM      1  C   UNL     1      -0.370  -3.856   1.685  0.00  0.00    +0.167 C 
ATOM      2  C   UNL     1      -1.438  -4.843   1.173  0.00  0.00    +0.065 C 
ATOM      3  C   UNL     1      -1.133  -6.185   1.790  0.00  0.00    -0.034 C 
ATOM      4  C   UNL     1      -0.964  -7.379   1.230  0.00  0.00    -0.001 A 
ATOM      5  C   UNL     1      -1.110  -7.835  -0.161  0.00  0.00    +0.010 A 
ATOM      6  C   UNL     1      -0.836  -9.146  -0.393  0.00  0.00    +0.001 A 
ATOM      7  C   UNL     1      -0.437 -10.037   0.608  0.00  0.00    +0.002 A 
ATOM      8  C   UNL     1      -0.286  -9.706   1.915  0.00  0.00    +0.026 A 
ATOM      9  C   UNL     1      -0.554  -8.355   2.284  0.00  0.00    +0.043 A 
ATOM     10  N   UNL     1      -0.512  -7.777   3.447  0.00  0.00    -0.375 N 
ATOM     11  C   UNL     1      -0.939  -6.385   3.289  0.00  0.00    +0.131 C 
ATOM     12  C   UNL     1       0.158  -5.406   3.720  0.00  0.00    +0.134 C 
ATOM     13  N   UNL     1      -0.169  -4.093   3.120  0.00  0.00    -0.276 N 
ATOM     14  C   UNL     1      -0.256  -3.179   4.104  0.00  0.00    +0.248 C 
ATOM     15  O   UNL     1      -0.429  -1.988   3.933  0.00  0.00    -0.270 OA
ATOM     16  C   UNL     1      -0.113  -3.828   5.409  0.00  0.00    +0.042 A 
ATOM     17  C   UNL     1       0.152  -5.218   5.203  0.00  0.00    -0.013 A 
ATOM     18  C   UNL     1       0.342  -6.103   6.241  0.00  0.00    +0.006 A 
ATOM     19  C   UNL     1       0.275  -5.586   7.532  0.00  0.00    +0.000 A 
ATOM     20  C   UNL     1       0.032  -4.248   7.768  0.00  0.00    +0.001 A 
ATOM     21  C   UNL     1      -0.185  -3.302   6.701  0.00  0.00    +0.013 A 
ATOM     22  H   UNL     1      -0.245  -8.197   4.280  0.00  0.00    +0.160 HD
ENDROOT
BRANCH   1  24
ATOM     23  N   UNL     1      -1.904  -1.971   2.145  0.00  0.00    -0.302 N 
ATOM     24  C   UNL     1      -0.840  -2.441   1.465  0.00  0.00    +0.235 C 
ATOM     25  O   UNL     1      -0.259  -1.725   0.677  0.00  0.00    -0.274 OA
ATOM     26  H   UNL     1      -2.368  -2.544   2.776  0.00  0.00    +0.150 HD
BRANCH  23  27
ATOM     27  C   UNL     1      -2.361  -0.596   1.931  0.00  0.00    +0.161 C 
BRANCH  27  28
ATOM     28  C   UNL     1      -3.096  -0.115   3.156  0.00  0.00    +0.234 C 
ATOM     29  O   UNL     1      -3.516  -0.915   3.964  0.00  0.00    -0.274 OA
ATOM     30  N   UNL     1      -3.288   1.205   3.352  0.00  0.00    -0.310 N 
ATOM     31  H   UNL     1      -2.893   1.848   2.743  0.00  0.00    +0.149 HD
BRANCH  30  32
ATOM     32  C   UNL     1      -4.094   1.668   4.484  0.00  0.00    +0.139 C 
BRANCH  32  33
ATOM     33  C   UNL     1      -4.152   3.174   4.477  0.00  0.00    -0.030 A 
ATOM     34  C   UNL     1      -3.193   3.906   5.151  0.00  0.00    +0.005 A 
ATOM     35  C   UNL     1      -3.247   5.287   5.144  0.00  0.00    +0.000 A 
ATOM     36  C   UNL     1      -4.260   5.936   4.463  0.00  0.00    +0.000 A 
ATOM     37  C   UNL     1      -5.218   5.204   3.788  0.00  0.00    +0.000 A 
ATOM     38  C   UNL     1      -5.162   3.823   3.791  0.00  0.00    +0.005 A 
ENDBRANCH  32  33
ENDBRANCH  30  32
ENDBRANCH  27  28
BRANCH  27  40
ATOM     39  C   UNL     1      -2.522  -0.936  -0.538  0.00  0.00    +0.009 C 
ATOM     40  C   UNL     1      -3.297  -0.551   0.723  0.00  0.00    +0.012 C 
ATOM     41  C   UNL     1      -4.450  -1.535   0.934  0.00  0.00    +0.009 C 
ENDBRANCH  27  40
ENDBRANCH  23  27
ENDBRANCH   1  24
TORSDOF 6
