REMARK  Name = ZINC13482360
REMARK  7 active torsions:
REMARK  status: ('A' for Active; 'I' for Inactive)
REMARK    1  A    between atoms: C_1  and  C_2
REMARK    2  A    between atoms: C_7  and  C_17
REMARK    3  A    between atoms: C_21  and  O_23
REMARK    4  A    between atoms: O_23  and  C_24
REMARK    5  A    between atoms: C_27  and  C_29
REMARK    6  A    between atoms: C_29  and  O_31
REMARK    7  A    between atoms: O_31  and  C_32
REMARK                            x       y       z     vdW  Elec       q    Type
REMARK                         _______ _______ _______ _____ _____    ______ ____
ROOT
ATOM      1  C   UNL     1      -0.132   3.606   1.437  0.00  0.00    +0.009 C 
ATOM      2  C   UNL     1       0.620   3.170   0.178  0.00  0.00    +0.013 C 
ATOM      3  C   UNL     1       1.919   3.965   0.054  0.00  0.00    +0.055 C 
ATOM      4  C   UNL     1       2.797   3.722   1.271  0.00  0.00    +0.017 C 
ATOM      5  C   UNL     1       2.783   2.531   1.891  0.00  0.00    +0.037 C 
ATOM      6  C   UNL     1       3.627   2.142   3.082  0.00  0.00    +0.136 C 
ATOM      7  N   UNL     1       4.309   3.248   3.719  0.00  0.00    -0.331 N 
ATOM      8  C   UNL     1       5.293   3.971   3.046  0.00  0.00    +0.049 A 
ATOM      9  C   UNL     1       6.614   3.959   3.464  0.00  0.00    +0.025 A 
ATOM     10  C   UNL     1       7.563   4.657   2.739  0.00  0.00    +0.002 A 
ATOM     11  C   UNL     1       7.200   5.359   1.603  0.00  0.00    +0.002 A 
ATOM     12  C   UNL     1       5.878   5.386   1.192  0.00  0.00    +0.025 A 
ATOM     13  C   UNL     1       4.925   4.706   1.929  0.00  0.00    +0.052 A 
ATOM     14  N   UNL     1       3.568   4.779   1.634  0.00  0.00    -0.316 N 
ATOM     15  C   UNL     1       1.925   1.501   1.438  0.00  0.00    +0.177 C 
ATOM     16  O   UNL     1       1.947   0.428   2.008  0.00  0.00    -0.291 OA
ATOM     17  C   UNL     1       0.990   1.686   0.281  0.00  0.00    +0.171 C 
ATOM     18  H   UNL     1       4.079   3.490   4.629  0.00  0.00    +0.147 HD
ATOM     19  H   UNL     1       3.141   5.649   1.691  0.00  0.00    +0.152 HD
ENDROOT
BRANCH   6  20
ATOM     20  C   UNL     1       4.658   1.140   2.630  0.00  0.00    -0.019 A 
ATOM     21  C   UNL     1       5.618   1.506   1.704  0.00  0.00    +0.006 A 
ATOM     22  C   UNL     1       6.569   0.592   1.292  0.00  0.00    +0.004 A 
ATOM     23  C   UNL     1       6.555  -0.695   1.795  0.00  0.00    +0.045 A 
ATOM     24  C   UNL     1       5.590  -1.067   2.719  0.00  0.00    +0.120 A 
ATOM     25  C   UNL     1       4.640  -0.145   3.136  0.00  0.00    +0.051 A 
BRANCH  24  26
ATOM     26  O   UNL     1       5.574  -2.332   3.215  0.00  0.00    -0.495 OA
ATOM     27  C   UNL     1       6.582  -3.227   2.741  0.00  0.00    +0.277 C 
ENDBRANCH  24  26
ENDBRANCH   6  20
BRANCH  17  28
ATOM     28  C   UNL     1      -0.257   0.868   0.502  0.00  0.00    +0.318 C 
ATOM     29  O   UNL     1      -1.334   1.412   0.559  0.00  0.00    -0.250 OA
BRANCH  28  30
ATOM     30  O   UNL     1      -0.171  -0.465   0.630  0.00  0.00    -0.467 OA
ATOM     31  C   UNL     1      -1.412  -1.189   0.841  0.00  0.00    +0.280 C 
ENDBRANCH  28  30
ENDBRANCH  17  28
TORSDOF 4
