REMARK  Name = ZINC08788791
REMARK  5 active torsions:
REMARK  status: ('A' for Active; 'I' for Inactive)
REMARK    1  A    between atoms: C_1  and  C_2
REMARK    2  A    between atoms: N_24  and  C_27
REMARK    3  A    between atoms: C_30  and  O_33
REMARK    4  A    between atoms: O_33  and  C_34
REMARK    5  A    between atoms: C_34  and  C_36
REMARK                            x       y       z     vdW  Elec       q    Type
REMARK                         _______ _______ _______ _____ _____    ______ ____
ROOT
ATOM      1  C   UNL     1      -2.683  -2.298   3.098  0.00  0.00    +0.044 C 
ATOM      2  C   UNL     1      -2.703  -0.843   2.705  0.00  0.00    -0.049 A 
ATOM      3  C   UNL     1      -1.561  -0.244   2.204  0.00  0.00    +0.008 A 
ATOM      4  C   UNL     1      -1.581   1.085   1.845  0.00  0.00    -0.026 A 
ATOM      5  C   UNL     1      -2.742   1.840   1.979  0.00  0.00    +0.054 A 
ATOM      6  C   UNL     1      -3.889   1.229   2.484  0.00  0.00    +0.063 A 
ATOM      7  C   UNL     1      -3.863  -0.104   2.843  0.00  0.00    +0.025 A 
ATOM      8 CL   UNL     1      -5.352   2.146   2.662  0.00  0.00    -0.082 Cl
ATOM      9  N   UNL     1      -2.518   3.151   1.553  0.00  0.00    -0.285 N 
ATOM     10  C   UNL     1      -1.254   3.338   1.129  0.00  0.00    +0.212 C 
ATOM     11  O   UNL     1      -0.778   4.370   0.705  0.00  0.00    -0.277 OA
ATOM     12  C   UNL     1      -0.546   2.020   1.283  0.00  0.00    +0.053 C 
ATOM     13  C   UNL     1      -0.009   1.511  -0.060  0.00  0.00    +0.089 C 
ATOM     14  C   UNL     1       1.498   1.889  -0.051  0.00  0.00    +0.074 C 
ATOM     15  C   UNL     1       1.728   2.599   1.296  0.00  0.00    -0.054 C 
ATOM     16  C   UNL     1       1.036   0.786   2.633  0.00  0.00    -0.076 C 
ATOM     17  C   UNL     1       2.562   0.884   2.838  0.00  0.00    -0.020 C 
ATOM     18  C   UNL     1       3.013   2.057   1.946  0.00  0.00    -0.016 C 
ATOM     19  C   UNL     1       2.193   0.546  -0.037  0.00  0.00    +0.228 C 
ATOM     20  O   UNL     1       3.394   0.379  -0.021  0.00  0.00    -0.275 OA
ATOM     21  N   UNL     1       1.277  -0.429  -0.047  0.00  0.00    -0.210 N 
ATOM     22  C   UNL     1       0.010  -0.001  -0.062  0.00  0.00    +0.229 C 
ATOM     23  O   UNL     1      -0.971  -0.713  -0.074  0.00  0.00    -0.275 OA
ATOM     24  H   UNL     1      -3.194   3.846   1.562  0.00  0.00    +0.155 HD
ATOM     25  N   UNL     1       0.648   2.119   2.128  0.00  0.00    +0.395 N 
ATOM     26  H   UNL     1       0.477   2.760   2.912  0.00  0.00    -0.079 HD
ENDROOT
BRANCH  21  27
ATOM     27  C   UNL     1       1.618  -1.790  -0.041  0.00  0.00    +0.044 A 
ATOM     28  C   UNL     1       1.322  -2.575   1.066  0.00  0.00    +0.027 A 
ATOM     29  C   UNL     1       1.652  -3.916   1.069  0.00  0.00    +0.048 A 
ATOM     30  C   UNL     1       2.290  -4.476  -0.029  0.00  0.00    +0.132 A 
ATOM     31  C   UNL     1       2.591  -3.691  -1.132  0.00  0.00    +0.048 A 
ATOM     32  C   UNL     1       2.256  -2.351  -1.139  0.00  0.00    +0.027 A 
BRANCH  30  33
ATOM     33  O   UNL     1       2.621  -5.795  -0.022  0.00  0.00    -0.426 OA
BRANCH  33  34
ATOM     34  C   UNL     1       3.913  -6.098   0.180  0.00  0.00    +0.309 C 
ATOM     35  O   UNL     1       4.705  -5.224   0.444  0.00  0.00    -0.251 OA
ATOM     36  C   UNL     1       4.376  -7.528   0.077  0.00  0.00    +0.136 C 
ENDBRANCH  33  34
ENDBRANCH  30  33
ENDBRANCH  21  27
TORSDOF 3
