REMARK  Name = ZINC14251732
REMARK  11 active torsions:
REMARK  status: ('A' for Active; 'I' for Inactive)
REMARK    1  A    between atoms: C_1  and  N_2
REMARK    2  A    between atoms: C_3  and  C_21
REMARK    3  A    between atoms: C_6  and  S_7
REMARK    4  A    between atoms: S_7  and  C_8
REMARK    5  A    between atoms: C_8  and  C_9
REMARK    6  A    between atoms: C_9  and  C_11
REMARK    7  A    between atoms: C_9  and  O_20
REMARK    8  A    between atoms: C_11  and  O_12
REMARK    9  A    between atoms: O_12  and  C_13
REMARK   10  A    between atoms: C_24  and  O_27
REMARK   11  A    between atoms: O_27  and  C_28
REMARK                            x       y       z     vdW  Elec       q    Type
REMARK                         _______ _______ _______ _____ _____    ______ ____
ROOT
ATOM      1  C   UNL     1      -2.472  -0.441  -0.400  0.00  0.00    +0.153 C 
ATOM      2  N   UNL     1      -1.079  -0.836  -0.179  0.00  0.00    -0.305 N 
ATOM      3  C   UNL     1       0.031  -0.023  -0.213  0.00  0.00    +0.165 A 
ATOM      4  N   UNL     1       1.071  -0.781   0.045  0.00  0.00    -0.128 NA
ATOM      5  N   UNL     1       0.694  -1.996   0.230  0.00  0.00    -0.122 NA
ATOM      6  C   UNL     1      -0.610  -2.088   0.102  0.00  0.00    +0.192 A 
ENDROOT
BRANCH   3   7
ATOM      7  C   UNL     1       0.048   1.430  -0.482  0.00  0.00    +0.019 A 
ATOM      8  C   UNL     1       1.138   2.204  -0.080  0.00  0.00    +0.015 A 
ATOM      9  C   UNL     1       1.153   3.558  -0.339  0.00  0.00    +0.046 A 
ATOM     10  C   UNL     1       0.080   4.154  -0.988  0.00  0.00    +0.120 A 
ATOM     11  C   UNL     1      -1.009   3.389  -1.385  0.00  0.00    +0.046 A 
ATOM     12  C   UNL     1      -1.029   2.034  -1.135  0.00  0.00    +0.015 A 
BRANCH  10  13
ATOM     13  O   UNL     1       0.095   5.490  -1.236  0.00  0.00    -0.495 OA
ATOM     14  C   UNL     1       1.246   6.217  -0.801  0.00  0.00    +0.277 C 
ENDBRANCH  10  13
ENDBRANCH   3   7
BRANCH   6  15
ATOM     15  S   UNL     1      -1.576  -3.552   0.268  0.00  0.00    -0.083 S 
BRANCH  15  16
ATOM     16  C   UNL     1      -0.270  -4.750   0.637  0.00  0.00    +0.112 C 
BRANCH  16  17
ATOM     17  C   UNL     1      -0.888  -6.136   0.828  0.00  0.00    +0.162 C 
BRANCH  17  18
ATOM     18  O   UNL     1      -1.819  -6.098   1.911  0.00  0.00    -0.388 OA
ATOM     19  H   UNL     1      -1.428  -5.841   2.757  0.00  0.00    +0.210 HD
ENDBRANCH  17  18
BRANCH  17  20
ATOM     20  C   UNL     1       0.216  -7.149   1.140  0.00  0.00    +0.261 C 
BRANCH  20  21
ATOM     21  O   UNL     1      -0.345  -8.461   1.203  0.00  0.00    -0.489 OA
BRANCH  21  22
ATOM     22  C   UNL     1       0.507  -9.484   1.474  0.00  0.00    +0.121 A 
ATOM     23  C   UNL     1       1.857  -9.231   1.669  0.00  0.00    +0.047 A 
ATOM     24  C   UNL     1       2.721 -10.271   1.950  0.00  0.00    +0.019 A 
ATOM     25  C   UNL     1       2.243 -11.567   2.025  0.00  0.00    +0.018 A 
ATOM     26  C   UNL     1       0.898 -11.823   1.824  0.00  0.00    +0.019 A 
ATOM     27  C   UNL     1       0.030 -10.785   1.549  0.00  0.00    +0.047 A 
ATOM     28 BR   UNL     1       3.429 -12.991   2.402  0.00  0.00    -0.050 Br
ENDBRANCH  21  22
ENDBRANCH  20  21
ENDBRANCH  17  20
ENDBRANCH  16  17
ENDBRANCH  15  16
ENDBRANCH   6  15
TORSDOF 9
