REMARK  Name = ZINC67307442
REMARK  8 active torsions:
REMARK  status: ('A' for Active; 'I' for Inactive)
REMARK    1  A    between atoms: C_1  and  C_2
REMARK    2  A    between atoms: C_7  and  C_11
REMARK    3  A    between atoms: C_11  and  N_12
REMARK    4  A    between atoms: N_15  and  C_16
REMARK    5  A    between atoms: C_21  and  O_22
REMARK    6  A    between atoms: O_22  and  C_23
REMARK    7  A    between atoms: C_23  and  C_24
REMARK    8  A    between atoms: C_23  and  C_25
REMARK                            x       y       z     vdW  Elec       q    Type
REMARK                         _______ _______ _______ _____ _____    ______ ____
ROOT
ATOM      1  N   UNL     1       1.603  -5.984   2.391  0.00  0.00    -0.294 N 
ATOM      2  C   UNL     1       1.756  -7.018   3.241  0.00  0.00    +0.304 C 
ATOM      3  O   UNL     1       0.783  -7.642   3.621  0.00  0.00    -0.252 OA
ATOM      4  N   UNL     1       2.986  -7.361   3.672  0.00  0.00    -0.266 N 
ATOM      5  H   UNL     1       2.378  -5.486   2.088  0.00  0.00    +0.151 HD
ATOM      6  H   UNL     1       3.767  -6.905   3.320  0.00  0.00    +0.156 HD
ENDROOT
BRANCH   4   7
ATOM      7  C   UNL     1       3.137  -8.375   4.627  0.00  0.00    +0.080 A 
ATOM      8  C   UNL     1       2.224  -9.417   4.685  0.00  0.00    +0.065 A 
ATOM      9  C   UNL     1       2.375 -10.417   5.630  0.00  0.00    +0.125 A 
ATOM     10  C   UNL     1       3.437 -10.379   6.517  0.00  0.00    +0.042 A 
ATOM     11  C   UNL     1       4.350  -9.342   6.464  0.00  0.00    +0.050 A 
ATOM     12  C   UNL     1       4.208  -8.341   5.517  0.00  0.00    +0.142 A 
ATOM     13  F   UNL     1       1.485 -11.432   5.686  0.00  0.00    -0.205 F 
BRANCH  12  14
ATOM     14  O   UNL     1       5.109  -7.324   5.460  0.00  0.00    -0.488 OA
BRANCH  14  15
ATOM     15  C   UNL     1       6.240  -7.410   6.329  0.00  0.00    +0.167 C 
ATOM     16  C   UNL     1       7.393  -6.588   5.749  0.00  0.00    +0.051 C 
ATOM     17  C   UNL     1       5.867  -6.863   7.708  0.00  0.00    +0.051 C 
ENDBRANCH  14  15
ENDBRANCH  12  14
ENDBRANCH   4   7
BRANCH   1  18
ATOM     18  C   UNL     1       0.265  -5.612   1.923  0.00  0.00    +0.160 C 
BRANCH  18  25
ATOM     19  C   UNL     1       0.748   1.003  -1.375  0.00  0.00    +0.044 C 
ATOM     20  C   UNL     1       0.667  -0.487  -1.164  0.00  0.00    -0.046 A 
ATOM     21  C   UNL     1       0.681  -1.358  -2.266  0.00  0.00    +0.021 A 
ATOM     22  C   UNL     1       0.609  -2.693  -2.081  0.00  0.00    +0.093 A 
ATOM     23  N   UNL     1       0.520  -3.216  -0.823  0.00  0.00    -0.308 N 
ATOM     24  C   UNL     1       0.435  -4.500  -0.359  0.00  0.00    +0.115 A 
ATOM     25  C   UNL     1       0.370  -4.434   0.989  0.00  0.00    +0.051 A 
ATOM     26  N   UNL     1       0.412  -3.150   1.355  0.00  0.00    -0.342 N 
ATOM     27  C   UNL     1       0.504  -2.392   0.272  0.00  0.00    +0.116 A 
ATOM     28  C   UNL     1       0.584  -0.996   0.095  0.00  0.00    +0.048 A 
ATOM     29  H   UNL     1       0.381  -2.825   2.268  0.00  0.00    +0.167 HD
ENDBRANCH  18  25
ENDBRANCH   1  18
TORSDOF 5
