REMARK  Name = ZINC36783703
REMARK  6 active torsions:
REMARK  status: ('A' for Active; 'I' for Inactive)
REMARK    1  A    between atoms: C_1  and  C_2
REMARK    2  A    between atoms: C_2  and  N_3
REMARK    3  A    between atoms: C_12  and  S_13
REMARK    4  A    between atoms: S_13  and  C_14
REMARK    5  A    between atoms: C_14  and  C_15
REMARK    6  A    between atoms: C_27  and  C_31
REMARK                            x       y       z     vdW  Elec       q    Type
REMARK                         _______ _______ _______ _____ _____    ______ ____
ROOT
ATOM      1  N   UNL     1       0.688  -0.476  -1.203  0.00  0.00    -0.288 N 
ATOM      2  C   UNL     1      -0.024  -0.695  -2.325  0.00  0.00    +0.263 A 
ATOM      3  O   UNL     1      -1.227  -0.502  -2.340  0.00  0.00    -0.267 OA
ATOM      4  C   UNL     1       0.652  -1.156  -3.498  0.00  0.00    +0.076 A 
ATOM      5  C   UNL     1       0.084  -1.455  -4.814  0.00  0.00    -0.023 A 
ATOM      6  C   UNL     1       0.938  -1.880  -5.767  0.00  0.00    -0.004 A 
ATOM      7  S   UNL     1       2.527  -1.908  -4.982  0.00  0.00    -0.073 S 
ATOM      8  C   UNL     1       2.039  -1.346  -3.371  0.00  0.00    +0.117 A 
ATOM      9  N   UNL     1       2.683  -1.112  -2.234  0.00  0.00    -0.216 NA
ATOM     10  C   UNL     1       2.037  -0.682  -1.169  0.00  0.00    +0.173 A 
ATOM     11  C   UNL     1       0.610  -2.247  -7.183  0.00  0.00    +0.046 C 
ATOM     12  C   UNL     1      -0.793  -1.714  -7.508  0.00  0.00    -0.009 C 
ATOM     13  C   UNL     1      -1.742  -2.103  -6.370  0.00  0.00    +0.008 C 
ATOM     14  C   UNL     1      -1.404  -1.298  -5.114  0.00  0.00    +0.037 C 
ATOM     15  C   UNL     1      -1.283  -2.328  -8.821  0.00  0.00    +0.008 C 
ENDROOT
BRANCH   1  17
ATOM     16  C   UNL     1      -0.019   1.526   0.010  0.00  0.00    +0.027 C 
ATOM     17  C   UNL     1       0.002  -0.004   0.002  0.00  0.00    +0.124 C 
ENDBRANCH   1  17
BRANCH  10  18
ATOM     18  S   UNL     1       2.925  -0.374   0.321  0.00  0.00    -0.078 S 
BRANCH  18  19
ATOM     19  C   UNL     1       4.643  -0.776  -0.101  0.00  0.00    +0.173 C 
BRANCH  19  20
ATOM     20  C   UNL     1       5.521  -0.553   1.103  0.00  0.00    +0.230 C 
ATOM     21  O   UNL     1       5.037  -0.162   2.143  0.00  0.00    -0.274 OA
ATOM     22  N   UNL     1       6.846  -0.789   1.023  0.00  0.00    -0.270 N 
ATOM     23  C   UNL     1       7.798  -0.615   2.124  0.00  0.00    +0.118 C 
ATOM     24  C   UNL     1       9.165  -1.007   1.540  0.00  0.00    +0.056 C 
ATOM     25  C   UNL     1       8.873  -1.385   0.106  0.00  0.00    -0.024 A 
ATOM     26  C   UNL     1       7.513  -1.240  -0.120  0.00  0.00    +0.040 A 
ATOM     27  C   UNL     1       7.000  -1.539  -1.383  0.00  0.00    +0.024 A 
ATOM     28  C   UNL     1       7.837  -1.976  -2.388  0.00  0.00    +0.002 A 
ATOM     29  C   UNL     1       9.192  -2.120  -2.152  0.00  0.00    +0.000 A 
ATOM     30  C   UNL     1       9.708  -1.818  -0.905  0.00  0.00    +0.005 A 
ENDBRANCH  19  20
ENDBRANCH  18  19
ENDBRANCH  10  18
TORSDOF 4
