REMARK  Name = ZINC58999214
REMARK  11 active torsions:
REMARK  status: ('A' for Active; 'I' for Inactive)
REMARK    1  A    between atoms: C_1  and  C_2
REMARK    2  A    between atoms: C_9  and  N_17
REMARK    3  A    between atoms: C_10  and  C_11
REMARK    4  A    between atoms: C_11  and  O_13
REMARK    5  A    between atoms: O_13  and  C_14
REMARK    6  A    between atoms: C_14  and  C_15
REMARK    7  A    between atoms: C_14  and  C_16
REMARK    8  A    between atoms: C_18  and  C_20
REMARK    9  A    between atoms: C_20  and  C_21
REMARK   10  A    between atoms: C_21  and  C_22
REMARK   11  A    between atoms: C_22  and  C_23
REMARK                            x       y       z     vdW  Elec       q    Type
REMARK                         _______ _______ _______ _____ _____    ______ ____
ROOT
ATOM      1  N   UNL     1       0.698  -5.847   2.435  0.00  0.00    -0.279 N 
ATOM      2  C   UNL     1       1.679  -6.094   3.325  0.00  0.00    +0.218 C 
ATOM      3  O   UNL     1       2.384  -5.189   3.717  0.00  0.00    -0.275 OA
ATOM      4  H   UNL     1       0.134  -6.571   2.121  0.00  0.00    +0.155 HD
ENDROOT
BRANCH   1  12
ATOM      5  C   UNL     1      -0.019   1.526   0.010  0.00  0.00    +0.008 C 
ATOM      6  C   UNL     1       0.002  -0.004   0.002  0.00  0.00    -0.009 C 
ATOM      7  C   UNL     1      -1.434  -0.537   0.019  0.00  0.00    +0.008 C 
ATOM      8  C   UNL     1      -1.432  -2.045  -0.237  0.00  0.00    +0.037 C 
ATOM      9  C   UNL     1      -0.464  -2.704   0.735  0.00  0.00    -0.021 A 
ATOM     10  C   UNL     1       0.485  -1.986   1.374  0.00  0.00    -0.004 A 
ATOM     11  S   UNL     1       1.344  -3.167   2.373  0.00  0.00    -0.077 S 
ATOM     12  C   UNL     1       0.494  -4.558   1.968  0.00  0.00    +0.086 A 
ATOM     13  C   UNL     1      -0.459  -4.120   1.061  0.00  0.00    +0.091 A 
ATOM     14  C   UNL     1       0.739  -0.515   1.248  0.00  0.00    +0.046 C 
BRANCH  13  15
ATOM     15  C   UNL     1      -1.419  -5.045   0.456  0.00  0.00    +0.342 C 
ATOM     16  O   UNL     1      -1.147  -5.610  -0.586  0.00  0.00    -0.245 OA
BRANCH  15  17
ATOM     17  O   UNL     1      -2.607  -5.272   1.056  0.00  0.00    -0.458 OA
BRANCH  17  18
ATOM     18  C   UNL     1      -3.495  -6.186   0.410  0.00  0.00    +0.171 C 
ATOM     19  C   UNL     1      -3.229  -7.603   0.923  0.00  0.00    +0.052 C 
ATOM     20  C   UNL     1      -4.942  -5.795   0.719  0.00  0.00    +0.052 C 
ENDBRANCH  17  18
ENDBRANCH  15  17
ENDBRANCH  13  15
ENDBRANCH   1  12
BRANCH   2  21
ATOM     21  C   UNL     1       1.901  -7.496   3.832  0.00  0.00    +0.096 C 
BRANCH  21  22
ATOM     22  C   UNL     1       3.066  -7.502   4.823  0.00  0.00    +0.017 C 
BRANCH  22  23
ATOM     23  C   UNL     1       3.291  -8.925   5.338  0.00  0.00    +0.075 C 
BRANCH  23  24
ATOM     24  C   UNL     1       4.439  -8.930   6.314  0.00  0.00    +0.110 A 
ATOM     25  N   UNL     1       4.798 -10.112   6.881  0.00  0.00    -0.310 N 
ATOM     26  H   UNL     1       4.315 -10.921   6.650  0.00  0.00    +0.170 HD
ATOM     27  C   UNL     1       5.822 -10.170   7.763  0.00  0.00    +0.259 A 
ATOM     28  O   UNL     1       6.155 -11.222   8.277  0.00  0.00    -0.267 OA
ATOM     29  C   UNL     1       6.518  -8.913   8.076  0.00  0.00    +0.065 A 
ATOM     30  C   UNL     1       7.585  -8.864   8.971  0.00  0.00    +0.015 A 
ATOM     31  C   UNL     1       8.201  -7.659   9.227  0.00  0.00    +0.001 A 
ATOM     32  C   UNL     1       7.768  -6.497   8.603  0.00  0.00    +0.002 A 
ATOM     33  C   UNL     1       6.715  -6.524   7.715  0.00  0.00    +0.028 A 
ATOM     34  C   UNL     1       6.075  -7.733   7.438  0.00  0.00    +0.078 A 
ATOM     35  N   UNL     1       5.038  -7.806   6.567  0.00  0.00    -0.234 NA
ENDBRANCH  23  24
ENDBRANCH  22  23
ENDBRANCH  21  22
ENDBRANCH   2  21
TORSDOF 8
