REMARK  Name = ZINC13154683
REMARK  5 active torsions:
REMARK  status: ('A' for Active; 'I' for Inactive)
REMARK    1  A    between atoms: C_4  and  C_7
REMARK    2  A    between atoms: C_13  and  C_15
REMARK    3  A    between atoms: N_17  and  N_18
REMARK    4  A    between atoms: C_19  and  C_20
REMARK    5  A    between atoms: C_23  and  C_25
REMARK                            x       y       z     vdW  Elec       q    Type
REMARK                         _______ _______ _______ _____ _____    ______ ____
ROOT
ATOM      1  C   UNL     1       1.628   4.082  -0.213  0.00  0.00    +0.245 C 
ATOM      2  O   UNL     1       2.676   3.502  -0.410  0.00  0.00    -0.273 OA
ATOM      3  N   UNL     1       0.495   3.378  -0.021  0.00  0.00    -0.206 N 
ATOM      4  H   UNL     1      -0.343   3.842   0.136  0.00  0.00    +0.177 HD
ENDROOT
BRANCH   1  10
ATOM      5  C   UNL     1       1.818   6.106   1.256  0.00  0.00    +0.057 C 
ATOM      6  C   UNL     1       3.344   6.346   1.271  0.00  0.00    +0.113 C 
ATOM      7  N   UNL     1       3.717   6.581  -0.129  0.00  0.00    -0.314 N 
ATOM      8  C   UNL     1       2.755   6.160  -0.968  0.00  0.00    +0.226 C 
ATOM      9  O   UNL     1       2.810   6.227  -2.177  0.00  0.00    -0.275 OA
ATOM     10  C   UNL     1       1.594   5.588  -0.183  0.00  0.00    +0.171 C 
ATOM     11  H   UNL     1       4.551   6.987  -0.412  0.00  0.00    +0.149 HD
BRANCH   5  15
ATOM     12  C   UNL     1       0.708   3.150   4.133  0.00  0.00    +0.000 A 
ATOM     13  C   UNL     1      -0.086   4.267   3.948  0.00  0.00    +0.000 A 
ATOM     14  C   UNL     1       0.273   5.223   3.017  0.00  0.00    +0.004 A 
ATOM     15  C   UNL     1       1.426   5.063   2.272  0.00  0.00    -0.042 A 
ATOM     16  C   UNL     1       2.217   3.944   2.453  0.00  0.00    +0.004 A 
ATOM     17  C   UNL     1       1.860   2.990   3.388  0.00  0.00    +0.000 A 
ENDBRANCH   5  15
ENDBRANCH   1  10
BRANCH   3  18
ATOM     18  N   UNL     1       0.526   1.978  -0.049  0.00  0.00    -0.185 NA
ATOM     19  C   UNL     1      -0.582   1.300   0.034  0.00  0.00    +0.176 C 
BRANCH  19  20
ATOM     20  C   UNL     1      -1.849   1.995   0.272  0.00  0.00    +0.148 A 
ATOM     21  C   UNL     1      -3.071   1.397   0.487  0.00  0.00    +0.051 A 
ATOM     22  C   UNL     1      -4.000   2.430   0.671  0.00  0.00    +0.050 A 
ATOM     23  C   UNL     1      -3.319   3.605   0.555  0.00  0.00    +0.136 A 
ATOM     24  O   UNL     1      -2.023   3.331   0.315  0.00  0.00    -0.454 OA
BRANCH  23  25
ATOM     25  C   UNL     1      -3.906   4.955   0.673  0.00  0.00    +0.019 A 
ATOM     26  C   UNL     1      -3.098   6.086   0.533  0.00  0.00    +0.013 A 
ATOM     27  C   UNL     1      -3.652   7.344   0.644  0.00  0.00    +0.022 A 
ATOM     28  C   UNL     1      -5.007   7.488   0.893  0.00  0.00    +0.059 A 
ATOM     29  C   UNL     1      -5.815   6.370   1.032  0.00  0.00    +0.060 A 
ATOM     30  C   UNL     1      -5.273   5.106   0.918  0.00  0.00    +0.033 A 
ATOM     31 CL   UNL     1      -7.512   6.561   1.342  0.00  0.00    -0.082 Cl
ATOM     32 CL   UNL     1      -5.696   9.075   1.030  0.00  0.00    -0.082 Cl
ENDBRANCH  23  25
ENDBRANCH  19  20
ENDBRANCH   3  18
TORSDOF 5
