REMARK  Name = ZINC08696875
REMARK  5 active torsions:
REMARK  status: ('A' for Active; 'I' for Inactive)
REMARK    1  A    between atoms: C_1  and  C_2
REMARK    2  A    between atoms: C_2  and  C_3
REMARK    3  A    between atoms: C_2  and  C_4
REMARK    4  A    between atoms: C_7  and  S_10
REMARK    5  A    between atoms: S_10  and  N_13
REMARK                            x       y       z     vdW  Elec       q    Type
REMARK                         _______ _______ _______ _____ _____    ______ ____
ROOT
ATOM      1  S   UNL     1       1.232  -2.441  -0.022  0.00  0.00    +0.073 S 
ATOM      2  O   UNL     1       2.488  -2.833   0.514  0.00  0.00    -0.150 OA
ATOM      3  O   UNL     1      -0.002  -2.866   0.538  0.00  0.00    -0.150 OA
ENDROOT
BRANCH   1   4
ATOM      4  N   UNL     1       1.224  -2.922  -1.607  0.00  0.00    -0.199 N 
ATOM      5  C   UNL     1       2.303  -2.623  -2.430  0.00  0.00    +0.138 A 
ATOM      6  C   UNL     1       2.289  -3.030  -3.760  0.00  0.00    +0.046 A 
ATOM      7  C   UNL     1       3.369  -2.726  -4.569  0.00  0.00    +0.020 A 
ATOM      8  C   UNL     1       4.432  -2.021  -4.018  0.00  0.00    +0.036 A 
ATOM      9  C   UNL     1       4.379  -1.648  -2.689  0.00  0.00    +0.128 A 
ATOM     10  N   UNL     1       3.332  -1.948  -1.943  0.00  0.00    -0.238 NA
ATOM     11 BR   UNL     1       5.935  -1.577  -5.075  0.00  0.00    -0.049 Br
ATOM     12  H   UNL     1       0.465  -3.413  -1.960  0.00  0.00    +0.175 HD
ENDBRANCH   1   4
BRANCH   1  16
ATOM     13  C   UNL     1       1.171   2.086   0.002  0.00  0.00    -0.045 A 
ATOM     14  C   UNL     1      -0.017   1.378   0.010  0.00  0.00    +0.006 A 
ATOM     15  C   UNL     1       0.002  -0.004   0.002  0.00  0.00    +0.029 A 
ATOM     16  C   UNL     1       1.208  -0.679  -0.013  0.00  0.00    +0.109 A 
ATOM     17  C   UNL     1       2.396   0.029  -0.022  0.00  0.00    +0.029 A 
ATOM     18  C   UNL     1       2.377   1.411  -0.015  0.00  0.00    +0.006 A 
BRANCH  13  20
ATOM     19  C   UNL     1       1.876   4.106   1.255  0.00  0.00    +0.012 C 
ATOM     20  C   UNL     1       1.151   3.592   0.010  0.00  0.00    +0.013 C 
ATOM     21  C   UNL     1       1.853   4.119  -1.243  0.00  0.00    +0.012 C 
ENDBRANCH  13  20
ENDBRANCH   1  16
TORSDOF 3
