REMARK  Name = ZINC16043581
REMARK  6 active torsions:
REMARK  status: ('A' for Active; 'I' for Inactive)
REMARK    1  A    between atoms: C_7  and  C_11
REMARK    2  A    between atoms: C_14  and  S_16
REMARK    3  A    between atoms: S_16  and  C_17
REMARK    4  A    between atoms: C_17  and  C_18
REMARK    5  A    between atoms: C_21  and  C_33
REMARK    6  A    between atoms: C_24  and  C_26
REMARK                            x       y       z     vdW  Elec       q    Type
REMARK                         _______ _______ _______ _____ _____    ______ ____
ROOT
ATOM      1  C   UNL     1      -2.305  -8.803  -0.020  0.00  0.00    +0.246 C 
ATOM      2  O   UNL     1      -1.378  -9.585  -0.027  0.00  0.00    -0.273 OA
ATOM      3  N   UNL     1      -3.573  -9.261  -0.013  0.00  0.00    -0.181 N 
ATOM      4  C   UNL     1      -3.971 -10.678  -0.009  0.00  0.00    +0.173 C 
ATOM      5  C   UNL     1      -5.512 -10.620  -0.001  0.00  0.00    +0.090 C 
ATOM      6  C   UNL     1      -5.821  -9.140  -0.003  0.00  0.00    +0.069 C 
ATOM      7  N   UNL     1      -4.720  -8.470  -0.004  0.00  0.00    -0.181 NA
ENDROOT
BRANCH   6   8
ATOM      8  C   UNL     1      -7.173  -8.553   0.003  0.00  0.00    -0.002 A 
ATOM      9  C   UNL     1      -8.298  -9.382   0.015  0.00  0.00    +0.011 A 
ATOM     10  C   UNL     1      -9.560  -8.827   0.021  0.00  0.00    +0.020 A 
ATOM     11  C   UNL     1      -9.714  -7.450   0.013  0.00  0.00    +0.041 A 
ATOM     12  C   UNL     1      -8.604  -6.623   0.000  0.00  0.00    +0.020 A 
ATOM     13  C   UNL     1      -7.336  -7.165   0.001  0.00  0.00    +0.011 A 
ATOM     14 CL   UNL     1     -11.307  -6.760   0.019  0.00  0.00    -0.084 Cl
ENDBRANCH   6   8
BRANCH   4  15
ATOM     15  C   UNL     1      -3.457 -11.369   1.228  0.00  0.00    +0.128 A 
ATOM     16  C   UNL     1      -2.968 -12.621   1.283  0.00  0.00    +0.046 A 
ATOM     17  C   UNL     1      -2.605 -12.859   2.629  0.00  0.00    +0.041 A 
ATOM     18  C   UNL     1      -2.894 -11.739   3.315  0.00  0.00    +0.195 A 
ATOM     19  O   UNL     1      -3.405 -10.838   2.460  0.00  0.00    -0.466 OA
ENDBRANCH   4  15
BRANCH   1  20
ATOM     20  C   UNL     1      -2.040  -7.320  -0.018  0.00  0.00    +0.176 C 
BRANCH  20  21
ATOM     21  S   UNL     1      -0.250  -7.026  -0.027  0.00  0.00    -0.056 S 
BRANCH  21  25
ATOM     22  C   UNL     1       0.685  -3.260  -0.022  0.00  0.00    +0.251 A 
ATOM     23  N   UNL     1      -0.626  -3.213  -0.015  0.00  0.00    -0.106 NA
ATOM     24  N   UNL     1      -1.097  -4.410  -0.015  0.00  0.00    -0.101 NA
ATOM     25  C   UNL     1      -0.106  -5.270  -0.024  0.00  0.00    +0.278 A 
ATOM     26  O   UNL     1       1.042  -4.564  -0.034  0.00  0.00    -0.411 OA
BRANCH  22  33
ATOM     27  C   UNL     1      -0.017   1.363   0.009  0.00  0.00    +0.001 A 
ATOM     28  C   UNL     1       1.170   2.083   0.002  0.00  0.00    +0.002 A 
ATOM     29  C   UNL     1       2.385   1.434  -0.013  0.00  0.00    +0.026 A 
ATOM     30  C   UNL     1       2.425   0.043  -0.021  0.00  0.00    +0.047 A 
ATOM     31  C   UNL     1       1.221  -0.680  -0.013  0.00  0.00    +0.012 A 
ATOM     32  C   UNL     1       0.002  -0.004   0.002  0.00  0.00    +0.011 A 
ATOM     33  C   UNL     1       1.601  -2.103  -0.025  0.00  0.00    +0.063 A 
ATOM     34  C   UNL     1       2.959  -2.143  -0.039  0.00  0.00    +0.097 A 
ATOM     35  N   UNL     1       3.456  -0.872  -0.036  0.00  0.00    -0.360 N 
ATOM     36  H   UNL     1       4.399  -0.646  -0.044  0.00  0.00    +0.165 HD
ENDBRANCH  22  33
ENDBRANCH  21  25
ENDBRANCH  20  21
ENDBRANCH   1  20
TORSDOF 6
