REMARK  Name = ZINC27697024
REMARK  14 active torsions:
REMARK  status: ('A' for Active; 'I' for Inactive)
REMARK    1  A    between atoms: C_1  and  C_2
REMARK    2  A    between atoms: C_2  and  C_3
REMARK    3  A    between atoms: C_2  and  N_4
REMARK    4  A    between atoms: N_4  and  C_5
REMARK    5  A    between atoms: N_4  and  C_32
REMARK    6  A    between atoms: C_5  and  C_6
REMARK    7  A    between atoms: C_6  and  C_8
REMARK    8  A    between atoms: C_6  and  O_31
REMARK    9  A    between atoms: C_8  and  N_9
REMARK   10  A    between atoms: C_17  and  C_18
REMARK   11  A    between atoms: C_18  and  C_19
REMARK   12  A    between atoms: C_22  and  C_25
REMARK   13  A    between atoms: C_32  and  C_33
REMARK   14  A    between atoms: C_32  and  C_34
REMARK                            x       y       z     vdW  Elec       q    Type
REMARK                         _______ _______ _______ _____ _____    ______ ____
ROOT
ATOM      1  N   UNL     1       8.425  -0.098   2.780  0.00  0.00    -0.325 N 
ATOM      2  C   UNL     1       9.012  -0.287   4.016  0.00  0.00    +0.069 A 
ATOM      3  C   UNL     1       9.802   0.501   4.842  0.00  0.00    +0.028 A 
ATOM      4  C   UNL     1      10.244  -0.002   6.046  0.00  0.00    +0.002 A 
ATOM      5  C   UNL     1       9.905  -1.289   6.438  0.00  0.00    +0.002 A 
ATOM      6  C   UNL     1       9.129  -2.079   5.639  0.00  0.00    +0.030 A 
ATOM      7  C   UNL     1       8.669  -1.590   4.413  0.00  0.00    +0.089 A 
ATOM      8  N   UNL     1       7.902  -2.116   3.424  0.00  0.00    -0.232 NA
ATOM      9  C   UNL     1       7.757  -1.242   2.471  0.00  0.00    +0.115 A 
ENDROOT
BRANCH   1  10
ATOM     10  C   UNL     1       8.504   1.111   1.957  0.00  0.00    +0.153 C 
BRANCH  10  11
ATOM     11  C   UNL     1       9.646   0.969   0.950  0.00  0.00    +0.118 C 
BRANCH  11  12
ATOM     12  O   UNL     1      10.892   0.898   1.647  0.00  0.00    -0.392 OA
ATOM     13  H   UNL     1      11.072   0.089   2.370  0.00  0.00    +0.210 HD
ENDBRANCH  11  12
BRANCH  11  14
ATOM     14  C   UNL     1       9.654   2.178   0.013  0.00  0.00    -0.045 C 
BRANCH  14  15
ATOM     15  N   UNL     1      10.679   1.990  -1.022  0.00  0.00    +0.384 N 
ATOM     16  H   UNL     1      11.485   1.377  -0.592  0.00  0.00    -0.081 HD
BRANCH  15  18
ATOM     17  C   UNL     1       9.603  -0.094  -1.726  0.00  0.00    -0.014 C 
ATOM     18  C   UNL     1      10.133   1.268  -2.179  0.00  0.00    -0.074 C 
ATOM     19  C   UNL     1       8.992   2.080  -2.795  0.00  0.00    -0.014 C 
ENDBRANCH  15  18
BRANCH  15  20
ATOM     20  C   UNL     1      11.258   3.276  -1.430  0.00  0.00    -0.074 C 
ATOM     21  C   UNL     1      11.903   3.953  -0.219  0.00  0.00    -0.014 C 
ATOM     22  C   UNL     1      12.320   3.040  -2.507  0.00  0.00    -0.014 C 
ENDBRANCH  15  20
ENDBRANCH  14  15
ENDBRANCH  11  14
ENDBRANCH  10  11
ENDBRANCH   1  10
BRANCH   9  23
ATOM     23  C   UNL     1       6.970  -1.466   1.206  0.00  0.00    +0.109 C 
BRANCH  23  24
ATOM     24  C   UNL     1       5.513  -1.183   1.464  0.00  0.00    -0.040 A 
ATOM     25  C   UNL     1       5.003   0.080   1.223  0.00  0.00    +0.004 A 
ATOM     26  C   UNL     1       3.669   0.345   1.458  0.00  0.00    +0.009 A 
ATOM     27  C   UNL     1       2.835  -0.662   1.939  0.00  0.00    -0.018 A 
ATOM     28  C   UNL     1       3.355  -1.931   2.186  0.00  0.00    +0.009 A 
ATOM     29  C   UNL     1       4.689  -2.187   1.942  0.00  0.00    +0.004 A 
BRANCH  27  30
ATOM     30  C   UNL     1       1.400  -0.383   2.194  0.00  0.00    -0.018 A 
ATOM     31  C   UNL     1       0.567  -1.391   2.676  0.00  0.00    +0.008 A 
ATOM     32  C   UNL     1      -0.768  -1.127   2.906  0.00  0.00    +0.001 A 
ATOM     33  C   UNL     1      -1.277   0.138   2.670  0.00  0.00    +0.000 A 
ATOM     34  C   UNL     1      -0.454   1.141   2.192  0.00  0.00    +0.001 A 
ATOM     35  C   UNL     1       0.881   0.887   1.953  0.00  0.00    +0.008 A 
ENDBRANCH  27  30
ENDBRANCH  23  24
ENDBRANCH   9  23
TORSDOF 10
