REMARK  Name = ZINC10535588
REMARK  9 active torsions:
REMARK  status: ('A' for Active; 'I' for Inactive)
REMARK    1  A    between atoms: C_1  and  C_2
REMARK    2  A    between atoms: C_2  and  O_3
REMARK    3  A    between atoms: O_3  and  C_4
REMARK    4  A    between atoms: C_4  and  C_6
REMARK    5  A    between atoms: C_8  and  C_30
REMARK    6  A    between atoms: C_9  and  S_13
REMARK    7  A    between atoms: C_11  and  C_12
REMARK    8  A    between atoms: S_13  and  C_14
REMARK    9  A    between atoms: C_14  and  C_15
REMARK                            x       y       z     vdW  Elec       q    Type
REMARK                         _______ _______ _______ _____ _____    ______ ____
ROOT
ATOM      1  C   UNL     1       3.454   3.186   0.157  0.00  0.00    +0.142 A 
ATOM      2  N   UNL     1       4.163   2.077   0.268  0.00  0.00    -0.216 NA
ATOM      3  C   UNL     1       3.604   0.904   0.516  0.00  0.00    +0.128 A 
ATOM      4  C   UNL     1       2.191   0.830   0.669  0.00  0.00    +0.051 A 
ATOM      5  C   UNL     1       1.363  -0.348   0.947  0.00  0.00    -0.025 A 
ATOM      6  C   UNL     1       0.033  -0.145   1.041  0.00  0.00    -0.004 A 
ATOM      7  S   UNL     1      -0.193   1.595   0.777  0.00  0.00    -0.073 S 
ATOM      8  C   UNL     1       1.503   2.051   0.536  0.00  0.00    +0.114 A 
ATOM      9  N   UNL     1       2.141   3.179   0.288  0.00  0.00    -0.224 NA
ATOM     10  C   UNL     1      -1.034  -1.163   1.297  0.00  0.00    +0.043 C 
ATOM     11  C   UNL     1      -0.635  -2.028   2.500  0.00  0.00    +0.005 C 
ATOM     12  C   UNL     1       0.169  -3.219   1.988  0.00  0.00    +0.001 C 
ATOM     13  C   UNL     1       0.982  -2.812   0.761  0.00  0.00    +0.005 C 
ATOM     14  C   UNL     1       1.989  -1.728   1.125  0.00  0.00    +0.037 C 
ATOM     15  N   UNL     1       4.381  -0.235   0.626  0.00  0.00    -0.343 N 
ATOM     16  H   UNL     1       5.235  -0.286   0.168  0.00  0.00    +0.144 HD
ATOM     17  H   UNL     1       4.073  -0.983   1.161  0.00  0.00    +0.144 HD
ENDROOT
BRANCH   1  18
ATOM     18  C   UNL     1       4.159   4.487  -0.126  0.00  0.00    +0.152 C 
BRANCH  18  19
ATOM     19  S   UNL     1       4.276   4.733  -1.915  0.00  0.00    -0.097 S 
BRANCH  19  23
ATOM     20  C   UNL     1       6.428   8.685  -1.986  0.00  0.00    +0.081 A 
ATOM     21  C   UNL     1       6.095   8.097  -3.212  0.00  0.00    +0.038 A 
ATOM     22  C   UNL     1       5.434   6.870  -3.197  0.00  0.00    +0.084 A 
ATOM     23  C   UNL     1       5.118   6.280  -1.957  0.00  0.00    +0.115 A 
ATOM     24  N   UNL     1       5.454   6.876  -0.820  0.00  0.00    -0.244 NA
ATOM     25  C   UNL     1       6.083   8.031  -0.799  0.00  0.00    +0.054 A 
ATOM     26  C   UNL     1       6.437   8.658   0.524  0.00  0.00    +0.066 C 
BRANCH  20  27
ATOM     27  C   UNL     1       7.132   9.980  -1.946  0.00  0.00    +0.341 C 
ATOM     28  O   UNL     1       7.514  10.431  -0.884  0.00  0.00    -0.245 OA
BRANCH  27  29
ATOM     29  O   UNL     1       7.353  10.662  -3.087  0.00  0.00    -0.461 OA
BRANCH  29  31
ATOM     30  C   UNL     1       8.209  12.553  -4.361  0.00  0.00    +0.048 C 
ATOM     31  C   UNL     1       8.052  11.929  -2.972  0.00  0.00    +0.229 C 
ENDBRANCH  29  31
ENDBRANCH  27  29
ENDBRANCH  20  27
BRANCH  22  32
ATOM     32  C   UNL     1       5.075   6.221  -4.423  0.00  0.00    +0.102 C 
ATOM     33  N   UNL     1       4.791   5.707  -5.395  0.00  0.00    -0.191 NA
ENDBRANCH  22  32
ENDBRANCH  19  23
ENDBRANCH  18  19
ENDBRANCH   1  18
TORSDOF 7
