REMARK  Name = ZINC02597496
REMARK  13 active torsions:
REMARK  status: ('A' for Active; 'I' for Inactive)
REMARK    1  A    between atoms: C_1  and  C_2
REMARK    2  A    between atoms: C_2  and  C_38
REMARK    3  A    between atoms: C_6  and  C_23
REMARK    4  A    between atoms: C_8  and  C_21
REMARK    5  A    between atoms: C_9  and  N_20
REMARK    6  A    between atoms: N_10  and  C_11
REMARK    7  A    between atoms: C_15  and  N_17
REMARK    8  A    between atoms: C_25  and  O_33
REMARK    9  A    between atoms: C_26  and  O_31
REMARK   10  A    between atoms: C_27  and  O_29
REMARK   11  A    between atoms: O_29  and  C_30
REMARK   12  A    between atoms: O_31  and  C_32
REMARK   13  A    between atoms: O_33  and  C_34
REMARK                            x       y       z     vdW  Elec       q    Type
REMARK                         _______ _______ _______ _____ _____    ______ ____
ROOT
ATOM      1  C   UNL     1       3.287   5.572   2.052  0.00  0.00    +0.011 C 
ATOM      2  C   UNL     1       3.548   5.818   0.565  0.00  0.00    -0.023 C 
ATOM      3  C   UNL     1       2.393   5.248  -0.261  0.00  0.00    +0.058 C 
ATOM      4  C   UNL     1       1.109   5.947   0.113  0.00  0.00    +0.025 C 
ATOM      5  C   UNL     1       1.112   7.231   0.528  0.00  0.00    +0.025 C 
ATOM      6  C   UNL     1      -0.172   7.927   0.902  0.00  0.00    +0.098 C 
ATOM      7  C   UNL     1      -1.364   7.200   0.352  0.00  0.00    +0.077 C 
ATOM      8  C   UNL     1      -1.269   5.909  -0.064  0.00  0.00    +0.107 C 
ATOM      9  N   UNL     1      -0.065   5.247   0.016  0.00  0.00    -0.260 N 
ATOM     10  C   UNL     1       2.311   7.957   0.629  0.00  0.00    +0.162 C 
ATOM     11  O   UNL     1       2.277   9.118   0.988  0.00  0.00    -0.292 OA
ATOM     12  C   UNL     1       3.636   7.325   0.300  0.00  0.00    +0.086 C 
ATOM     13  C   UNL     1       4.857   5.142   0.154  0.00  0.00    +0.011 C 
ENDROOT
BRANCH   9  14
ATOM     14  C   UNL     1      -0.040   3.847  -0.006  0.00  0.00    +0.042 A 
ATOM     15  C   UNL     1      -0.098   3.131   1.183  0.00  0.00    +0.024 A 
ATOM     16  C   UNL     1      -0.073   1.751   1.157  0.00  0.00    +0.004 A 
ATOM     17  C   UNL     1       0.010   1.081  -0.050  0.00  0.00    +0.033 A 
ATOM     18  C   UNL     1       0.073   1.791  -1.235  0.00  0.00    +0.128 A 
ATOM     19  C   UNL     1       0.043   3.172  -1.217  0.00  0.00    +0.056 A 
BRANCH  18  20
ATOM     20  N   UNL     1       0.168   1.071  -2.525  0.00  0.00    +0.056 N 
ATOM     21  O   UNL     1       0.190  -0.147  -2.542  0.00  0.00    -0.126 OA
ATOM     22  O   UNL     1       0.224   1.696  -3.569  0.00  0.00    -0.126 OA
ENDBRANCH  18  20
ENDBRANCH   9  14
BRANCH   6  23
ATOM     23  C   UNL     1      -0.281   7.989   2.404  0.00  0.00    -0.028 A 
ATOM     24  C   UNL     1      -0.306   6.820   3.142  0.00  0.00    +0.054 A 
ATOM     25  C   UNL     1      -0.401   6.872   4.524  0.00  0.00    +0.165 A 
ATOM     26  C   UNL     1      -0.482   8.102   5.167  0.00  0.00    +0.204 A 
ATOM     27  C   UNL     1      -0.463   9.274   4.421  0.00  0.00    +0.165 A 
ATOM     28  C   UNL     1      -0.362   9.214   3.040  0.00  0.00    +0.054 A 
BRANCH  27  29
ATOM     29  O   UNL     1      -0.542  10.480   5.046  0.00  0.00    -0.491 OA
ATOM     30  C   UNL     1      -0.515  11.643   4.216  0.00  0.00    +0.277 C 
ENDBRANCH  27  29
BRANCH  26  31
ATOM     31  O   UNL     1      -0.581   8.158   6.524  0.00  0.00    -0.488 OA
ATOM     32  C   UNL     1      -1.898   8.147   7.079  0.00  0.00    +0.277 C 
ENDBRANCH  26  31
BRANCH  25  33
ATOM     33  O   UNL     1      -0.419   5.722   5.250  0.00  0.00    -0.491 OA
ATOM     34  C   UNL     1      -0.332   4.495   4.522  0.00  0.00    +0.277 C 
ENDBRANCH  25  33
ENDBRANCH   6  23
BRANCH   8  35
ATOM     35  N   UNL     1      -2.376   5.264  -0.562  0.00  0.00    -0.345 N 
ATOM     36  H   UNL     1      -2.298   4.220  -0.899  0.00  0.00    +0.144 HD
ATOM     37  H   UNL     1      -3.339   5.792  -0.624  0.00  0.00    +0.144 HD
ENDBRANCH   8  35
BRANCH   7  38
ATOM     38  C   UNL     1      -2.622   7.879   0.259  0.00  0.00    +0.099 C 
ATOM     39  N   UNL     1      -3.619   8.417   0.186  0.00  0.00    -0.191 NA
ENDBRANCH   7  38
TORSDOF 8
