REMARK  Name = ZINC36637570
REMARK  12 active torsions:
REMARK  status: ('A' for Active; 'I' for Inactive)
REMARK    1  A    between atoms: C_1  and  N_2
REMARK    2  A    between atoms: N_2  and  C_3
REMARK    3  A    between atoms: N_2  and  C_4
REMARK    4  A    between atoms: C_4  and  C_5
REMARK    5  A    between atoms: C_5  and  N_6
REMARK    6  A    between atoms: C_11  and  O_16
REMARK    7  A    between atoms: O_16  and  C_17
REMARK    8  A    between atoms: C_18  and  C_20
REMARK    9  A    between atoms: C_23  and  S_26
REMARK   10  A    between atoms: S_26  and  N_29
REMARK   11  A    between atoms: N_29  and  C_30
REMARK   12  A    between atoms: N_29  and  C_31
REMARK                            x       y       z     vdW  Elec       q    Type
REMARK                         _______ _______ _______ _____ _____    ______ ____
ROOT
ATOM      1  N   UNL     1      -3.414  -1.933  -0.061  0.00  0.00    -0.248 N 
ATOM      2  C   UNL     1      -4.134  -1.922  -1.244  0.00  0.00    +0.168 A 
ATOM      3  N   UNL     1      -5.436  -1.940  -1.415  0.00  0.00    -0.224 NA
ATOM      4  C   UNL     1      -6.007  -1.926  -2.639  0.00  0.00    +0.084 A 
ATOM      5  C   UNL     1      -7.384  -1.943  -2.959  0.00  0.00    +0.074 A 
ATOM      6  C   UNL     1      -7.801  -1.925  -4.269  0.00  0.00    +0.122 A 
ATOM      7  C   UNL     1      -6.888  -1.889  -5.319  0.00  0.00    +0.047 A 
ATOM      8  C   UNL     1      -5.535  -1.872  -5.038  0.00  0.00    +0.021 A 
ATOM      9  C   UNL     1      -5.112  -1.890  -3.732  0.00  0.00    +0.041 A 
ATOM     10  S   UNL     1      -3.529  -1.871  -2.925  0.00  0.00    -0.052 S 
ATOM     11  C   UNL     1      -4.060  -1.972   1.121  0.00  0.00    +0.252 C 
ATOM     12  O   UNL     1      -5.271  -2.066   1.149  0.00  0.00    -0.270 OA
ENDROOT
BRANCH  11  13
ATOM     13  C   UNL     1      -3.295  -1.901   2.384  0.00  0.00    +0.037 A 
ATOM     14  C   UNL     1      -2.029  -1.313   2.404  0.00  0.00    +0.015 A 
ATOM     15  C   UNL     1      -1.320  -1.250   3.586  0.00  0.00    +0.029 A 
ATOM     16  C   UNL     1      -1.861  -1.769   4.749  0.00  0.00    +0.109 A 
ATOM     17  C   UNL     1      -3.115  -2.353   4.736  0.00  0.00    +0.029 A 
ATOM     18  C   UNL     1      -3.837  -2.417   3.562  0.00  0.00    +0.015 A 
BRANCH  16  19
ATOM     19  S   UNL     1      -0.949  -1.685   6.254  0.00  0.00    +0.074 S 
ATOM     20  O   UNL     1      -1.442  -2.726   7.087  0.00  0.00    -0.150 OA
ATOM     21  O   UNL     1       0.421  -1.582   5.894  0.00  0.00    -0.150 OA
BRANCH  19  22
ATOM     22  N   UNL     1      -1.352  -0.258   6.992  0.00  0.00    -0.206 N 
ATOM     23  C   UNL     1      -2.413  -0.230   8.002  0.00  0.00    +0.157 C 
BRANCH  22  24
ATOM     24  C   UNL     1      -0.681   0.918   6.652  0.00  0.00    +0.051 A 
ATOM     25  C   UNL     1      -1.393   2.015   6.183  0.00  0.00    +0.025 A 
ATOM     26  C   UNL     1      -0.726   3.177   5.848  0.00  0.00    +0.002 A 
ATOM     27  C   UNL     1       0.649   3.249   5.978  0.00  0.00    +0.000 A 
ATOM     28  C   UNL     1       1.361   2.159   6.445  0.00  0.00    +0.002 A 
ATOM     29  C   UNL     1       0.699   0.996   6.787  0.00  0.00    +0.025 A 
ENDBRANCH  22  24
ENDBRANCH  19  22
ENDBRANCH  16  19
ENDBRANCH  11  13
BRANCH   6  30
ATOM     30  O   UNL     1      -9.132  -1.942  -4.544  0.00  0.00    -0.495 OA
ATOM     31  C   UNL     1      -9.510  -1.922  -5.922  0.00  0.00    +0.277 C 
ENDBRANCH   6  30
BRANCH   1  32
ATOM     32  C   UNL     1      -1.950  -1.901  -0.096  0.00  0.00    +0.097 C 
BRANCH  32  33
ATOM     33  C   UNL     1      -1.479  -0.503  -0.501  0.00  0.00    -0.060 C 
BRANCH  33  35
ATOM     34  C   UNL     1       0.417   0.790  -1.200  0.00  0.00    -0.097 C 
ATOM     35  N   UNL     1      -0.018  -0.504  -0.659  0.00  0.00    +0.377 N 
ATOM     36  C   UNL     1       0.615  -0.727   0.648  0.00  0.00    -0.097 C 
ATOM     37  H   UNL     1       0.251  -1.242  -1.293  0.00  0.00    -0.083 HD
ENDBRANCH  33  35
ENDBRANCH  32  33
ENDBRANCH   1  32
TORSDOF 8
