REMARK  Name = ZINC09066592
REMARK  11 active torsions:
REMARK  status: ('A' for Active; 'I' for Inactive)
REMARK    1  A    between atoms: C_1  and  C_2
REMARK    2  A    between atoms: C_2  and  C_5
REMARK    3  A    between atoms: N_3  and  O_4
REMARK    4  A    between atoms: C_5  and  O_39
REMARK    5  A    between atoms: C_6  and  O_38
REMARK    6  A    between atoms: C_11  and  C_37
REMARK    7  A    between atoms: C_21  and  C_36
REMARK    8  A    between atoms: C_24  and  O_27
REMARK    9  A    between atoms: O_27  and  C_28
REMARK   10  A    between atoms: C_28  and  C_30
REMARK   11  A    between atoms: O_39  and  C_40
REMARK                            x       y       z     vdW  Elec       q    Type
REMARK                         _______ _______ _______ _____ _____    ______ ____
ROOT
ATOM      1  C   UNL     1      -5.160   3.137   2.064  0.00  0.00    +0.141 C 
ATOM      2  C   UNL     1      -4.949   2.570   3.483  0.00  0.00    +0.153 C 
ATOM      3  C   UNL     1      -4.775   1.044   3.322  0.00  0.00    +0.039 C 
ATOM      4  C   UNL     1      -4.275   0.863   1.833  0.00  0.00    +0.004 C 
ATOM      5  C   UNL     1      -5.115   1.929   1.119  0.00  0.00    +0.008 C 
ATOM      6  C   UNL     1      -4.558   2.275  -0.243  0.00  0.00    +0.010 C 
ATOM      7  C   UNL     1      -3.098   2.708  -0.136  0.00  0.00    +0.005 C 
ATOM      8  C   UNL     1      -2.278   1.554   0.457  0.00  0.00    +0.003 C 
ATOM      9  C   UNL     1      -2.793   1.251   1.854  0.00  0.00    +0.000 C 
ATOM     10  C   UNL     1      -2.007   0.057   2.418  0.00  0.00    +0.031 C 
ATOM     11  C   UNL     1      -0.535   0.309   2.302  0.00  0.00    -0.027 C 
ATOM     12  C   UNL     1      -0.015   1.161   1.478  0.00  0.00    -0.064 C 
ATOM     13  C   UNL     1      -0.818   1.992   0.514  0.00  0.00    -0.008 C 
ATOM     14  C   UNL     1      -0.720   3.462   0.916  0.00  0.00    +0.015 C 
ATOM     15  C   UNL     1       0.599   3.722   1.642  0.00  0.00    +0.046 C 
ATOM     16  C   UNL     1       1.720   2.852   1.075  0.00  0.00    +0.181 C 
ATOM     17  C   UNL     1       1.488   1.389   1.481  0.00  0.00    +0.075 C 
ATOM     18  C   UNL     1      -0.211   1.832  -0.881  0.00  0.00    +0.016 C 
ATOM     19  C   UNL     1      -6.531   1.374   0.953  0.00  0.00    +0.015 C 
ENDROOT
BRANCH   1  21
ATOM     20  C   UNL     1      -6.914   4.494   0.687  0.00  0.00    +0.067 C 
ATOM     21  C   UNL     1      -6.500   3.820   1.970  0.00  0.00    +0.089 C 
ATOM     22  N   UNL     1      -7.286   3.829   2.979  0.00  0.00    -0.094 NA
BRANCH  22  23
ATOM     23  O   UNL     1      -8.545   4.471   2.891  0.00  0.00    -0.409 OA
ATOM     24  H   UNL     1      -9.068   4.425   3.703  0.00  0.00    +0.328 HD
ENDBRANCH  22  23
ENDBRANCH   1  21
BRANCH   2  25
ATOM     25  O   UNL     1      -3.775   3.138   4.067  0.00  0.00    -0.389 OA
ATOM     26  H   UNL     1      -3.588   2.821   4.962  0.00  0.00    +0.210 HD
ENDBRANCH   2  25
BRANCH   1  27
ATOM     27  O   UNL     1      -4.115   4.056   1.739  0.00  0.00    -0.368 OA
ATOM     28  C   UNL     1      -4.165   5.278   2.478  0.00  0.00    +0.195 C 
ENDBRANCH   1  27
BRANCH  16  29
ATOM     29  O   UNL     1       1.728   2.956  -0.373  0.00  0.00    -0.458 OA
BRANCH  29  30
ATOM     30  C   UNL     1       2.917   2.811  -0.990  0.00  0.00    +0.339 C 
ATOM     31  O   UNL     1       3.919   2.602  -0.336  0.00  0.00    -0.245 OA
BRANCH  30  32
ATOM     32  C   UNL     1       3.001   2.905  -2.462  0.00  0.00    +0.059 A 
ATOM     33  C   UNL     1       1.850   3.139  -3.217  0.00  0.00    +0.015 A 
ATOM     34  C   UNL     1       1.938   3.231  -4.591  0.00  0.00    +0.001 A 
ATOM     35  C   UNL     1       3.160   3.081  -5.221  0.00  0.00    +0.000 A 
ATOM     36  C   UNL     1       4.304   2.843  -4.479  0.00  0.00    +0.001 A 
ATOM     37  C   UNL     1       4.232   2.754  -3.105  0.00  0.00    +0.015 A 
ENDBRANCH  30  32
ENDBRANCH  29  30
ENDBRANCH  16  29
TORSDOF 7
