REMARK  Name = ZINC02208345
REMARK  7 active torsions:
REMARK  status: ('A' for Active; 'I' for Inactive)
REMARK    1  A    between atoms: C_3  and  O_31
REMARK    2  A    between atoms: C_6  and  C_7
REMARK    3  A    between atoms: C_13  and  C_28
REMARK    4  A    between atoms: C_14  and  C_21
REMARK    5  A    between atoms: C_16  and  C_19
REMARK    6  A    between atoms: C_17  and  N_18
REMARK    7  A    between atoms: C_24  and  O_27
REMARK                            x       y       z     vdW  Elec       q    Type
REMARK                         _______ _______ _______ _____ _____    ______ ____
ROOT
ATOM      1  C   UNL     1       2.452   1.093  -0.650  0.00  0.00    +0.028 C 
ATOM      2  C   UNL     1       3.619   1.785  -0.594  0.00  0.00    +0.080 A 
ATOM      3  C   UNL     1       4.998   1.285  -0.571  0.00  0.00    +0.271 A 
ATOM      4  O   UNL     1       5.228   0.091  -0.603  0.00  0.00    -0.266 OA
ATOM      5  N   UNL     1       6.004   2.180  -0.513  0.00  0.00    -0.256 N 
ATOM      6  C   UNL     1       5.669   3.520  -0.479  0.00  0.00    +0.104 A 
ATOM      7  C   UNL     1       6.570   4.533  -0.420  0.00  0.00    +0.072 C 
ATOM      8  C   UNL     1       8.045   4.183  -0.389  0.00  0.00    +0.106 C 
ATOM      9  C   UNL     1       8.371   2.704  -0.427  0.00  0.00    +0.080 C 
ATOM     10  C   UNL     1       7.355   1.815  -0.486  0.00  0.00    +0.119 C 
ATOM     11  S   UNL     1       3.889   3.549  -0.536  0.00  0.00    -0.065 S 
ENDROOT
BRANCH   1  17
ATOM     12  C   UNL     1      -0.022   1.175  -0.876  0.00  0.00    +0.011 A 
ATOM     13  C   UNL     1      -1.218   1.841  -0.731  0.00  0.00    +0.046 A 
ATOM     14  C   UNL     1      -1.242   3.123  -0.192  0.00  0.00    +0.117 A 
ATOM     15  C   UNL     1      -0.059   3.744   0.190  0.00  0.00    +0.046 A 
ATOM     16  C   UNL     1       1.143   3.089   0.044  0.00  0.00    +0.011 A 
ATOM     17  C   UNL     1       1.173   1.796  -0.492  0.00  0.00    -0.024 A 
BRANCH  14  18
ATOM     18  O   UNL     1      -2.425   3.773  -0.045  0.00  0.00    -0.507 OA
ATOM     19  H   UNL     1      -2.683   4.299  -0.815  0.00  0.00    +0.292 HD
ENDBRANCH  14  18
ENDBRANCH   1  17
BRANCH   8  20
ATOM     20  C   UNL     1       8.640   4.765   0.868  0.00  0.00    -0.034 A 
ATOM     21  C   UNL     1       8.244   4.288   2.104  0.00  0.00    +0.008 A 
ATOM     22  C   UNL     1       8.793   4.816   3.257  0.00  0.00    +0.046 A 
ATOM     23  C   UNL     1       9.733   5.832   3.174  0.00  0.00    +0.117 A 
ATOM     24  C   UNL     1      10.124   6.313   1.933  0.00  0.00    +0.046 A 
ATOM     25  C   UNL     1       9.578   5.778   0.783  0.00  0.00    +0.008 A 
BRANCH  23  26
ATOM     26  O   UNL     1      10.269   6.357   4.307  0.00  0.00    -0.507 OA
ATOM     27  H   UNL     1       9.777   7.110   4.663  0.00  0.00    +0.292 HD
ENDBRANCH  23  26
ENDBRANCH   8  20
BRANCH  10  28
ATOM     28  N   UNL     1       7.666   0.477  -0.520  0.00  0.00    -0.343 N 
ATOM     29  H   UNL     1       7.062  -0.150  -0.948  0.00  0.00    +0.144 HD
ATOM     30  H   UNL     1       8.489   0.160  -0.117  0.00  0.00    +0.144 HD
ENDBRANCH  10  28
BRANCH   9  31
ATOM     31  C   UNL     1       9.731   2.256  -0.401  0.00  0.00    +0.099 C 
ATOM     32  N   UNL     1      10.810   1.901  -0.381  0.00  0.00    -0.191 NA
ENDBRANCH   9  31
BRANCH   7  33
ATOM     33  C   UNL     1       6.139   5.898  -0.388  0.00  0.00    +0.098 C 
ATOM     34  N   UNL     1       5.797   6.981  -0.362  0.00  0.00    -0.191 NA
ENDBRANCH   7  33
TORSDOF 7
