REMARK  Name = ZINC26560277
REMARK  6 active torsions:
REMARK  status: ('A' for Active; 'I' for Inactive)
REMARK    1  A    between atoms: C_1  and  C_2
REMARK    2  A    between atoms: C_10  and  C_11
REMARK    3  A    between atoms: C_11  and  C_12
REMARK    4  A    between atoms: N_14  and  N_15
REMARK    5  A    between atoms: C_16  and  C_18
REMARK    6  A    between atoms: C_19  and  C_27
REMARK                            x       y       z     vdW  Elec       q    Type
REMARK                         _______ _______ _______ _____ _____    ______ ____
ROOT
ATOM      1  C   UNL     1       1.489  -5.643  -1.072  0.00  0.00    +0.234 C 
ATOM      2  O   UNL     1       2.400  -4.972  -0.637  0.00  0.00    -0.274 OA
ATOM      3  N   UNL     1       1.743  -6.649  -1.933  0.00  0.00    -0.234 N 
ATOM      4  H   UNL     1       1.014  -7.186  -2.281  0.00  0.00    +0.173 HD
ENDROOT
BRANCH   3   5
ATOM      5  N   UNL     1       3.061  -6.918  -2.326  0.00  0.00    -0.228 N 
ATOM      6  C   UNL     1       3.315  -7.923  -3.187  0.00  0.00    +0.296 C 
ATOM      7  O   UNL     1       2.401  -8.597  -3.623  0.00  0.00    -0.265 OA
ATOM      8  H   UNL     1       3.790  -6.381  -1.978  0.00  0.00    +0.173 HD
BRANCH   6   9
ATOM      9  C   UNL     1       4.698  -8.206  -3.599  0.00  0.00    +0.195 A 
ATOM     10  C   UNL     1       5.071  -9.186  -4.461  0.00  0.00    +0.008 A 
ATOM     11  C   UNL     1       6.527  -9.095  -4.572  0.00  0.00    +0.024 A 
ATOM     12  C   UNL     1       7.495  -9.805  -5.286  0.00  0.00    +0.012 A 
ATOM     13  C   UNL     1       8.812  -9.460  -5.167  0.00  0.00    +0.001 A 
ATOM     14  C   UNL     1       9.193  -8.410  -4.343  0.00  0.00    +0.004 A 
ATOM     15  C   UNL     1       8.253  -7.697  -3.631  0.00  0.00    +0.047 A 
ATOM     16  C   UNL     1       6.907  -8.029  -3.735  0.00  0.00    +0.136 A 
ATOM     17  O   UNL     1       5.787  -7.526  -3.181  0.00  0.00    -0.450 OA
ATOM     18  C   UNL     1       4.169 -10.168  -5.162  0.00  0.00    +0.048 C 
ENDBRANCH   6   9
ENDBRANCH   3   5
BRANCH   1  19
ATOM     19  C   UNL     1       0.071  -5.354  -0.650  0.00  0.00    +0.136 C 
BRANCH  19  29
ATOM     20  C   UNL     1      -0.018   1.503   0.010  0.00  0.00    +0.044 C 
ATOM     21  C   UNL     1       0.002  -0.004   0.002  0.00  0.00    -0.047 A 
ATOM     22  C   UNL     1       0.006  -0.684  -1.207  0.00  0.00    +0.004 A 
ATOM     23  C   UNL     1       0.024  -2.051  -1.233  0.00  0.00    +0.012 A 
ATOM     24  C   UNL     1       0.039  -2.764  -0.035  0.00  0.00    +0.024 A 
ATOM     25  C   UNL     1       0.036  -2.082   1.192  0.00  0.00    +0.135 A 
ATOM     26  C   UNL     1       0.023  -0.693   1.196  0.00  0.00    +0.050 A 
ATOM     27  O   UNL     1       0.053  -3.012   2.168  0.00  0.00    -0.463 OA
ATOM     28  C   UNL     1       0.068  -4.252   1.648  0.00  0.00    +0.200 A 
ATOM     29  C   UNL     1       0.060  -4.191   0.309  0.00  0.00    +0.007 A 
ENDBRANCH  19  29
ENDBRANCH   1  19
TORSDOF 4
