REMARK  Name = ZINC44784908
REMARK  8 active torsions:
REMARK  status: ('A' for Active; 'I' for Inactive)
REMARK    1  A    between atoms: C_1  and  C_2
REMARK    2  A    between atoms: C_2  and  C_3
REMARK    3  A    between atoms: C_3  and  C_5
REMARK    4  A    between atoms: C_3  and  N_6
REMARK    5  A    between atoms: N_6  and  C_7
REMARK    6  A    between atoms: C_8  and  C_10
REMARK    7  A    between atoms: C_10  and  C_16
REMARK    8  A    between atoms: N_17  and  O_18
REMARK                            x       y       z     vdW  Elec       q    Type
REMARK                         _______ _______ _______ _____ _____    ______ ____
ROOT
ATOM      1  C   UNL     1      -0.224   0.848  -4.407  0.00  0.00    +0.105 C 
ATOM      2  C   UNL     1      -1.440   1.643  -3.924  0.00  0.00    +0.024 C 
ATOM      3  C   UNL     1      -0.969   2.911  -3.210  0.00  0.00    +0.001 C 
ATOM      4  C   UNL     1      -0.151   3.768  -4.179  0.00  0.00    +0.000 C 
ATOM      5  C   UNL     1       1.064   2.974  -4.661  0.00  0.00    +0.001 C 
ATOM      6  C   UNL     1       0.594   1.705  -5.375  0.00  0.00    +0.024 C 
ENDROOT
BRANCH   1   7
ATOM      7  C   UNL     1      -0.688  -0.401  -5.110  0.00  0.00    +0.147 C 
ATOM      8  N   UNL     1      -0.477  -0.546  -6.376  0.00  0.00    -0.076 NA
ATOM      9  N   UNL     1      -1.336  -1.389  -4.403  0.00  0.00    -0.343 N 
ATOM     10  H   UNL     1      -1.561  -1.250  -3.470  0.00  0.00    +0.144 HD
ATOM     11  H   UNL     1      -1.567  -2.225  -4.838  0.00  0.00    +0.144 HD
BRANCH   8  12
ATOM     12  O   UNL     1      -0.913  -1.720  -7.037  0.00  0.00    -0.408 OA
ATOM     13  H   UNL     1      -0.711  -1.737  -7.983  0.00  0.00    +0.328 HD
ENDBRANCH   8  12
ENDBRANCH   1   7
BRANCH   1  16
ATOM     14  N   UNL     1       1.577  -0.480  -3.353  0.00  0.00    -0.301 N 
ATOM     15  C   UNL     1       1.859  -1.059  -4.669  0.00  0.00    +0.132 C 
ATOM     16  C   UNL     1       0.631   0.471  -3.224  0.00  0.00    +0.229 C 
ATOM     17  O   UNL     1       0.468   1.024  -2.157  0.00  0.00    -0.275 OA
BRANCH  14  18
ATOM     18  C   UNL     1       2.323  -0.934  -2.177  0.00  0.00    +0.072 C 
ATOM     19  C   UNL     1       3.815  -0.668  -2.386  0.00  0.00    +0.028 C 
BRANCH  18  21
ATOM     20  C   UNL     1       0.624  -2.687  -1.645  0.00  0.00    +0.005 C 
ATOM     21  C   UNL     1       2.096  -2.434  -1.977  0.00  0.00    +0.019 C 
ENDBRANCH  18  21
ENDBRANCH  14  18
ENDBRANCH   1  16
TORSDOF 5
