REMARK  Name = ZINC21875464
REMARK  4 active torsions:
REMARK  status: ('A' for Active; 'I' for Inactive)
REMARK    1  A    between atoms: C_1  and  C_2
REMARK    2  A    between atoms: C_7  and  C_8
REMARK    3  A    between atoms: N_10  and  C_11
REMARK    4  A    between atoms: C_17  and  C_19
REMARK                            x       y       z     vdW  Elec       q    Type
REMARK                         _______ _______ _______ _____ _____    ______ ____
ROOT
ATOM      1  C   UNL     1      -4.048   2.884   0.050  0.00  0.00    +0.047 C 
ATOM      2  C   UNL     1      -3.703   1.417   0.033  0.00  0.00    -0.010 A 
ATOM      3  C   UNL     1      -4.605   0.346   0.025  0.00  0.00    +0.042 A 
ATOM      4  C   UNL     1      -3.861  -0.834   0.018  0.00  0.00    +0.027 A 
ATOM      5  N   UNL     1      -2.569  -0.504   0.012  0.00  0.00    -0.354 N 
ATOM      6  H   UNL     1      -1.800  -1.291   0.004  0.00  0.00    +0.166 HD
ATOM      7  C   UNL     1      -2.449   0.872   0.018  0.00  0.00    +0.106 A 
ATOM      8  C   UNL     1      -4.495  -2.202   0.020  0.00  0.00    +0.054 C 
ATOM      9  C   UNL     1      -5.933  -2.090   0.535  0.00  0.00    +0.014 C 
ATOM     10  C   UNL     1      -6.708  -1.026  -0.249  0.00  0.00    +0.080 C 
ATOM     11  C   UNL     1      -6.075   0.330   0.028  0.00  0.00    +0.165 C 
ATOM     12  O   UNL     1      -6.737   1.326   0.237  0.00  0.00    -0.292 OA
ENDROOT
BRANCH   7  13
ATOM     13  C   UNL     1      -1.187   1.624   0.017  0.00  0.00    +0.261 C 
ATOM     14  O   UNL     1      -1.204   2.840   0.023  0.00  0.00    -0.269 OA
ATOM     15  N   UNL     1      -0.011   0.966   0.007  0.00  0.00    -0.307 N 
ATOM     16  H   UNL     1       0.004  -0.134   0.006  0.00  0.00    +0.149 HD
BRANCH  15  17
ATOM     17  C   UNL     1       1.248   1.716  -0.001  0.00  0.00    +0.076 C 
ATOM     18  C   UNL     1       1.608   2.092  -1.439  0.00  0.00    +0.022 C 
ATOM     19  C   UNL     1       1.766   0.821  -2.275  0.00  0.00    +0.002 C 
ATOM     20  C   UNL     1       2.879  -0.045  -1.681  0.00  0.00    +0.000 C 
ATOM     21  C   UNL     1       2.519  -0.422  -0.242  0.00  0.00    +0.005 C 
ATOM     22  C   UNL     1       2.361   0.850   0.594  0.00  0.00    +0.006 C 
ATOM     23  C   UNL     1       2.000   0.473   2.032  0.00  0.00    +0.009 C 
ENDBRANCH  15  17
ENDBRANCH   7  13
TORSDOF 2
