REMARK  Name = ZINC02093672
REMARK  12 active torsions:
REMARK  status: ('A' for Active; 'I' for Inactive)
REMARK    1  A    between atoms: C_1  and  C_2
REMARK    2  A    between atoms: C_2  and  N_71
REMARK    3  A    between atoms: C_3  and  C_4
REMARK    4  A    between atoms: C_3  and  N_71
REMARK    5  A    between atoms: C_5  and  C_6
REMARK    6  A    between atoms: C_5  and  N_71
REMARK    7  A    between atoms: C_6  and  C_7
REMARK    8  A    between atoms: C_7  and  N_8
REMARK    9  A    between atoms: C_28  and  C_30
REMARK   10  A    between atoms: C_33  and  C_36
REMARK   11  A    between atoms: C_36  and  O_38
REMARK   12  A    between atoms: O_38  and  C_39
REMARK                            x       y       z     vdW  Elec       q    Type
REMARK                         _______ _______ _______ _____ _____    ______ ____
ROOT
ATOM      1  N   UNL     1      -2.069   5.421   0.220  0.00  0.00    -0.291 N 
ATOM      2  C   UNL     1      -0.689   5.309   0.662  0.00  0.00    +0.203 C 
ATOM      3  C   UNL     1       0.015   4.159   0.019  0.00  0.00    +0.234 C 
ATOM      4  O   UNL     1       1.183   3.984   0.296  0.00  0.00    -0.274 OA
ATOM      5  N   UNL     1      -0.555   3.311  -0.839  0.00  0.00    -0.276 N 
ATOM      6  C   UNL     1      -1.972   3.363  -1.193  0.00  0.00    +0.167 C 
ATOM      7  C   UNL     1      -2.653   4.559  -0.610  0.00  0.00    +0.237 C 
ATOM      8  O   UNL     1      -3.811   4.758  -0.912  0.00  0.00    -0.274 OA
ATOM      9  C   UNL     1      -2.664   2.085  -0.698  0.00  0.00    +0.069 C 
ATOM     10  C   UNL     1      -1.807   0.897  -1.057  0.00  0.00    -0.015 A 
ATOM     11  C   UNL     1      -2.185  -0.500  -1.107  0.00  0.00    +0.003 A 
ATOM     12  C   UNL     1      -3.391  -1.165  -0.864  0.00  0.00    +0.010 A 
ATOM     13  C   UNL     1      -3.386  -2.531  -1.009  0.00  0.00    +0.001 A 
ATOM     14  C   UNL     1      -2.248  -3.228  -1.379  0.00  0.00    +0.002 A 
ATOM     15  C   UNL     1      -1.042  -2.595  -1.627  0.00  0.00    +0.026 A 
ATOM     16  C   UNL     1      -1.016  -1.209  -1.487  0.00  0.00    +0.047 A 
ATOM     17  N   UNL     1      -0.020  -0.290  -1.652  0.00  0.00    -0.356 N 
ATOM     18  H   UNL     1       0.891  -0.496  -1.912  0.00  0.00    +0.166 HD
ATOM     19  C   UNL     1      -0.501   0.966  -1.394  0.00  0.00    +0.046 A 
ATOM     20  C   UNL     1       0.275   2.261  -1.467  0.00  0.00    +0.154 C 
ENDROOT
BRANCH  20  21
ATOM     21  C   UNL     1       0.546   2.615  -2.907  0.00  0.00    -0.021 A 
ATOM     22  C   UNL     1       1.431   1.853  -3.649  0.00  0.00    +0.006 A 
ATOM     23  C   UNL     1       1.679   2.168  -4.969  0.00  0.00    +0.015 A 
ATOM     24  C   UNL     1       1.043   3.266  -5.552  0.00  0.00    +0.059 A 
ATOM     25  C   UNL     1       0.155   4.034  -4.796  0.00  0.00    +0.015 A 
ATOM     26  C   UNL     1      -0.088   3.704  -3.479  0.00  0.00    +0.006 A 
BRANCH  24  27
ATOM     27  C   UNL     1       1.308   3.613  -6.963  0.00  0.00    +0.339 C 
ATOM     28  O   UNL     1       0.753   4.568  -7.468  0.00  0.00    -0.245 OA
BRANCH  27  29
ATOM     29  O   UNL     1       2.165   2.870  -7.690  0.00  0.00    -0.464 OA
ATOM     30  C   UNL     1       2.377   3.270  -9.070  0.00  0.00    +0.280 C 
ENDBRANCH  27  29
ENDBRANCH  24  27
ENDBRANCH  20  21
BRANCH   1  31
ATOM     31  C   UNL     1      -2.863   6.548   0.717  0.00  0.00    +0.106 C 
BRANCH  31  32
ATOM     32  C   UNL     1      -2.715   7.736  -0.236  0.00  0.00    +0.000 C 
BRANCH  32  33
ATOM     33  C   UNL     1      -3.544   8.912   0.282  0.00  0.00    -0.077 C 
BRANCH  33  34
ATOM     34  N   UNL     1      -3.374  10.057  -0.637  0.00  0.00    +0.379 N 
ATOM     35  H   UNL     1      -2.370  10.225  -0.778  0.00  0.00    -0.082 HD
BRANCH  34  37
ATOM     36  C   UNL     1      -5.474   9.396  -1.761  0.00  0.00    -0.017 C 
ATOM     37  C   UNL     1      -3.998   9.755  -1.942  0.00  0.00    -0.082 C 
ENDBRANCH  34  37
BRANCH  34  38
ATOM     38  C   UNL     1      -3.986  11.269  -0.053  0.00  0.00    -0.082 C 
ATOM     39  C   UNL     1      -3.532  12.488  -0.859  0.00  0.00    -0.017 C 
ENDBRANCH  34  38
ENDBRANCH  33  34
ENDBRANCH  32  33
ENDBRANCH  31  32
ENDBRANCH   1  31
TORSDOF 9
