REMARK  Name = ZINC51998795
REMARK  8 active torsions:
REMARK  status: ('A' for Active; 'I' for Inactive)
REMARK    1  A    between atoms: C_1  and  C_2
REMARK    2  A    between atoms: C_2  and  C_3
REMARK    3  A    between atoms: C_2  and  O_4
REMARK    4  A    between atoms: O_4  and  C_5
REMARK    5  A    between atoms: C_6  and  N_21
REMARK    6  A    between atoms: C_9  and  N_11
REMARK    7  A    between atoms: N_11  and  C_12
REMARK    8  A    between atoms: C_18  and  O_20
REMARK                            x       y       z     vdW  Elec       q    Type
REMARK                         _______ _______ _______ _____ _____    ______ ____
ROOT
ATOM      1  C   UNL     1      -1.928  -0.706  -1.193  0.00  0.00    +0.238 A 
ATOM      2  C   UNL     1      -3.237  -1.181  -1.248  0.00  0.00    +0.087 A 
ATOM      3  C   UNL     1      -3.830  -1.389  -2.488  0.00  0.00    +0.031 A 
ATOM      4  C   UNL     1      -3.093  -1.113  -3.629  0.00  0.00    +0.045 A 
ATOM      5  C   UNL     1      -1.793  -0.640  -3.500  0.00  0.00    +0.123 A 
ATOM      6  N   UNL     1      -1.257  -0.448  -2.303  0.00  0.00    -0.197 NA
ENDROOT
BRANCH   2   7
ATOM      7  N   UNL     1      -3.946  -1.448  -0.067  0.00  0.00    -0.354 N 
ATOM      8  H   UNL     1      -3.526  -1.302   0.794  0.00  0.00    +0.142 HD
ATOM      9  H   UNL     1      -4.857  -1.780  -0.113  0.00  0.00    +0.142 HD
ENDBRANCH   2   7
BRANCH   5  10
ATOM     10  N   UNL     1      -1.046  -0.361  -4.642  0.00  0.00    -0.324 N 
ATOM     11  H   UNL     1      -0.138  -0.031  -4.558  0.00  0.00    +0.148 HD
BRANCH  10  12
ATOM     12  C   UNL     1      -1.632  -0.566  -5.969  0.00  0.00    +0.100 C 
ATOM     13  C   UNL     1      -1.451  -2.026  -6.386  0.00  0.00    +0.025 C 
ATOM     14  C   UNL     1       0.041  -2.364  -6.430  0.00  0.00    +0.002 C 
ATOM     15  C   UNL     1       0.740  -1.454  -7.442  0.00  0.00    +0.003 C 
ATOM     16  C   UNL     1       0.559   0.007  -7.024  0.00  0.00    +0.033 C 
ATOM     17  C   UNL     1      -0.933   0.344  -6.981  0.00  0.00    +0.135 C 
BRANCH  17  18
ATOM     18  O   UNL     1      -1.101   1.709  -6.591  0.00  0.00    -0.390 OA
ATOM     19  H   UNL     1      -0.683   2.343  -7.188  0.00  0.00    +0.210 HD
ENDBRANCH  17  18
ENDBRANCH  10  12
ENDBRANCH   5  10
BRANCH   1  20
ATOM     20  O   UNL     1      -1.339  -0.499   0.012  0.00  0.00    -0.472 OA
BRANCH  20  22
ATOM     21  C   UNL     1      -0.019   1.526   0.010  0.00  0.00    +0.051 C 
ATOM     22  C   UNL     1       0.002  -0.004   0.002  0.00  0.00    +0.169 C 
ATOM     23  C   UNL     1       0.742  -0.511   1.242  0.00  0.00    +0.051 C 
ENDBRANCH  20  22
ENDBRANCH   1  20
TORSDOF 6
