REMARK  Name = ZINC36543545
REMARK  10 active torsions:
REMARK  status: ('A' for Active; 'I' for Inactive)
REMARK    1  A    between atoms: C_1  and  C_2
REMARK    2  A    between atoms: C_2  and  C_3
REMARK    3  A    between atoms: C_2  and  C_4
REMARK    4  A    between atoms: C_2  and  N_5
REMARK    5  A    between atoms: C_6  and  C_8
REMARK    6  A    between atoms: C_8  and  C_10
REMARK    7  A    between atoms: C_8  and  N_15
REMARK    8  A    between atoms: N_15  and  C_16
REMARK    9  A    between atoms: C_23  and  C_25
REMARK   10  A    between atoms: C_30  and  O_31
REMARK                            x       y       z     vdW  Elec       q    Type
REMARK                         _______ _______ _______ _____ _____    ______ ____
ROOT
ATOM      1  N   UNL     1       3.985   0.019  -2.709  0.00  0.00    -0.247 N 
ATOM      2  C   UNL     1       4.295   0.850  -3.724  0.00  0.00    +0.255 C 
ATOM      3  O   UNL     1       3.511   1.012  -4.639  0.00  0.00    -0.269 OA
ENDROOT
BRANCH   1   4
ATOM      4  C   UNL     1       4.929  -0.249  -1.711  0.00  0.00    +0.056 A 
ATOM      5  C   UNL     1       4.936   0.499  -0.541  0.00  0.00    +0.025 A 
ATOM      6  C   UNL     1       5.868   0.232   0.442  0.00  0.00    +0.002 A 
ATOM      7  C   UNL     1       6.795  -0.779   0.263  0.00  0.00    +0.002 A 
ATOM      8  C   UNL     1       6.791  -1.526  -0.901  0.00  0.00    +0.022 A 
ATOM      9  C   UNL     1       5.857  -1.268  -1.886  0.00  0.00    +0.062 A 
ATOM     10 CL   UNL     1       5.848  -2.211  -3.344  0.00  0.00    -0.082 Cl
ENDBRANCH   1   4
BRANCH   2  11
ATOM     11  C   UNL     1       5.586   1.564  -3.725  0.00  0.00    +0.079 A 
ATOM     12  C   UNL     1       5.975   2.315  -2.613  0.00  0.00    +0.017 A 
ATOM     13  C   UNL     1       7.182   2.979  -2.620  0.00  0.00    +0.001 A 
ATOM     14  C   UNL     1       8.014   2.905  -3.726  0.00  0.00    +0.004 A 
ATOM     15  C   UNL     1       7.642   2.166  -4.831  0.00  0.00    +0.046 A 
ATOM     16  C   UNL     1       6.433   1.487  -4.839  0.00  0.00    +0.129 A 
BRANCH  16  17
ATOM     17  O   UNL     1       6.069   0.756  -5.922  0.00  0.00    -0.506 OA
ATOM     18  H   UNL     1       5.571   1.255  -6.584  0.00  0.00    +0.292 HD
ENDBRANCH  16  17
ENDBRANCH   2  11
BRANCH   1  19
ATOM     19  C   UNL     1       2.660  -0.603  -2.651  0.00  0.00    +0.233 C 
BRANCH  19  20
ATOM     20  C   UNL     1       2.812  -2.095  -2.499  0.00  0.00    +0.135 A 
ATOM     21  C   UNL     1       2.066  -3.028  -3.116  0.00  0.00    +0.047 A 
ATOM     22  C   UNL     1       2.548  -4.287  -2.689  0.00  0.00    +0.041 A 
ATOM     23  C   UNL     1       3.560  -4.047  -1.836  0.00  0.00    +0.195 A 
ATOM     24  O   UNL     1       3.720  -2.717  -1.729  0.00  0.00    -0.465 OA
ENDBRANCH  19  20
BRANCH  19  26
ATOM     25  N   UNL     1       0.614  -0.410  -1.274  0.00  0.00    -0.309 N 
ATOM     26  C   UNL     1       1.899  -0.053  -1.472  0.00  0.00    +0.242 C 
ATOM     27  O   UNL     1       2.442   0.710  -0.702  0.00  0.00    -0.273 OA
ATOM     28  H   UNL     1       0.180  -1.020  -1.891  0.00  0.00    +0.149 HD
BRANCH  25  30
ATOM     29  C   UNL     1      -0.176   1.651  -0.221  0.00  0.00    +0.031 C 
ATOM     30  C   UNL     1      -0.127   0.125  -0.129  0.00  0.00    +0.026 C 
ATOM     31  C   UNL     1       0.575  -0.285   1.168  0.00  0.00    +0.031 C 
ATOM     32  C   UNL     1      -1.551  -0.434  -0.137  0.00  0.00    +0.031 C 
ENDBRANCH  25  30
ENDBRANCH  19  26
ENDBRANCH   1  19
TORSDOF 7
