REMARK  Name = ZINC39652744
REMARK  10 active torsions:
REMARK  status: ('A' for Active; 'I' for Inactive)
REMARK    1  A    between atoms: C_1  and  C_2
REMARK    2  A    between atoms: C_2  and  O_3
REMARK    3  A    between atoms: O_3  and  C_4
REMARK    4  A    between atoms: C_9  and  C_10
REMARK    5  A    between atoms: C_10  and  C_11
REMARK    6  A    between atoms: C_11  and  N_12
REMARK    7  A    between atoms: C_13  and  C_15
REMARK    8  A    between atoms: C_26  and  C_28
REMARK    9  A    between atoms: C_32  and  O_33
REMARK   10  A    between atoms: O_33  and  C_34
REMARK                            x       y       z     vdW  Elec       q    Type
REMARK                         _______ _______ _______ _____ _____    ______ ____
ROOT
ATOM      1  C   UNL     1      -7.203   1.160  -2.525  0.00  0.00    +0.100 C 
ATOM      2  C   UNL     1      -8.462   0.373  -2.096  0.00  0.00    +0.121 C 
ATOM      3  N   UNL     1      -9.554   0.932  -2.926  0.00  0.00    -0.296 N 
ATOM      4  C   UNL     1      -8.934   1.144  -4.256  0.00  0.00    +0.115 C 
ATOM      5  C   UNL     1      -7.517   1.663  -3.944  0.00  0.00    -0.004 C 
ATOM      6  C   UNL     1      -7.494   3.188  -3.980  0.00  0.00    -0.010 C 
ATOM      7  C   UNL     1      -7.752   3.664  -5.413  0.00  0.00    -0.082 C 
ATOM      8  N   UNL     1      -6.723   3.117  -6.305  0.00  0.00    +0.379 N 
ATOM      9  C   UNL     1      -6.813   1.652  -6.335  0.00  0.00    -0.082 C 
ATOM     10  C   UNL     1      -6.514   1.092  -4.942  0.00  0.00    -0.010 C 
ATOM     11  C   UNL     1     -10.824   1.190  -2.557  0.00  0.00    +0.251 C 
ATOM     12  O   UNL     1     -11.159   1.054  -1.395  0.00  0.00    -0.270 OA
ATOM     13  H   UNL     1      -6.860   3.481  -7.237  0.00  0.00    -0.086 HD
ATOM     14  H   UNL     1      -5.811   3.390  -5.971  0.00  0.00    -0.086 HD
ENDROOT
BRANCH  11  15
ATOM     15  C   UNL     1     -11.805   1.637  -3.557  0.00  0.00    +0.087 A 
ATOM     16  C   UNL     1     -11.773   1.175  -4.855  0.00  0.00    +0.063 A 
ATOM     17  S   UNL     1     -13.060   1.951  -5.602  0.00  0.00    -0.081 S 
ATOM     18  C   UNL     1     -13.684   2.907  -4.237  0.00  0.00    +0.120 A 
ATOM     19  C   UNL     1     -12.852   2.575  -3.224  0.00  0.00    +0.158 A 
ATOM     20 CL   UNL     1     -15.037   3.995  -4.211  0.00  0.00    -0.072 Cl
BRANCH  19  21
ATOM     21  O   UNL     1     -12.989   3.095  -1.973  0.00  0.00    -0.492 OA
ATOM     22  C   UNL     1     -12.289   4.310  -1.695  0.00  0.00    +0.277 C 
ENDBRANCH  19  21
ENDBRANCH  11  15
BRANCH   1  24
ATOM     23  N   UNL     1      -4.760   0.778  -2.477  0.00  0.00    -0.315 N 
ATOM     24  C   UNL     1      -5.999   0.253  -2.545  0.00  0.00    +0.218 C 
ATOM     25  O   UNL     1      -6.146  -0.948  -2.620  0.00  0.00    -0.275 OA
ATOM     26  H   UNL     1      -4.642   1.738  -2.417  0.00  0.00    +0.149 HD
BRANCH  23  27
ATOM     27  C   UNL     1      -3.589  -0.104  -2.496  0.00  0.00    +0.109 C 
BRANCH  27  28
ATOM     28  C   UNL     1      -2.315   0.739  -2.409  0.00  0.00    +0.057 C 
BRANCH  28  34
ATOM     29  C   UNL     1      -0.585  -0.598  -3.638  0.00  0.00    +0.124 A 
ATOM     30  C   UNL     1       0.526  -1.428  -3.653  0.00  0.00    +0.046 A 
ATOM     31  C   UNL     1       1.103  -1.829  -2.463  0.00  0.00    +0.004 A 
ATOM     32  C   UNL     1       0.573  -1.403  -1.259  0.00  0.00    +0.000 A 
ATOM     33  C   UNL     1      -0.534  -0.576  -1.242  0.00  0.00    +0.007 A 
ATOM     34  C   UNL     1      -1.111  -0.168  -2.429  0.00  0.00    -0.004 A 
BRANCH  29  35
ATOM     35  O   UNL     1      -1.154  -0.201  -4.807  0.00  0.00    -0.492 OA
BRANCH  35  37
ATOM     36  C   UNL     1      -1.331  -0.135  -7.216  0.00  0.00    +0.048 C 
ATOM     37  C   UNL     1      -0.560  -0.682  -6.014  0.00  0.00    +0.225 C 
ENDBRANCH  35  37
ENDBRANCH  29  35
ENDBRANCH  28  34
ENDBRANCH  27  28
ENDBRANCH  23  27
ENDBRANCH   1  24
TORSDOF 8
