REMARK  Name = ZINC08960826
REMARK  6 active torsions:
REMARK  status: ('A' for Active; 'I' for Inactive)
REMARK    1  A    between atoms: C_1  and  C_2
REMARK    2  A    between atoms: C_2  and  O_3
REMARK    3  A    between atoms: O_3  and  C_4
REMARK    4  A    between atoms: C_11  and  C_13
REMARK    5  A    between atoms: N_15  and  C_16
REMARK    6  A    between atoms: C_17  and  C_26
REMARK                            x       y       z     vdW  Elec       q    Type
REMARK                         _______ _______ _______ _____ _____    ______ ____
ROOT
ATOM      1  C   UNL     1       1.147   1.655   0.000  0.00  0.00    +0.284 C 
ATOM      2  O   UNL     1       1.130   2.872   0.007  0.00  0.00    -0.266 OA
ATOM      3  N   UNL     1      -0.011   0.966   0.007  0.00  0.00    -0.273 N 
ATOM      4  H   UNL     1       0.002  -0.004   0.002  0.00  0.00    +0.156 HD
ENDROOT
BRANCH   3   5
ATOM      5  C   UNL     1      -1.220   1.642   0.017  0.00  0.00    +0.085 A 
ATOM      6  C   UNL     1      -2.502   1.115   0.014  0.00  0.00    +0.068 A 
ATOM      7  C   UNL     1      -3.619   2.050   0.033  0.00  0.00    -0.023 A 
ATOM      8  C   UNL     1      -3.269   3.354   0.034  0.00  0.00    -0.004 A 
ATOM      9  S   UNL     1      -1.497   3.351   0.027  0.00  0.00    -0.077 S 
ATOM     10  C   UNL     1      -4.176   4.545   0.026  0.00  0.00    +0.043 C 
ATOM     11  C   UNL     1      -5.250   4.370   1.109  0.00  0.00    +0.005 C 
ATOM     12  C   UNL     1      -6.441   3.643   0.493  0.00  0.00    +0.001 C 
ATOM     13  C   UNL     1      -5.963   2.659  -0.573  0.00  0.00    +0.005 C 
ATOM     14  C   UNL     1      -5.072   1.591   0.051  0.00  0.00    +0.037 C 
BRANCH   6  15
ATOM     15  C   UNL     1      -2.727  -0.334  -0.003  0.00  0.00    +0.244 C 
ATOM     16  O   UNL     1      -2.817  -0.948   1.044  0.00  0.00    -0.270 OA
ATOM     17  N   UNL     1      -2.833  -0.985  -1.178  0.00  0.00    -0.325 N 
ATOM     18  H   UNL     1      -2.761  -0.495  -2.012  0.00  0.00    +0.145 HD
ATOM     19  H   UNL     1      -2.981  -1.944  -1.190  0.00  0.00    +0.145 HD
ENDBRANCH   6  15
ENDBRANCH   3   5
BRANCH   1  27
ATOM     20  C   UNL     1       4.532  -1.978  -0.050  0.00  0.00    +0.163 A 
ATOM     21  C   UNL     1       5.914  -2.013  -0.064  0.00  0.00    +0.049 A 
ATOM     22  C   UNL     1       6.652  -0.838  -0.065  0.00  0.00    +0.004 A 
ATOM     23  C   UNL     1       6.024   0.375  -0.052  0.00  0.00    +0.012 A 
ATOM     24  C   UNL     1       4.627   0.435  -0.039  0.00  0.00    +0.025 A 
ATOM     25  C   UNL     1       3.870  -0.751  -0.038  0.00  0.00    +0.177 A 
ATOM     26  O   UNL     1       2.568  -0.404  -0.019  0.00  0.00    -0.447 OA
ATOM     27  C   UNL     1       2.429   0.938  -0.016  0.00  0.00    +0.191 A 
ATOM     28  C   UNL     1       3.654   1.526  -0.025  0.00  0.00    +0.063 A 
BRANCH  20  29
ATOM     29  O   UNL     1       3.820  -3.137  -0.050  0.00  0.00    -0.489 OA
BRANCH  29  31
ATOM     30  C   UNL     1       3.601  -5.543  -0.060  0.00  0.00    +0.048 C 
ATOM     31  C   UNL     1       4.565  -4.356  -0.063  0.00  0.00    +0.226 C 
ENDBRANCH  29  31
ENDBRANCH  20  29
ENDBRANCH   1  27
TORSDOF 5
