REMARK  Name = ZINC39639245
REMARK  6 active torsions:
REMARK  status: ('A' for Active; 'I' for Inactive)
REMARK    1  A    between atoms: C_1  and  C_2
REMARK    2  A    between atoms: C_5  and  C_8
REMARK    3  A    between atoms: C_8  and  C_10
REMARK    4  A    between atoms: C_8  and  N_11
REMARK    5  A    between atoms: C_12  and  C_14
REMARK    6  A    between atoms: C_25  and  C_27
REMARK                            x       y       z     vdW  Elec       q    Type
REMARK                         _______ _______ _______ _____ _____    ______ ____
ROOT
ATOM      1  C   UNL     1       2.551  -6.328   1.754  0.00  0.00    +0.100 C 
ATOM      2  C   UNL     1       3.881  -5.549   1.865  0.00  0.00    +0.121 C 
ATOM      3  N   UNL     1       4.883  -6.570   2.251  0.00  0.00    -0.296 N 
ATOM      4  C   UNL     1       4.510  -7.769   1.462  0.00  0.00    +0.115 C 
ATOM      5  C   UNL     1       2.969  -7.785   1.489  0.00  0.00    -0.004 C 
ATOM      6  C   UNL     1       2.470  -8.690   2.611  0.00  0.00    -0.010 C 
ATOM      7  C   UNL     1       2.848 -10.140   2.297  0.00  0.00    -0.082 C 
ATOM      8  N   UNL     1       2.248 -10.538   1.018  0.00  0.00    +0.379 N 
ATOM      9  C   UNL     1       2.803  -9.723  -0.070  0.00  0.00    -0.082 C 
ATOM     10  C   UNL     1       2.424  -8.255   0.144  0.00  0.00    -0.010 C 
ATOM     11  C   UNL     1       5.903  -6.439   3.123  0.00  0.00    +0.247 C 
ATOM     12  O   UNL     1       6.698  -7.346   3.269  0.00  0.00    -0.270 OA
ATOM     13  H   UNL     1       2.448 -11.511   0.842  0.00  0.00    -0.086 HD
ATOM     14  H   UNL     1       1.249 -10.404   1.060  0.00  0.00    -0.086 HD
ENDROOT
BRANCH  11  15
ATOM     15  C   UNL     1       6.054  -5.192   3.900  0.00  0.00    +0.045 A 
ATOM     16  C   UNL     1       6.023  -3.951   3.252  0.00  0.00    +0.014 A 
ATOM     17  C   UNL     1       6.163  -2.787   3.975  0.00  0.00    +0.001 A 
ATOM     18  C   UNL     1       6.337  -2.830   5.350  0.00  0.00    +0.012 A 
ATOM     19  C   UNL     1       6.370  -4.051   6.013  0.00  0.00    +0.031 A 
ATOM     20  C   UNL     1       6.223  -5.245   5.290  0.00  0.00    +0.006 A 
ATOM     21  C   UNL     1       6.290  -6.387   6.236  0.00  0.00    -0.006 A 
ATOM     22  C   UNL     1       6.205  -7.759   6.041  0.00  0.00    +0.009 A 
ATOM     23  C   UNL     1       6.301  -8.621   7.123  0.00  0.00    +0.001 A 
ATOM     24  C   UNL     1       6.480  -8.124   8.399  0.00  0.00    +0.001 A 
ATOM     25  C   UNL     1       6.566  -6.757   8.611  0.00  0.00    +0.012 A 
ATOM     26  C   UNL     1       6.472  -5.883   7.535  0.00  0.00    +0.030 A 
ATOM     27  C   UNL     1       6.539  -4.404   7.442  0.00  0.00    +0.194 C 
ATOM     28  O   UNL     1       6.689  -3.629   8.365  0.00  0.00    -0.287 OA
ENDBRANCH  11  15
BRANCH   1  30
ATOM     29  N   UNL     1       0.396  -5.999   0.587  0.00  0.00    -0.308 N 
ATOM     30  C   UNL     1       1.729  -5.802   0.607  0.00  0.00    +0.219 C 
ATOM     31  O   UNL     1       2.266  -5.200  -0.299  0.00  0.00    -0.275 OA
ATOM     32  H   UNL     1      -0.034  -6.480   1.312  0.00  0.00    +0.149 HD
BRANCH  29  33
ATOM     33  C   UNL     1      -0.405  -5.486  -0.528  0.00  0.00    +0.100 C 
ATOM     34  C   UNL     1      -0.386  -6.498  -1.676  0.00  0.00    +0.033 C 
BRANCH  33  39
ATOM     35  C   UNL     1      -5.850  -4.664   1.223  0.00  0.00    +0.044 C 
ATOM     36  C   UNL     1      -4.430  -4.878   0.766  0.00  0.00    -0.050 A 
ATOM     37  C   UNL     1      -3.829  -3.962  -0.076  0.00  0.00    +0.004 A 
ATOM     38  C   UNL     1      -2.526  -4.158  -0.495  0.00  0.00    +0.006 A 
ATOM     39  C   UNL     1      -1.824  -5.271  -0.071  0.00  0.00    -0.027 A 
ATOM     40  C   UNL     1      -2.425  -6.188   0.772  0.00  0.00    +0.006 A 
ATOM     41  C   UNL     1      -3.726  -5.989   1.194  0.00  0.00    +0.004 A 
ENDBRANCH  33  39
ENDBRANCH  29  33
ENDBRANCH   1  30
TORSDOF 4
