REMARK  Name = ZINC02200417
REMARK  8 active torsions:
REMARK  status: ('A' for Active; 'I' for Inactive)
REMARK    1  A    between atoms: C_1  and  C_2
REMARK    2  A    between atoms: C_9  and  N_27
REMARK    3  A    between atoms: C_10  and  C_13
REMARK    4  A    between atoms: C_14  and  C_15
REMARK    5  A    between atoms: C_14  and  C_17
REMARK    6  A    between atoms: N_19  and  C_20
REMARK    7  A    between atoms: C_20  and  C_21
REMARK    8  A    between atoms: N_30  and  C_33
REMARK                            x       y       z     vdW  Elec       q    Type
REMARK                         _______ _______ _______ _____ _____    ______ ____
ROOT
ATOM      1  C   UNL     1       1.888   5.988  -0.803  0.00  0.00    +0.047 C 
ATOM      2  C   UNL     1       2.048   4.548  -0.388  0.00  0.00    -0.007 A 
ATOM      3  C   UNL     1       3.285   4.052  -0.096  0.00  0.00    +0.008 A 
ATOM      4  C   UNL     1       3.418   2.711   0.289  0.00  0.00    +0.019 A 
ATOM      5  C   UNL     1       2.326   1.917   0.367  0.00  0.00    +0.096 A 
ATOM      6  N   UNL     1       1.086   2.404   0.078  0.00  0.00    -0.267 N 
ATOM      7  C   UNL     1       0.925   3.708  -0.299  0.00  0.00    +0.145 A 
ATOM      8  N   UNL     1      -0.280   4.204  -0.587  0.00  0.00    -0.213 NA
ATOM      9  C   UNL     1      -1.373   3.460  -0.521  0.00  0.00    +0.136 A 
ATOM     10  C   UNL     1      -1.268   2.097  -0.140  0.00  0.00    +0.081 A 
ATOM     11  C   UNL     1       0.018   1.583   0.168  0.00  0.00    +0.267 A 
ATOM     12  O   UNL     1       0.156   0.420   0.504  0.00  0.00    -0.267 OA
ENDROOT
BRANCH   9  13
ATOM     13  N   UNL     1      -2.600   4.003  -0.825  0.00  0.00    -0.312 N 
ATOM     14  C   UNL     1      -3.179   3.365  -2.015  0.00  0.00    +0.125 C 
ATOM     15  C   UNL     1      -4.574   3.939  -2.272  0.00  0.00    +0.124 C 
ATOM     16  N   UNL     1      -4.476   5.395  -2.453  0.00  0.00    -0.327 N 
ATOM     17  C   UNL     1      -3.897   6.033  -1.262  0.00  0.00    +0.124 C 
ATOM     18  C   UNL     1      -2.502   5.458  -1.006  0.00  0.00    +0.125 C 
BRANCH  16  19
ATOM     19  C   UNL     1      -5.722   5.946  -2.761  0.00  0.00    +0.030 A 
ATOM     20  C   UNL     1      -6.250   6.958  -1.969  0.00  0.00    +0.023 A 
ATOM     21  C   UNL     1      -7.480   7.504  -2.279  0.00  0.00    +0.002 A 
ATOM     22  C   UNL     1      -8.190   7.037  -3.370  0.00  0.00    +0.000 A 
ATOM     23  C   UNL     1      -7.670   6.026  -4.157  0.00  0.00    +0.002 A 
ATOM     24  C   UNL     1      -6.438   5.479  -3.856  0.00  0.00    +0.023 A 
ENDBRANCH  16  19
ENDBRANCH   9  13
BRANCH  10  25
ATOM     25  C   UNL     1      -2.409   1.279  -0.067  0.00  0.00    +0.040 C 
ATOM     26  C   UNL     1      -3.480   1.652   0.734  0.00  0.00    +0.114 C 
BRANCH  26  27
ATOM     27  C   UNL     1      -4.704   0.845   0.744  0.00  0.00    +0.255 C 
ATOM     28  O   UNL     1      -4.781  -0.152   0.050  0.00  0.00    -0.269 OA
ATOM     29  N   UNL     1      -5.744   1.206   1.522  0.00  0.00    -0.307 N 
ATOM     30  H   UNL     1      -5.683   2.001   2.075  0.00  0.00    +0.149 HD
BRANCH  29  31
ATOM     31  C   UNL     1      -6.967   0.399   1.531  0.00  0.00    +0.139 C 
BRANCH  31  32
ATOM     32  C   UNL     1      -7.967   1.015   2.476  0.00  0.00    -0.030 A 
ATOM     33  C   UNL     1      -7.988   0.634   3.805  0.00  0.00    +0.005 A 
ATOM     34  C   UNL     1      -8.902   1.202   4.672  0.00  0.00    +0.000 A 
ATOM     35  C   UNL     1      -9.802   2.143   4.208  0.00  0.00    +0.000 A 
ATOM     36  C   UNL     1      -9.785   2.520   2.878  0.00  0.00    +0.000 A 
ATOM     37  C   UNL     1      -8.867   1.956   2.012  0.00  0.00    +0.005 A 
ENDBRANCH  31  32
ENDBRANCH  29  31
ENDBRANCH  26  27
BRANCH  26  38
ATOM     38  C   UNL     1      -3.390   2.825   1.551  0.00  0.00    +0.104 C 
ATOM     39  N   UNL     1      -3.318   3.755   2.199  0.00  0.00    -0.191 NA
ENDBRANCH  26  38
ENDBRANCH  10  25
TORSDOF 7
