REMARK  Name = ZINC03313882
REMARK  7 active torsions:
REMARK  status: ('A' for Active; 'I' for Inactive)
REMARK    1  A    between atoms: C_1  and  C_2
REMARK    2  A    between atoms: C_2  and  C_3
REMARK    3  A    between atoms: C_3  and  C_5
REMARK    4  A    between atoms: C_3  and  C_6
REMARK    5  A    between atoms: C_9  and  N_12
REMARK    6  A    between atoms: C_13  and  C_15
REMARK    7  A    between atoms: C_15  and  N_16
REMARK                            x       y       z     vdW  Elec       q    Type
REMARK                         _______ _______ _______ _____ _____    ______ ____
ROOT
ATOM      1  N   UNL     1      -0.784   3.060   0.025  0.00  0.00    -0.215 N 
ATOM      2  C   UNL     1       0.553   3.248   0.022  0.00  0.00    +0.251 C 
ATOM      3  O   UNL     1       1.149   4.304   0.030  0.00  0.00    -0.272 OA
ATOM      4  C   UNL     1       1.147   1.863   0.006  0.00  0.00    +0.138 C 
ATOM      5  C   UNL     1       2.026   1.651  -1.233  0.00  0.00    +0.045 C 
ATOM      6  C   UNL     1       3.439   1.961  -0.688  0.00  0.00    +0.038 C 
ATOM      7  C   UNL     1       3.361   1.681   0.799  0.00  0.00    -0.042 A 
ATOM      8  C   UNL     1       2.036   1.627   1.197  0.00  0.00    -0.012 A 
ATOM      9  C   UNL     1       1.728   1.383   2.525  0.00  0.00    +0.006 A 
ATOM     10  C   UNL     1       2.736   1.193   3.451  0.00  0.00    +0.000 A 
ATOM     11  C   UNL     1       4.058   1.247   3.052  0.00  0.00    +0.000 A 
ATOM     12  C   UNL     1       4.369   1.491   1.729  0.00  0.00    +0.004 A 
ATOM     13  N   UNL     1      -0.008   0.966   0.002  0.00  0.00    -0.281 N 
ATOM     14  C   UNL     1      -1.099   1.758   0.009  0.00  0.00    +0.310 C 
ATOM     15  O   UNL     1      -2.240   1.339   0.004  0.00  0.00    -0.252 OA
ATOM     16  H   UNL     1       0.008  -0.004  -0.008  0.00  0.00    +0.152 HD
ENDROOT
BRANCH   1  17
ATOM     17  C   UNL     1      -1.768   4.146   0.039  0.00  0.00    +0.214 C 
BRANCH  17  19
ATOM     18  N   UNL     1      -3.002   5.515  -1.610  0.00  0.00    -0.284 N 
ATOM     19  C   UNL     1      -2.111   4.531  -1.377  0.00  0.00    +0.235 C 
ATOM     20  O   UNL     1      -1.585   3.955  -2.306  0.00  0.00    -0.274 OA
ATOM     21  H   UNL     1      -3.472   5.929  -0.870  0.00  0.00    +0.155 HD
BRANCH  18  25
ATOM     22  C   UNL     1      -3.736   6.777  -5.513  0.00  0.00    -0.044 A 
ATOM     23  C   UNL     1      -3.467   5.444  -5.257  0.00  0.00    +0.006 A 
ATOM     24  C   UNL     1      -3.224   5.023  -3.965  0.00  0.00    +0.023 A 
ATOM     25  C   UNL     1      -3.248   5.939  -2.921  0.00  0.00    +0.033 A 
ATOM     26  C   UNL     1      -3.523   7.275  -3.180  0.00  0.00    +0.023 A 
ATOM     27  C   UNL     1      -3.761   7.691  -4.475  0.00  0.00    +0.006 A 
BRANCH  22  28
ATOM     28  C   UNL     1      -4.001   7.233  -6.924  0.00  0.00    +0.016 C 
ATOM     29  C   UNL     1      -5.399   7.849  -7.006  0.00  0.00    +0.012 C 
BRANCH  28  31
ATOM     30  C   UNL     1      -3.151   8.650  -8.798  0.00  0.00    +0.004 C 
ATOM     31  C   UNL     1      -2.959   8.279  -7.326  0.00  0.00    +0.004 C 
ENDBRANCH  28  31
ENDBRANCH  22  28
ENDBRANCH  18  25
ENDBRANCH  17  19
ENDBRANCH   1  17
TORSDOF 5
