REMARK  Name = ZINC07715122
REMARK  3 active torsions:
REMARK  status: ('A' for Active; 'I' for Inactive)
REMARK    1  A    between atoms: C_1  and  S_2
REMARK    2  A    between atoms: S_2  and  C_3
REMARK    3  A    between atoms: C_8  and  C_9
REMARK                            x       y       z     vdW  Elec       q    Type
REMARK                         _______ _______ _______ _____ _____    ______ ____
ROOT
ATOM      1  C   UNL     1      -2.028   3.615   3.529  0.00  0.00    +0.145 A 
ATOM      2  N   UNL     1      -2.580   4.401   4.504  0.00  0.00    -0.318 N 
ATOM      3  H   UNL     1      -2.545   5.367   4.433  0.00  0.00    +0.169 HD
ATOM      4  C   UNL     1      -3.179   3.817   5.563  0.00  0.00    +0.182 A 
ATOM      5  S   UNL     1      -3.882   4.779   6.792  0.00  0.00    -0.011 S 
ATOM      6  N   UNL     1      -3.215   2.486   5.651  0.00  0.00    -0.190 NA
ATOM      7  C   UNL     1      -2.671   1.736   4.702  0.00  0.00    +0.217 A 
ATOM      8  N   UNL     1      -2.079   2.299   3.644  0.00  0.00    -0.197 NA
ATOM      9  N   UNL     1      -2.716   0.366   4.807  0.00  0.00    -0.327 N 
ATOM     10  H   UNL     1      -2.320  -0.187   4.115  0.00  0.00    +0.145 HD
ATOM     11  H   UNL     1      -3.144  -0.047   5.572  0.00  0.00    +0.145 HD
ENDROOT
BRANCH   1  17
ATOM     12  C   UNL     1      -0.803   3.426   1.364  0.00  0.00    +0.018 A 
ATOM     13  C   UNL     1      -0.185   4.022   0.270  0.00  0.00    +0.015 A 
ATOM     14  C   UNL     1      -0.144   5.397   0.164  0.00  0.00    +0.001 A 
ATOM     15  C   UNL     1      -0.709   6.195   1.147  0.00  0.00    +0.001 A 
ATOM     16  C   UNL     1      -1.321   5.624   2.241  0.00  0.00    +0.012 A 
ATOM     17  C   UNL     1      -1.375   4.232   2.362  0.00  0.00    +0.031 A 
BRANCH  12  19
ATOM     18  C   UNL     1      -0.013   1.086   0.008  0.00  0.00    +0.090 C 
ATOM     19  S   UNL     1      -0.862   1.671   1.500  0.00  0.00    -0.128 S 
ENDBRANCH  12  19
ENDBRANCH   1  17
TORSDOF 2
