REMARK  Name = ZINC04365520
REMARK  11 active torsions:
REMARK  status: ('A' for Active; 'I' for Inactive)
REMARK    1  A    between atoms: C_1  and  N_2
REMARK    2  A    between atoms: N_2  and  C_3
REMARK    3  A    between atoms: N_2  and  C_4
REMARK    4  A    between atoms: C_7  and  C_10
REMARK    5  A    between atoms: C_10  and  C_23
REMARK    6  A    between atoms: C_14  and  N_20
REMARK    7  A    between atoms: N_20  and  C_21
REMARK    8  A    between atoms: N_20  and  C_22
REMARK    9  A    between atoms: C_26  and  N_29
REMARK   10  A    between atoms: N_29  and  C_30
REMARK   11  A    between atoms: N_29  and  C_31
REMARK                            x       y       z     vdW  Elec       q    Type
REMARK                         _______ _______ _______ _____ _____    ______ ____
ROOT
ATOM      1  C   UNL     1      -0.007  -2.813  -4.924  0.00  0.00    +0.190 C 
ATOM      2  C   UNL     1       0.713  -2.009  -5.978  0.00  0.00    +0.019 A 
ATOM      3  C   UNL     1       0.499  -0.767  -6.530  0.00  0.00    +0.011 A 
ATOM      4  C   UNL     1       1.355  -0.286  -7.505  0.00  0.00    +0.023 A 
ATOM      5  C   UNL     1       2.431  -1.056  -7.932  0.00  0.00    +0.030 A 
ATOM      6  C   UNL     1       2.653  -2.309  -7.381  0.00  0.00    +0.038 A 
ATOM      7  C   UNL     1       1.791  -2.793  -6.397  0.00  0.00    +0.068 A 
ATOM      8  C   UNL     1       1.752  -4.053  -5.631  0.00  0.00    +0.341 C 
ATOM      9  O   UNL     1       2.547  -4.964  -5.746  0.00  0.00    -0.245 OA
ATOM     10  O   UNL     1       0.707  -4.044  -4.787  0.00  0.00    -0.440 OA
ENDROOT
BRANCH   1  14
ATOM     11  C   UNL     1       0.000  -0.696  -1.211  0.00  0.00    +0.029 A 
ATOM     12  C   UNL     1       0.013  -2.085  -1.221  0.00  0.00    +0.023 A 
ATOM     13  C   UNL     1       0.010  -2.766  -2.422  0.00  0.00    +0.010 A 
ATOM     14  C   UNL     1      -0.005  -2.066  -3.615  0.00  0.00    +0.005 A 
ATOM     15  C   UNL     1      -0.017  -0.684  -3.609  0.00  0.00    +0.010 A 
ATOM     16  C   UNL     1      -0.021   0.004  -2.411  0.00  0.00    +0.023 A 
BRANCH  11  18
ATOM     17  C   UNL     1      -0.018   1.461   0.010  0.00  0.00    +0.129 C 
ATOM     18  N   UNL     1       0.002  -0.004   0.002  0.00  0.00    -0.336 N 
ATOM     19  C   UNL     1       0.024  -0.743   1.267  0.00  0.00    +0.129 C 
ENDBRANCH  11  18
ENDBRANCH   1  14
BRANCH   1  20
ATOM     20  C   UNL     1      -1.424  -3.084  -5.360  0.00  0.00    +0.005 A 
ATOM     21  C   UNL     1      -2.082  -2.177  -6.170  0.00  0.00    +0.010 A 
ATOM     22  C   UNL     1      -3.381  -2.423  -6.571  0.00  0.00    +0.023 A 
ATOM     23  C   UNL     1      -4.025  -3.583  -6.161  0.00  0.00    +0.029 A 
ATOM     24  C   UNL     1      -3.361  -4.492  -5.348  0.00  0.00    +0.023 A 
ATOM     25  C   UNL     1      -2.060  -4.243  -4.954  0.00  0.00    +0.010 A 
BRANCH  23  26
ATOM     26  N   UNL     1      -5.338  -3.835  -6.565  0.00  0.00    -0.336 N 
ATOM     27  C   UNL     1      -6.037  -2.874  -7.422  0.00  0.00    +0.129 C 
ATOM     28  C   UNL     1      -6.016  -5.059  -6.131  0.00  0.00    +0.129 C 
ENDBRANCH  23  26
ENDBRANCH   1  20
BRANCH   5  29
ATOM     29  N   UNL     1       3.292  -0.566  -8.917  0.00  0.00    -0.336 N 
ATOM     30  C   UNL     1       3.059   0.757  -9.501  0.00  0.00    +0.129 C 
ATOM     31  C   UNL     1       4.426  -1.376  -9.367  0.00  0.00    +0.129 C 
ENDBRANCH   5  29
TORSDOF 5
