REMARK  Name = ZINC01258199
REMARK  5 active torsions:
REMARK  status: ('A' for Active; 'I' for Inactive)
REMARK    1  A    between atoms: C_1  and  C_2
REMARK    2  A    between atoms: C_2  and  C_3
REMARK    3  A    between atoms: C_6  and  C_9
REMARK    4  A    between atoms: N_10  and  N_11
REMARK    5  A    between atoms: C_12  and  C_18
REMARK                            x       y       z     vdW  Elec       q    Type
REMARK                         _______ _______ _______ _____ _____    ______ ____
ROOT
ATOM      1  N   UNL     1       1.101  -0.800   0.273  0.00  0.00    -0.185 N 
ATOM      2  C   UNL     1       0.002  -0.004   0.002  0.00  0.00    +0.218 A 
ATOM      3  N   UNL     1      -1.014  -0.781  -0.268  0.00  0.00    -0.148 NA
ATOM      4  N   UNL     1      -0.581  -2.110  -0.168  0.00  0.00    -0.252 N 
ATOM      5  H   UNL     1      -1.123  -2.901  -0.315  0.00  0.00    +0.191 HD
ATOM      6  C   UNL     1       0.724  -2.090   0.169  0.00  0.00    +0.197 A 
ATOM      7  S   UNL     1       1.725  -3.457   0.414  0.00  0.00    -0.010 S 
ENDROOT
BRANCH   2   8
ATOM      8  C   UNL     1      -0.018   1.468   0.010  0.00  0.00    +0.173 A 
ATOM      9  C   UNL     1      -1.131   2.253   0.019  0.00  0.00    +0.053 A 
ATOM     10  C   UNL     1      -0.685   3.588   0.027  0.00  0.00    +0.042 A 
ATOM     11  C   UNL     1       0.662   3.556   0.014  0.00  0.00    +0.196 A 
ATOM     12  O   UNL     1       1.062   2.274   0.004  0.00  0.00    -0.460 OA
ENDBRANCH   2   8
BRANCH   1  14
ATOM     13  C   UNL     1       2.703  -0.142   1.844  0.00  0.00    +0.141 C 
ATOM     14  N   UNL     1       2.384  -0.343   0.602  0.00  0.00    -0.170 NA
BRANCH  13  18
ATOM     15  C   UNL     1       6.590   1.240   2.841  0.00  0.00    -0.048 A 
ATOM     16  C   UNL     1       5.665   1.006   3.842  0.00  0.00    +0.004 A 
ATOM     17  C   UNL     1       4.399   0.556   3.526  0.00  0.00    +0.010 A 
ATOM     18  C   UNL     1       4.053   0.339   2.190  0.00  0.00    -0.005 A 
ATOM     19  C   UNL     1       4.994   0.573   1.185  0.00  0.00    +0.010 A 
ATOM     20  C   UNL     1       6.254   1.026   1.516  0.00  0.00    +0.004 A 
BRANCH  15  22
ATOM     21  C   UNL     1       8.895   0.533   3.418  0.00  0.00    +0.009 C 
ATOM     22  C   UNL     1       7.970   1.731   3.195  0.00  0.00    +0.032 C 
ENDBRANCH  15  22
ENDBRANCH  13  18
ENDBRANCH   1  14
TORSDOF 4
