REMARK  Name = ZINC45235752
REMARK  4 active torsions:
REMARK  status: ('A' for Active; 'I' for Inactive)
REMARK    1  A    between atoms: C_4  and  C_7
REMARK    2  A    between atoms: C_17  and  C_19
REMARK    3  A    between atoms: C_25  and  C_27
REMARK    4  A    between atoms: C_27  and  N_28
REMARK                            x       y       z     vdW  Elec       q    Type
REMARK                         _______ _______ _______ _____ _____    ______ ____
ROOT
ATOM      1  C   UNL     1       3.692  -0.680  -0.037  0.00  0.00    +0.013 C 
ATOM      2  C   UNL     1       3.717  -2.025   0.057  0.00  0.00    -0.024 C 
ATOM      3  C   UNL     1       2.428  -2.790   0.059  0.00  0.00    +0.037 C 
ATOM      4  C   UNL     1       2.597  -4.295   0.009  0.00  0.00    +0.005 C 
ATOM      5  C   UNL     1       3.852  -4.789   0.727  0.00  0.00    +0.012 C 
ATOM      6  C   UNL     1       5.072  -4.209   0.009  0.00  0.00    +0.066 C 
ATOM      7  C   UNL     1       4.960  -2.694   0.147  0.00  0.00    +0.068 C 
ATOM      8  N   UNL     1       6.139  -2.227   0.372  0.00  0.00    -0.181 NA
ATOM      9  N   UNL     1       7.094  -3.218   0.629  0.00  0.00    -0.184 N 
ATOM     10  C   UNL     1       6.379  -4.522   0.756  0.00  0.00    +0.140 C 
ATOM     11  C   UNL     1       8.424  -3.030   0.742  0.00  0.00    +0.253 C 
ATOM     12  O   UNL     1       9.153  -3.974   0.966  0.00  0.00    -0.272 OA
ENDROOT
BRANCH   1  16
ATOM     13  C   UNL     1      -0.004   1.393   0.180  0.00  0.00    +0.000 A 
ATOM     14  C   UNL     1       0.258   0.358   1.061  0.00  0.00    +0.001 A 
ATOM     15  C   UNL     1       1.457  -0.321   0.997  0.00  0.00    +0.008 A 
ATOM     16  C   UNL     1       2.409   0.039   0.038  0.00  0.00    -0.025 A 
ATOM     17  C   UNL     1       2.137   1.086  -0.849  0.00  0.00    +0.008 A 
ATOM     18  C   UNL     1       0.934   1.755  -0.771  0.00  0.00    +0.001 A 
ENDBRANCH   1  16
BRANCH  10  19
ATOM     19  C   UNL     1       6.109  -4.866   2.199  0.00  0.00    -0.024 A 
ATOM     20  C   UNL     1       5.882  -3.859   3.118  0.00  0.00    +0.005 A 
ATOM     21  C   UNL     1       5.634  -4.175   4.441  0.00  0.00    +0.000 A 
ATOM     22  C   UNL     1       5.613  -5.497   4.844  0.00  0.00    +0.000 A 
ATOM     23  C   UNL     1       5.840  -6.503   3.924  0.00  0.00    +0.000 A 
ATOM     24  C   UNL     1       6.083  -6.188   2.600  0.00  0.00    +0.005 A 
ENDBRANCH  10  19
BRANCH  11  25
ATOM     25  C   UNL     1       9.006  -1.648   0.589  0.00  0.00    +0.215 C 
BRANCH  25  26
ATOM     26  N   UNL     1      10.460  -1.710   0.754  0.00  0.00    -0.215 N 
ATOM     27  C   UNL     1      11.096  -1.577   1.938  0.00  0.00    +0.247 C 
ATOM     28  O   UNL     1      10.594  -1.391   3.026  0.00  0.00    -0.273 OA
ATOM     29  C   UNL     1      12.563  -1.709   1.619  0.00  0.00    +0.113 C 
ATOM     30  C   UNL     1      13.186  -2.893   2.370  0.00  0.00    +0.035 C 
ATOM     31  C   UNL     1      14.623  -2.412   2.702  0.00  0.00    +0.003 C 
ATOM     32  C   UNL     1      14.417  -0.911   3.025  0.00  0.00    +0.003 C 
ATOM     33  C   UNL     1      13.336  -0.451   2.022  0.00  0.00    +0.035 C 
ATOM     34  N   UNL     1      12.605  -1.921   0.171  0.00  0.00    -0.285 N 
ATOM     35  C   UNL     1      11.324  -1.911  -0.249  0.00  0.00    +0.310 C 
ATOM     36  O   UNL     1      10.991  -2.064  -1.408  0.00  0.00    -0.252 OA
ATOM     37  H   UNL     1      13.396  -2.046  -0.377  0.00  0.00    +0.151 HD
ENDBRANCH  25  26
ENDBRANCH  11  25
TORSDOF 4
