REMARK  Name = ZINC13124884
REMARK  5 active torsions:
REMARK  status: ('A' for Active; 'I' for Inactive)
REMARK    1  A    between atoms: C_1  and  C_2
REMARK    2  A    between atoms: C_5  and  O_18
REMARK    3  A    between atoms: C_6  and  C_8
REMARK    4  A    between atoms: C_11  and  C_13
REMARK    5  A    between atoms: C_11  and  O_17
REMARK                            x       y       z     vdW  Elec       q    Type
REMARK                         _______ _______ _______ _____ _____    ______ ____
ROOT
ATOM      1  C   UNL     1       0.051  -2.841   2.458  0.00  0.00    +0.074 C 
ATOM      2  N   UNL     1       0.073  -4.124   2.565  0.00  0.00    -0.188 NA
ATOM      3  N   UNL     1       0.084  -4.586   3.880  0.00  0.00    -0.230 N 
ATOM      4  C   UNL     1       0.065  -3.430   4.790  0.00  0.00    +0.248 C 
ATOM      5  C   UNL     1       0.049  -2.219   3.836  0.00  0.00    +0.123 C 
ATOM      6  H   UNL     1       0.100  -5.517   4.151  0.00  0.00    +0.171 HD
ENDROOT
BRANCH   1  12
ATOM      7  C   UNL     1      -0.018   1.503   0.010  0.00  0.00    +0.044 C 
ATOM      8  C   UNL     1       0.002  -0.004   0.002  0.00  0.00    -0.050 A 
ATOM      9  C   UNL     1       0.006  -0.687  -1.202  0.00  0.00    +0.007 A 
ATOM     10  C   UNL     1       0.024  -2.069  -1.222  0.00  0.00    +0.046 A 
ATOM     11  C   UNL     1       0.039  -2.780  -0.034  0.00  0.00    +0.126 A 
ATOM     12  C   UNL     1       0.036  -2.094   1.187  0.00  0.00    +0.040 A 
ATOM     13  C   UNL     1       0.023  -0.697   1.194  0.00  0.00    +0.016 A 
BRANCH  11  14
ATOM     14  O   UNL     1       0.057  -4.139  -0.052  0.00  0.00    -0.506 OA
ATOM     15  H   UNL     1       0.945  -4.520  -0.062  0.00  0.00    +0.292 HD
ENDBRANCH  11  14
ENDBRANCH   1  12
BRANCH   4  16
ATOM     16  C   UNL     1       1.325  -3.408   5.659  0.00  0.00    +0.437 C 
ATOM     17  F   UNL     1       2.456  -3.354   4.838  0.00  0.00    -0.166 F 
ATOM     18  F   UNL     1       1.298  -2.283   6.490  0.00  0.00    -0.166 F 
ATOM     19  F   UNL     1       1.371  -4.566   6.442  0.00  0.00    -0.166 F 
ENDBRANCH   4  16
BRANCH   4  20
ATOM     20  O   UNL     1      -1.109  -3.450   5.605  0.00  0.00    -0.363 OA
ATOM     21  H   UNL     1      -1.178  -4.228   6.176  0.00  0.00    +0.212 HD
ENDBRANCH   4  20
TORSDOF 4
