REMARK  Name = ZINC06577031
REMARK  11 active torsions:
REMARK  status: ('A' for Active; 'I' for Inactive)
REMARK    1  A    between atoms: C_1  and  C_2
REMARK    2  A    between atoms: C_2  and  O_3
REMARK    3  A    between atoms: O_3  and  C_4
REMARK    4  A    between atoms: C_4  and  C_6
REMARK    5  A    between atoms: C_7  and  C_32
REMARK    6  A    between atoms: C_10  and  S_15
REMARK    7  A    between atoms: S_15  and  N_18
REMARK    8  A    between atoms: C_19  and  N_31
REMARK    9  A    between atoms: C_21  and  C_23
REMARK   10  A    between atoms: C_26  and  O_29
REMARK   11  A    between atoms: O_29  and  C_30
REMARK                            x       y       z     vdW  Elec       q    Type
REMARK                         _______ _______ _______ _____ _____    ______ ____
ROOT
ATOM      1  S   UNL     1       4.032  -5.827  -7.037  0.00  0.00    +0.100 S 
ATOM      2  O   UNL     1       5.102  -5.303  -7.812  0.00  0.00    -0.146 OA
ATOM      3  O   UNL     1       4.189  -6.954  -6.186  0.00  0.00    -0.146 OA
ENDROOT
BRANCH   1   8
ATOM      4  C   UNL     1       1.450  -2.345  -2.519  0.00  0.00    +0.215 A 
ATOM      5  C   UNL     1       1.610  -3.668  -2.789  0.00  0.00    +0.010 A 
ATOM      6  C   UNL     1       2.331  -3.738  -4.059  0.00  0.00    +0.026 A 
ATOM      7  C   UNL     1       2.792  -4.785  -4.861  0.00  0.00    +0.041 A 
ATOM      8  C   UNL     1       3.450  -4.508  -6.025  0.00  0.00    +0.113 A 
ATOM      9  C   UNL     1       3.665  -3.193  -6.415  0.00  0.00    +0.033 A 
ATOM     10  C   UNL     1       3.219  -2.145  -5.639  0.00  0.00    +0.049 A 
ATOM     11  C   UNL     1       2.546  -2.403  -4.450  0.00  0.00    +0.136 A 
ATOM     12  O   UNL     1       2.001  -1.609  -3.508  0.00  0.00    -0.448 OA
ATOM     13  C   UNL     1       1.140  -4.827  -1.948  0.00  0.00    +0.048 C 
BRANCH   4  14
ATOM     14  C   UNL     1       0.776  -1.800  -1.335  0.00  0.00    +0.375 C 
ATOM     15  O   UNL     1       0.312  -2.551  -0.499  0.00  0.00    -0.241 OA
BRANCH  14  16
ATOM     16  O   UNL     1       0.671  -0.465  -1.174  0.00  0.00    -0.459 OA
BRANCH  16  18
ATOM     17  C   UNL     1      -0.019   1.526   0.010  0.00  0.00    +0.048 C 
ATOM     18  C   UNL     1       0.002  -0.004   0.002  0.00  0.00    +0.229 C 
ENDBRANCH  16  18
ENDBRANCH  14  16
ENDBRANCH   4  14
ENDBRANCH   1   8
BRANCH   1  19
ATOM     19  N   UNL     1       2.818  -6.202  -8.099  0.00  0.00    -0.115 N 
ATOM     20  C   UNL     1       1.826  -7.107  -7.891  0.00  0.00    +0.140 A 
ATOM     21  C   UNL     1       1.037  -7.117  -8.998  0.00  0.00    +0.075 A 
ATOM     22  C   UNL     1       1.566  -6.187  -9.912  0.00  0.00    +0.096 A 
ATOM     23  N   UNL     1       2.630  -5.636  -9.367  0.00  0.00    -0.148 NA
BRANCH  22  24
ATOM     24  C   UNL     1       1.016  -5.876 -11.254  0.00  0.00    +0.002 A 
ATOM     25  C   UNL     1      -0.130  -6.527 -11.707  0.00  0.00    +0.013 A 
ATOM     26  C   UNL     1      -0.639  -6.236 -12.955  0.00  0.00    +0.046 A 
ATOM     27  C   UNL     1      -0.011  -5.295 -13.761  0.00  0.00    +0.120 A 
ATOM     28  C   UNL     1       1.130  -4.645 -13.312  0.00  0.00    +0.046 A 
ATOM     29  C   UNL     1       1.641  -4.928 -12.062  0.00  0.00    +0.013 A 
BRANCH  27  30
ATOM     30  O   UNL     1      -0.515  -5.011 -14.990  0.00  0.00    -0.495 OA
ATOM     31  C   UNL     1       0.181  -4.033 -15.766  0.00  0.00    +0.277 C 
ENDBRANCH  27  30
ENDBRANCH  22  24
BRANCH  20  32
ATOM     32  N   UNL     1       1.651  -7.884  -6.749  0.00  0.00    -0.342 N 
ATOM     33  H   UNL     1       2.271  -7.805  -6.008  0.00  0.00    +0.144 HD
ATOM     34  H   UNL     1       0.908  -8.506  -6.695  0.00  0.00    +0.144 HD
ENDBRANCH  20  32
ENDBRANCH   1  19
TORSDOF 8
