REMARK  Name = ZINC59187439
REMARK  17 active torsions:
REMARK  status: ('A' for Active; 'I' for Inactive)
REMARK    1  A    between atoms: C_1  and  C_2
REMARK    2  A    between atoms: C_2  and  O_3
REMARK    3  A    between atoms: O_3  and  C_4
REMARK    4  A    between atoms: C_9  and  C_10
REMARK    5  A    between atoms: C_10  and  N_11
REMARK    6  A    between atoms: N_11  and  C_12
REMARK    7  A    between atoms: N_11  and  C_22
REMARK    8  A    between atoms: C_14  and  C_20
REMARK    9  A    between atoms: C_14  and  C_21
REMARK   10  A    between atoms: C_16  and  C_18
REMARK   11  A    between atoms: C_16  and  C_19
REMARK   12  A    between atoms: C_22  and  N_24
REMARK   13  A    between atoms: N_24  and  C_25
REMARK   14  A    between atoms: C_29  and  O_33
REMARK   15  A    between atoms: C_30  and  O_31
REMARK   16  A    between atoms: O_31  and  C_32
REMARK   17  A    between atoms: O_33  and  C_34
REMARK                            x       y       z     vdW  Elec       q    Type
REMARK                         _______ _______ _______ _____ _____    ______ ____
ROOT
ATOM      1  N   UNL     1      -4.676  -0.447  -1.428  0.00  0.00    -0.305 N 
ENDROOT
BRANCH   1   2
ATOM      2  C   UNL     1      -5.365  -1.453  -2.246  0.00  0.00    +0.073 C 
ATOM      3  C   UNL     1      -6.246  -0.745  -3.277  0.00  0.00    +0.009 C 
ATOM      4  C   UNL     1      -6.962  -1.780  -4.144  0.00  0.00    -0.072 C 
ATOM      5  N   UNL     1      -6.034  -2.719  -4.755  0.00  0.00    +0.386 N 
ATOM      6  C   UNL     1      -5.010  -3.306  -3.906  0.00  0.00    -0.072 C 
ATOM      7  C   UNL     1      -4.329  -2.290  -2.994  0.00  0.00    +0.009 C 
ATOM      8  C   UNL     1      -5.561  -4.467  -3.073  0.00  0.00    -0.010 C 
ATOM      9  C   UNL     1      -3.919  -3.894  -4.832  0.00  0.00    -0.010 C 
ATOM     10  C   UNL     1      -7.668  -1.011  -5.286  0.00  0.00    -0.010 C 
ATOM     11  C   UNL     1      -8.048  -2.487  -3.335  0.00  0.00    -0.010 C 
ATOM     12  H   UNL     1      -6.575  -3.477  -5.178  0.00  0.00    -0.084 HD
ATOM     13  H   UNL     1      -5.572  -2.250  -5.539  0.00  0.00    -0.084 HD
ENDBRANCH   1   2
BRANCH   1  14
ATOM     14  C   UNL     1      -3.897   0.482  -2.018  0.00  0.00    +0.138 C 
ATOM     15  S   UNL     1      -3.229   1.755  -1.087  0.00  0.00    -0.018 S 
BRANCH  14  16
ATOM     16  N   UNL     1      -3.643   0.408  -3.339  0.00  0.00    -0.294 N 
ATOM     17  H   UNL     1      -4.083  -0.266  -3.881  0.00  0.00    +0.154 HD
BRANCH  16  18
ATOM     18  C   UNL     1      -2.744   1.305  -3.931  0.00  0.00    +0.079 A 
ATOM     19  C   UNL     1      -1.668   1.794  -3.203  0.00  0.00    +0.027 A 
ATOM     20  C   UNL     1      -0.781   2.678  -3.786  0.00  0.00    +0.006 A 
ATOM     21  C   UNL     1      -0.961   3.080  -5.097  0.00  0.00    +0.049 A 
ATOM     22  C   UNL     1      -2.033   2.598  -5.832  0.00  0.00    +0.163 A 
ATOM     23  C   UNL     1      -2.925   1.704  -5.252  0.00  0.00    +0.183 A 
BRANCH  23  24
ATOM     24  O   UNL     1      -3.976   1.224  -5.971  0.00  0.00    -0.490 OA
ATOM     25  C   UNL     1      -5.192   1.973  -5.921  0.00  0.00    +0.277 C 
ENDBRANCH  23  24
BRANCH  22  26
ATOM     26  O   UNL     1      -2.208   2.994  -7.121  0.00  0.00    -0.491 OA
ATOM     27  C   UNL     1      -1.250   3.911  -7.653  0.00  0.00    +0.277 C 
ENDBRANCH  22  26
ENDBRANCH  16  18
ENDBRANCH  14  16
ENDBRANCH   1  14
BRANCH   1  28
ATOM     28  C   UNL     1      -4.835  -0.452   0.028  0.00  0.00    +0.145 C 
BRANCH  28  34
ATOM     29  C   UNL     1      -2.626  -1.215   0.938  0.00  0.00    +0.125 A 
ATOM     30  C   UNL     1      -1.811  -2.190   1.494  0.00  0.00    +0.046 A 
ATOM     31  C   UNL     1      -2.313  -3.455   1.731  0.00  0.00    +0.004 A 
ATOM     32  C   UNL     1      -3.626  -3.750   1.414  0.00  0.00    +0.001 A 
ATOM     33  C   UNL     1      -4.440  -2.780   0.860  0.00  0.00    +0.009 A 
ATOM     34  C   UNL     1      -3.945  -1.511   0.627  0.00  0.00    +0.011 A 
BRANCH  29  35
ATOM     35  O   UNL     1      -2.135   0.031   0.705  0.00  0.00    -0.492 OA
BRANCH  35  37
ATOM     36  C   UNL     1      -0.398   1.711   0.718  0.00  0.00    +0.048 C 
ATOM     37  C   UNL     1      -0.768   0.264   1.050  0.00  0.00    +0.225 C 
ENDBRANCH  35  37
ENDBRANCH  29  35
ENDBRANCH  28  34
ENDBRANCH   1  28
TORSDOF 10
