REMARK  Name = ZINC19973447
REMARK  7 active torsions:
REMARK  status: ('A' for Active; 'I' for Inactive)
REMARK    1  A    between atoms: C_1  and  C_2
REMARK    2  A    between atoms: C_3  and  C_9
REMARK    3  A    between atoms: C_4  and  O_8
REMARK    4  A    between atoms: C_9  and  C_10
REMARK    5  A    between atoms: C_9  and  C_16
REMARK    6  A    between atoms: C_17  and  C_23
REMARK    7  A    between atoms: C_21  and  O_22
REMARK                            x       y       z     vdW  Elec       q    Type
REMARK                         _______ _______ _______ _____ _____    ______ ____
ROOT
ATOM      1  C   UNL     1       0.026  -0.293  -2.620  0.00  0.00    +0.129 C 
ENDROOT
BRANCH   1   4
ATOM      2  C   UNL     1       2.435  -0.964  -0.674  0.00  0.00    +0.068 C 
ATOM      3  C   UNL     1       0.985  -1.299  -0.435  0.00  0.00    +0.068 A 
ATOM      4  C   UNL     1      -0.077  -1.002  -1.295  0.00  0.00    +0.051 A 
ATOM      5  C   UNL     1      -1.219  -1.468  -0.723  0.00  0.00    +0.213 A 
ATOM      6  N   UNL     1      -0.883  -2.037   0.456  0.00  0.00    -0.247 N 
ATOM      7  H   UNL     1      -1.494  -2.454   1.083  0.00  0.00    +0.192 HD
ATOM      8  N   UNL     1       0.505  -1.923   0.610  0.00  0.00    -0.176 NA
BRANCH   5   9
ATOM      9  O   UNL     1      -2.470  -1.377  -1.242  0.00  0.00    -0.492 OA
ATOM     10  H   UNL     1      -2.751  -2.163  -1.731  0.00  0.00    +0.294 HD
ENDBRANCH   5   9
ENDBRANCH   1   4
BRANCH   1  11
ATOM     11  C   UNL     1       1.302  -0.701  -3.311  0.00  0.00    +0.051 A 
ATOM     12  C   UNL     1       2.259   0.134  -3.775  0.00  0.00    +0.041 A 
ATOM     13  N   UNL     1       3.235  -0.619  -4.324  0.00  0.00    -0.278 N 
ATOM     14  N   UNL     1       2.868  -1.965  -4.195  0.00  0.00    -0.136 NA
ATOM     15  H   UNL     1       4.048  -0.287  -4.735  0.00  0.00    +0.189 HD
ATOM     16  C   UNL     1       1.710  -2.016  -3.583  0.00  0.00    +0.236 A 
ATOM     17  C   UNL     1       2.240   1.639  -3.693  0.00  0.00    +0.065 C 
BRANCH  16  18
ATOM     18  O   UNL     1       1.022  -3.146  -3.267  0.00  0.00    -0.491 OA
ATOM     19  H   UNL     1       0.411  -3.440  -3.957  0.00  0.00    +0.294 HD
ENDBRANCH  16  18
ENDBRANCH   1  11
BRANCH   1  20
ATOM     20  C   UNL     1      -1.153  -0.664  -3.482  0.00  0.00    +0.119 A 
ATOM     21  C   UNL     1      -2.062   0.192  -3.983  0.00  0.00    +0.047 A 
ATOM     22  C   UNL     1      -2.985  -0.579  -4.726  0.00  0.00    +0.056 A 
ATOM     23  C   UNL     1      -2.584  -1.861  -4.636  0.00  0.00    +0.165 A 
ATOM     24  O   UNL     1      -1.471  -1.905  -3.886  0.00  0.00    -0.453 OA
ATOM     25  I   UNL     1      -3.532  -3.506  -5.521  0.00  0.00    -0.001 I 
ENDBRANCH   1  20
TORSDOF 5
