REMARK  Name = ZINC45294050
REMARK  5 active torsions:
REMARK  status: ('A' for Active; 'I' for Inactive)
REMARK    1  A    between atoms: C_1  and  C_2
REMARK    2  A    between atoms: C_2  and  C_4
REMARK    3  A    between atoms: C_2  and  N_19
REMARK    4  A    between atoms: N_6  and  C_7
REMARK    5  A    between atoms: N_6  and  C_8
REMARK                            x       y       z     vdW  Elec       q    Type
REMARK                         _______ _______ _______ _____ _____    ______ ____
ROOT
ATOM      1  C   UNL     1      -1.496  -0.331   0.215  0.00  0.00    +0.236 C 
ATOM      2  O   UNL     1      -0.344   0.007   0.382  0.00  0.00    -0.274 OA
ATOM      3  N   UNL     1      -2.079  -0.167  -0.990  0.00  0.00    -0.296 N 
ATOM      4  C   UNL     1      -1.293   0.330  -2.122  0.00  0.00    +0.132 C 
ENDROOT
BRANCH   3   5
ATOM      5  C   UNL     1      -3.498  -0.485  -1.167  0.00  0.00    +0.106 C 
ATOM      6  C   UNL     1      -3.649  -1.501  -2.297  0.00  0.00    +0.027 C 
ATOM      7  C   UNL     1      -5.141  -1.656  -2.612  0.00  0.00    +0.007 C 
ATOM      8  C   UNL     1      -5.630  -0.368  -3.271  0.00  0.00    +0.035 C 
ATOM      9  C   UNL     1      -5.236   0.831  -2.448  0.00  0.00    -0.042 A 
ATOM     10  C   UNL     1      -4.254   0.777  -1.485  0.00  0.00    -0.024 A 
ATOM     11  C   UNL     1      -3.934   1.922  -0.766  0.00  0.00    +0.006 A 
ATOM     12  C   UNL     1      -4.595   3.109  -1.008  0.00  0.00    +0.000 A 
ATOM     13  C   UNL     1      -5.583   3.161  -1.973  0.00  0.00    +0.000 A 
ATOM     14  C   UNL     1      -5.901   2.026  -2.688  0.00  0.00    +0.004 A 
ENDBRANCH   3   5
BRANCH   1  16
ATOM     15  C   UNL     1      -2.332  -2.453   1.187  0.00  0.00    +0.038 C 
ATOM     16  C   UNL     1      -2.278  -0.933   1.354  0.00  0.00    +0.157 C 
BRANCH  16  17
ATOM     17  N   UNL     1      -1.623  -0.605   2.623  0.00  0.00    -0.289 N 
ATOM     18  C   UNL     1      -2.341  -0.575   3.763  0.00  0.00    +0.298 C 
ATOM     19  O   UNL     1      -3.532  -0.821   3.739  0.00  0.00    -0.253 OA
ATOM     20  N   UNL     1      -1.739  -0.273   4.930  0.00  0.00    -0.313 N 
ATOM     21  H   UNL     1      -0.674  -0.409   2.642  0.00  0.00    +0.151 HD
ATOM     22  H   UNL     1      -0.789  -0.077   4.950  0.00  0.00    +0.146 HD
ATOM     23  H   UNL     1      -2.256  -0.251   5.751  0.00  0.00    +0.146 HD
ENDBRANCH  16  17
ENDBRANCH   1  16
TORSDOF 3
