REMARK  Name = ZINC46719482
REMARK  13 active torsions:
REMARK  status: ('A' for Active; 'I' for Inactive)
REMARK    1  A    between atoms: C_1  and  C_2
REMARK    2  A    between atoms: C_2  and  C_26
REMARK    3  A    between atoms: N_5  and  C_9
REMARK    4  A    between atoms: C_9  and  N_10
REMARK    5  A    between atoms: C_13  and  O_24
REMARK    6  A    between atoms: C_16  and  O_22
REMARK    7  A    between atoms: C_18  and  O_21
REMARK    8  A    between atoms: O_22  and  C_23
REMARK    9  A    between atoms: O_24  and  C_25
REMARK   10  A    between atoms: C_29  and  C_32
REMARK   11  A    between atoms: C_32  and  C_33
REMARK   12  A    between atoms: C_32  and  C_34
REMARK   13  A    between atoms: C_32  and  C_35
REMARK                            x       y       z     vdW  Elec       q    Type
REMARK                         _______ _______ _______ _____ _____    ______ ____
ROOT
ATOM      1  C   UNL     1      -0.019   1.526   0.010  0.00  0.00    +0.047 C 
ATOM      2  C   UNL     1       0.002  -0.004   0.002  0.00  0.00    +0.135 C 
ATOM      3  C   UNL     1       0.815  -0.520  -1.169  0.00  0.00    +0.252 C 
ATOM      4  O   UNL     1       0.595  -0.342  -2.348  0.00  0.00    -0.272 OA
ATOM      5  N   UNL     1       1.833  -1.217  -0.627  0.00  0.00    -0.210 N 
ATOM      6  C   UNL     1       1.777  -1.214   0.710  0.00  0.00    +0.311 C 
ATOM      7  O   UNL     1       2.586  -1.776   1.421  0.00  0.00    -0.252 OA
ATOM      8  N   UNL     1       0.724  -0.519   1.178  0.00  0.00    -0.281 N 
ATOM      9  H   UNL     1       0.487  -0.383   2.109  0.00  0.00    +0.152 HD
ENDROOT
BRANCH   2  10
ATOM     10  C   UNL     1      -1.401  -0.551  -0.040  0.00  0.00    -0.015 A 
ATOM     11  C   UNL     1      -2.005  -0.815  -1.256  0.00  0.00    +0.006 A 
ATOM     12  C   UNL     1      -3.292  -1.317  -1.294  0.00  0.00    +0.004 A 
ATOM     13  C   UNL     1      -3.976  -1.556  -0.117  0.00  0.00    -0.042 A 
ATOM     14  C   UNL     1      -3.372  -1.294   1.099  0.00  0.00    +0.004 A 
ATOM     15  C   UNL     1      -2.083  -0.796   1.137  0.00  0.00    +0.006 A 
BRANCH  13  16
ATOM     16  C   UNL     1      -5.380  -2.103  -0.159  0.00  0.00    -0.013 C 
ATOM     17  C   UNL     1      -5.378  -3.459  -0.868  0.00  0.00    +0.015 C 
ATOM     18  C   UNL     1      -5.903  -2.275   1.268  0.00  0.00    +0.015 C 
ATOM     19  C   UNL     1      -6.283  -1.130  -0.920  0.00  0.00    +0.015 C 
ENDBRANCH  13  16
ENDBRANCH   2  10
BRANCH   5  20
ATOM     20  C   UNL     1       2.871  -1.896  -1.406  0.00  0.00    +0.205 C 
BRANCH  20  21
ATOM     21  N   UNL     1       3.991  -0.974  -1.638  0.00  0.00    -0.279 NA
ATOM     22  C   UNL     1       3.715  -0.087  -2.772  0.00  0.00    +0.125 C 
ATOM     23  C   UNL     1       4.907   0.786  -3.061  0.00  0.00    +0.017 A 
ATOM     24  C   UNL     1       4.721   1.928  -3.836  0.00  0.00    +0.125 A 
ATOM     25  C   UNL     1       5.790   2.757  -4.130  0.00  0.00    +0.049 A 
ATOM     26  C   UNL     1       7.050   2.451  -3.653  0.00  0.00    +0.049 A 
ATOM     27  C   UNL     1       7.237   1.316  -2.882  0.00  0.00    +0.126 A 
ATOM     28  C   UNL     1       6.163   0.483  -2.583  0.00  0.00    +0.032 A 
ATOM     29  C   UNL     1       6.413  -0.734  -1.731  0.00  0.00    +0.162 C 
ATOM     30  C   UNL     1       5.244  -1.712  -1.861  0.00  0.00    +0.122 C 
BRANCH  29  31
ATOM     31  O   UNL     1       7.615  -1.376  -2.160  0.00  0.00    -0.386 OA
ATOM     32  H   UNL     1       7.840  -2.169  -1.656  0.00  0.00    +0.210 HD
ENDBRANCH  29  31
BRANCH  27  33
ATOM     33  O   UNL     1       8.477   1.014  -2.413  0.00  0.00    -0.495 OA
ATOM     34  C   UNL     1       9.536   1.911  -2.755  0.00  0.00    +0.277 C 
ENDBRANCH  27  33
BRANCH  24  35
ATOM     35  O   UNL     1       3.481   2.230  -4.306  0.00  0.00    -0.495 OA
ATOM     36  C   UNL     1       3.357   3.416  -5.094  0.00  0.00    +0.277 C 
ENDBRANCH  24  35
ENDBRANCH  20  21
ENDBRANCH   5  20
TORSDOF 7
