REMARK  Name = ZINC08635457
REMARK  8 active torsions:
REMARK  status: ('A' for Active; 'I' for Inactive)
REMARK    1  A    between atoms: C_1  and  N_2
REMARK    2  A    between atoms: C_3  and  C_12
REMARK    3  A    between atoms: C_5  and  C_7
REMARK    4  A    between atoms: C_20  and  C_22
REMARK    5  A    between atoms: C_22  and  N_23
REMARK    6  A    between atoms: N_23  and  C_24
REMARK    7  A    between atoms: C_24  and  N_26
REMARK    8  A    between atoms: N_26  and  C_27
REMARK                            x       y       z     vdW  Elec       q    Type
REMARK                         _______ _______ _______ _____ _____    ______ ____
ROOT
ATOM      1  C   UNL     1       0.525   1.113  -0.958  0.00  0.00    +0.024 C 
ATOM      2  C   UNL     1       2.030   1.314  -1.163  0.00  0.00    -0.068 C 
ATOM      3  C   UNL     1       2.360   1.682   1.208  0.00  0.00    -0.078 C 
ATOM      4  C   UNL     1       0.866   1.491   1.481  0.00  0.00    -0.015 C 
ATOM      5  C   UNL     1       0.074   1.946   0.249  0.00  0.00    -0.007 C 
ATOM      6  C   UNL     1       0.400   3.419  -0.025  0.00  0.00    -0.010 C 
ATOM      7  C   UNL     1       1.907   3.558  -0.257  0.00  0.00    -0.051 C 
ATOM      8  N   UNL     1       2.570   2.240  -0.145  0.00  0.00    +0.383 N 
ATOM      9  H   UNL     1       3.577   2.359  -0.304  0.00  0.00    -0.081 HD
ENDROOT
BRANCH   1  12
ATOM     10  C   UNL     1      -2.504   1.735  -1.171  0.00  0.00    +0.172 C 
ATOM     11  N   UNL     1      -1.537   1.832  -2.268  0.00  0.00    -0.271 N 
ATOM     12  C   UNL     1      -0.217   1.564  -2.189  0.00  0.00    +0.041 A 
ATOM     13  C   UNL     1       0.322   1.778  -3.412  0.00  0.00    +0.048 A 
ATOM     14  C   UNL     1      -0.706   2.183  -4.269  0.00  0.00    +0.066 A 
ATOM     15  N   UNL     1      -1.820   2.219  -3.584  0.00  0.00    -0.176 NA
BRANCH  14  16
ATOM     16  C   UNL     1      -0.555   2.525  -5.729  0.00  0.00    +0.040 C 
ATOM     17  C   UNL     1       0.547   1.653  -6.365  0.00  0.00    +0.010 C 
ATOM     18  C   UNL     1       1.253   2.603  -7.365  0.00  0.00    +0.001 C 
ATOM     19  C   UNL     1       1.258   3.954  -6.609  0.00  0.00    +0.001 C 
ATOM     20  C   UNL     1      -0.104   3.988  -5.884  0.00  0.00    +0.010 C 
ENDBRANCH  14  16
ENDBRANCH   1  12
BRANCH   7  21
ATOM     21  C   UNL     1       2.159   4.123  -1.656  0.00  0.00    +0.088 C 
BRANCH  21  22
ATOM     22  N   UNL     1       3.599   4.144  -1.923  0.00  0.00    -0.328 N 
ATOM     23  H   UNL     1       4.221   3.825  -1.250  0.00  0.00    +0.148 HD
BRANCH  22  24
ATOM     24  C   UNL     1       4.059   4.605  -3.103  0.00  0.00    +0.134 C 
ATOM     25  S   UNL     1       2.961   5.167  -4.289  0.00  0.00    -0.019 S 
BRANCH  24  26
ATOM     26  N   UNL     1       5.385   4.623  -3.348  0.00  0.00    -0.297 N 
ATOM     27  H   UNL     1       6.002   4.233  -2.710  0.00  0.00    +0.154 HD
BRANCH  26  28
ATOM     28  C   UNL     1       5.870   5.207  -4.524  0.00  0.00    +0.033 A 
ATOM     29  C   UNL     1       6.896   4.595  -5.231  0.00  0.00    +0.023 A 
ATOM     30  C   UNL     1       7.370   5.170  -6.394  0.00  0.00    +0.002 A 
ATOM     31  C   UNL     1       6.831   6.360  -6.848  0.00  0.00    +0.000 A 
ATOM     32  C   UNL     1       5.812   6.974  -6.143  0.00  0.00    +0.002 A 
ATOM     33  C   UNL     1       5.330   6.401  -4.982  0.00  0.00    +0.023 A 
ENDBRANCH  26  28
ENDBRANCH  24  26
ENDBRANCH  22  24
ENDBRANCH  21  22
ENDBRANCH   7  21
TORSDOF 7
