REMARK  Name = ZINC63213532
REMARK  5 active torsions:
REMARK  status: ('A' for Active; 'I' for Inactive)
REMARK    1  A    between atoms: C_1  and  C_2
REMARK    2  A    between atoms: N_5  and  S_8
REMARK    3  A    between atoms: S_8  and  N_11
REMARK    4  A    between atoms: N_11  and  C_12
REMARK    5  A    between atoms: C_19  and  N_21
REMARK                            x       y       z     vdW  Elec       q    Type
REMARK                         _______ _______ _______ _____ _____    ______ ____
ROOT
ATOM      1  N   UNL     1      -0.817  -5.169   1.546  0.00  0.00    -0.178 NA
ATOM      2  H   UNL     1      -1.533  -5.765   1.275  0.00  0.00    +0.149 HD
ENDROOT
BRANCH   1   3
ATOM      3  C   UNL     1       0.578  -5.596   1.421  0.00  0.00    +0.063 C 
ATOM      4  C   UNL     1       1.075  -5.269  -0.000  0.00  0.00    +0.019 C 
ATOM      5  C   UNL     1       2.352  -6.043  -0.380  0.00  0.00    +0.001 C 
ATOM      6  C   UNL     1       3.346  -6.101   0.749  0.00  0.00    -0.000 C 
ATOM      7  C   UNL     1       3.126  -7.415   1.527  0.00  0.00    -0.002 C 
ATOM      8  C   UNL     1       2.009  -7.329   2.456  0.00  0.00    -0.015 C 
ATOM      9  C   UNL     1       0.668  -7.064   1.737  0.00  0.00    -0.056 C 
BRANCH   9  10
ATOM     10  N   UNL     1      -0.446  -7.450   2.614  0.00  0.00    +0.381 N 
ATOM     11  H   UNL     1      -1.321  -7.260   2.150  0.00  0.00    -0.090 HD
ATOM     12  H   UNL     1      -0.383  -8.434   2.825  0.00  0.00    -0.090 HD
ATOM     13  H   UNL     1      -0.398  -6.919   3.471  0.00  0.00    -0.090 HD
ENDBRANCH   9  10
ENDBRANCH   1   3
BRANCH   1  14
ATOM     14  S   UNL     1      -1.173  -3.668   2.148  0.00  0.00    +0.097 S 
ATOM     15  O   UNL     1      -0.421  -3.521   3.344  0.00  0.00    -0.141 OA
ATOM     16  O   UNL     1      -2.589  -3.544   2.119  0.00  0.00    -0.141 OA
BRANCH  14  21
ATOM     17  C   UNL     1      -0.019   1.526   0.010  0.00  0.00    +0.007 C 
ATOM     18  C   UNL     1       0.002  -0.004   0.002  0.00  0.00    -0.012 C 
ATOM     19  C   UNL     1      -1.434  -0.533   0.011  0.00  0.00    +0.020 C 
ATOM     20  C   UNL     1      -1.409  -2.065  -0.032  0.00  0.00    +0.111 C 
ATOM     21  N   UNL     1      -0.578  -2.556   1.075  0.00  0.00    -0.167 NA
ATOM     22  C   UNL     1       0.791  -2.042   1.212  0.00  0.00    +0.111 C 
ATOM     23  C   UNL     1       0.742  -0.511   1.242  0.00  0.00    +0.020 C 
ENDBRANCH  14  21
ENDBRANCH   1  14
TORSDOF 4
