REMARK  Name = ZINC08821461
REMARK  5 active torsions:
REMARK  status: ('A' for Active; 'I' for Inactive)
REMARK    1  A    between atoms: C_4  and  C_7
REMARK    2  A    between atoms: C_7  and  C_8
REMARK    3  A    between atoms: N_10  and  N_11
REMARK    4  A    between atoms: C_15  and  C_16
REMARK    5  A    between atoms: C_19  and  C_21
REMARK                            x       y       z     vdW  Elec       q    Type
REMARK                         _______ _______ _______ _____ _____    ______ ____
ROOT
ATOM      1  N   UNL     1      -3.529   3.452   2.955  0.00  0.00    -0.170 N 
ATOM      2  C   UNL     1      -4.524   2.746   3.465  0.00  0.00    +0.275 C 
ATOM      3  O   UNL     1      -5.261   2.092   2.749  0.00  0.00    -0.267 OA
ATOM      4  C   UNL     1      -4.705   2.771   4.881  0.00  0.00    +0.082 C 
ATOM      5  C   UNL     1      -5.640   2.137   5.648  0.00  0.00    +0.066 C 
ATOM      6  S   UNL     1      -3.379   3.863   5.376  0.00  0.00    -0.059 S 
ATOM      7  C   UNL     1      -2.715   4.182   3.749  0.00  0.00    +0.138 C 
ATOM      8  S   UNL     1      -1.384   5.164   3.307  0.00  0.00    -0.026 S 
ENDROOT
BRANCH   5   9
ATOM      9  C   UNL     1      -6.493   1.174   5.068  0.00  0.00    +0.130 A 
ATOM     10  C   UNL     1      -7.566   0.559   5.689  0.00  0.00    +0.050 A 
ATOM     11  C   UNL     1      -8.126  -0.314   4.753  0.00  0.00    +0.050 A 
ATOM     12  C   UNL     1      -7.382  -0.213   3.611  0.00  0.00    +0.136 A 
ATOM     13  O   UNL     1      -6.401   0.686   3.813  0.00  0.00    -0.455 OA
BRANCH  12  14
ATOM     14  C   UNL     1      -7.615  -0.966   2.364  0.00  0.00    +0.019 A 
ATOM     15  C   UNL     1      -6.779  -0.771   1.261  0.00  0.00    +0.013 A 
ATOM     16  C   UNL     1      -7.001  -1.478   0.098  0.00  0.00    +0.022 A 
ATOM     17  C   UNL     1      -8.051  -2.378   0.020  0.00  0.00    +0.059 A 
ATOM     18  C   UNL     1      -8.884  -2.576   1.110  0.00  0.00    +0.060 A 
ATOM     19  C   UNL     1      -8.668  -1.879   2.282  0.00  0.00    +0.033 A 
ATOM     20 CL   UNL     1     -10.197  -3.707   1.004  0.00  0.00    -0.082 Cl
ATOM     21 CL   UNL     1      -8.324  -3.263  -1.448  0.00  0.00    -0.082 Cl
ENDBRANCH  12  14
ENDBRANCH   5   9
BRANCH   1  24
ATOM     22  C   UNL     1      -2.295   2.746   1.045  0.00  0.00    +0.234 C 
ATOM     23  O   UNL     1      -1.554   2.119   1.773  0.00  0.00    -0.274 OA
ATOM     24  N   UNL     1      -3.319   3.447   1.569  0.00  0.00    -0.226 N 
ATOM     25  H   UNL     1      -3.912   3.949   0.988  0.00  0.00    +0.173 HD
BRANCH  22  26
ATOM     26  C   UNL     1      -2.069   2.741  -0.445  0.00  0.00    +0.132 C 
BRANCH  26  30
ATOM     27  C   UNL     1       1.331   0.327  -1.373  0.00  0.00    +0.000 A 
ATOM     28  C   UNL     1       0.072  -0.242  -1.323  0.00  0.00    +0.000 A 
ATOM     29  C   UNL     1      -1.028   0.538  -1.021  0.00  0.00    +0.004 A 
ATOM     30  C   UNL     1      -0.869   1.888  -0.768  0.00  0.00    -0.039 A 
ATOM     31  C   UNL     1       0.390   2.457  -0.818  0.00  0.00    +0.004 A 
ATOM     32  C   UNL     1       1.489   1.676  -1.122  0.00  0.00    +0.000 A 
ENDBRANCH  26  30
ENDBRANCH  22  26
ENDBRANCH   1  24
TORSDOF 5
