REMARK  Name = ZINC36065016
REMARK  11 active torsions:
REMARK  status: ('A' for Active; 'I' for Inactive)
REMARK    1  A    between atoms: C_1  and  C_2
REMARK    2  A    between atoms: C_3  and  C_31
REMARK    3  A    between atoms: C_4  and  C_24
REMARK    4  A    between atoms: C_7  and  C_12
REMARK    5  A    between atoms: C_13  and  N_15
REMARK    6  A    between atoms: N_15  and  C_16
REMARK    7  A    between atoms: C_16  and  C_17
REMARK    8  A    between atoms: C_31  and  O_33
REMARK    9  A    between atoms: O_33  and  C_34
REMARK   10  A    between atoms: C_34  and  C_35
REMARK   11  A    between atoms: C_34  and  C_36
REMARK                            x       y       z     vdW  Elec       q    Type
REMARK                         _______ _______ _______ _____ _____    ______ ____
ROOT
ATOM      1  C   UNL     1       0.042   1.780  -0.015  0.00  0.00    +0.066 C 
ATOM      2  C   UNL     1       0.051   0.273   0.018  0.00  0.00    +0.053 C 
ATOM      3  C   UNL     1      -1.145  -0.419   0.043  0.00  0.00    +0.083 C 
ATOM      4  C   UNL     1      -1.084  -1.930   0.076  0.00  0.00    +0.152 C 
ATOM      5  N   UNL     1       0.267  -2.553   0.078  0.00  0.00    -0.267 N 
ATOM      6  C   UNL     1       0.559  -3.902   0.105  0.00  0.00    +0.048 C 
ATOM      7  C   UNL     1       1.862  -4.261   0.102  0.00  0.00    +0.072 C 
ATOM      8  S   UNL     1       2.680  -2.679   0.060  0.00  0.00    -0.060 S 
ATOM      9  C   UNL     1       1.325  -1.689   0.051  0.00  0.00    +0.166 C 
ATOM     10  N   UNL     1       1.203  -0.378   0.018  0.00  0.00    -0.230 NA
ENDROOT
BRANCH   4  11
ATOM     11  C   UNL     1      -1.812  -2.397   1.310  0.00  0.00    +0.013 A 
ATOM     12  C   UNL     1      -3.062  -2.976   1.198  0.00  0.00    +0.008 A 
ATOM     13  C   UNL     1      -3.730  -3.404   2.330  0.00  0.00    +0.001 A 
ATOM     14  C   UNL     1      -3.148  -3.255   3.575  0.00  0.00    +0.003 A 
ATOM     15  C   UNL     1      -1.898  -2.677   3.689  0.00  0.00    +0.039 A 
ATOM     16  C   UNL     1      -1.226  -2.252   2.556  0.00  0.00    +0.129 A 
ATOM     17  F   UNL     1      -0.001  -1.692   2.666  0.00  0.00    -0.205 F 
ENDBRANCH   4  11
BRANCH   6  18
ATOM     18  C   UNL     1      -0.508  -4.912   0.136  0.00  0.00    +0.091 C 
ATOM     19  C   UNL     1      -0.200  -6.214   0.294  0.00  0.00    +0.239 C 
ATOM     20  O   UNL     1       1.098  -6.605   0.315  0.00  0.00    -0.271 OA
BRANCH  19  21
ATOM     21  N   UNL     1      -1.208  -7.152   0.436  0.00  0.00    -0.308 N 
ATOM     22  H   UNL     1      -2.136  -6.872   0.422  0.00  0.00    +0.149 HD
BRANCH  21  23
ATOM     23  C   UNL     1      -0.872  -8.568   0.609  0.00  0.00    +0.139 C 
BRANCH  23  24
ATOM     24  C   UNL     1      -2.139  -9.372   0.740  0.00  0.00    -0.030 A 
ATOM     25  C   UNL     1      -2.697  -9.585   1.987  0.00  0.00    +0.008 A 
ATOM     26  C   UNL     1      -3.859 -10.323   2.108  0.00  0.00    +0.038 A 
ATOM     27  C   UNL     1      -4.466 -10.848   0.980  0.00  0.00    +0.123 A 
ATOM     28  C   UNL     1      -3.907 -10.634  -0.269  0.00  0.00    +0.038 A 
ATOM     29  C   UNL     1      -2.747  -9.892  -0.388  0.00  0.00    +0.008 A 
ATOM     30  F   UNL     1      -5.602 -11.569   1.097  0.00  0.00    -0.205 F 
ENDBRANCH  23  24
ENDBRANCH  21  23
ENDBRANCH  19  21
ENDBRANCH   6  18
BRANCH   3  31
ATOM     31  C   UNL     1      -2.372   0.255   0.039  0.00  0.00    +0.339 C 
ATOM     32  O   UNL     1      -2.399   1.471   0.120  0.00  0.00    -0.245 OA
BRANCH  31  33
ATOM     33  O   UNL     1      -3.526  -0.442  -0.055  0.00  0.00    -0.459 OA
BRANCH  33  34
ATOM     34  C   UNL     1      -4.740   0.311  -0.053  0.00  0.00    +0.171 C 
ATOM     35  C   UNL     1      -5.115   0.676  -1.491  0.00  0.00    +0.052 C 
ATOM     36  C   UNL     1      -5.859  -0.527   0.569  0.00  0.00    +0.052 C 
ENDBRANCH  33  34
ENDBRANCH  31  33
ENDBRANCH   3  31
TORSDOF 8
