REMARK  Name = ZINC31167698
REMARK  7 active torsions:
REMARK  status: ('A' for Active; 'I' for Inactive)
REMARK    1  A    between atoms: C_4  and  C_7
REMARK    2  A    between atoms: C_12  and  O_28
REMARK    3  A    between atoms: C_14  and  O_27
REMARK    4  A    between atoms: C_15  and  C_18
REMARK    5  A    between atoms: C_18  and  C_19
REMARK    6  A    between atoms: C_23  and  O_26
REMARK    7  A    between atoms: C_24  and  O_25
REMARK                            x       y       z     vdW  Elec       q    Type
REMARK                         _______ _______ _______ _____ _____    ______ ____
ROOT
ATOM      1  C   UNL     1      -1.868   4.601  -2.542  0.00  0.00    +0.139 A 
ATOM      2  C   UNL     1      -1.731   5.045  -3.819  0.00  0.00    +0.098 A 
ATOM      3  C   UNL     1      -0.436   5.179  -4.376  0.00  0.00    +0.197 A 
ATOM      4  O   UNL     1      -0.275   5.575  -5.519  0.00  0.00    -0.287 OA
ATOM      5  C   UNL     1       0.709   4.821  -3.522  0.00  0.00    +0.106 A 
ATOM      6  C   UNL     1       2.026   4.922  -3.991  0.00  0.00    +0.135 A 
ATOM      7  C   UNL     1       3.073   4.575  -3.157  0.00  0.00    +0.092 A 
ATOM      8  C   UNL     1       2.819   4.137  -1.862  0.00  0.00    +0.127 A 
ATOM      9  C   UNL     1       1.519   4.029  -1.394  0.00  0.00    +0.042 A 
ATOM     10  C   UNL     1       0.456   4.372  -2.215  0.00  0.00    +0.150 A 
ATOM     11  O   UNL     1      -0.817   4.278  -1.774  0.00  0.00    -0.454 OA
ENDROOT
BRANCH   1  15
ATOM     12  C   UNL     1      -5.775   4.218  -0.923  0.00  0.00    +0.000 A 
ATOM     13  C   UNL     1      -4.674   3.891  -0.151  0.00  0.00    +0.001 A 
ATOM     14  C   UNL     1      -3.402   4.013  -0.671  0.00  0.00    +0.011 A 
ATOM     15  C   UNL     1      -3.227   4.467  -1.979  0.00  0.00    +0.017 A 
ATOM     16  C   UNL     1      -4.342   4.800  -2.751  0.00  0.00    +0.011 A 
ATOM     17  C   UNL     1      -5.608   4.669  -2.221  0.00  0.00    +0.001 A 
ENDBRANCH   1  15
BRANCH   8  18
ATOM     18  O   UNL     1       3.855   3.805  -1.050  0.00  0.00    -0.506 OA
ATOM     19  H   UNL     1       3.661   3.458  -0.024  0.00  0.00    +0.292 HD
ENDBRANCH   8  18
BRANCH   6  20
ATOM     20  O   UNL     1       2.271   5.356  -5.253  0.00  0.00    -0.506 OA
ATOM     21  H   UNL     1       3.306   5.433  -5.616  0.00  0.00    +0.292 HD
ENDBRANCH   6  20
BRANCH   9  22
ATOM     22  C   UNL     1       1.262   3.546   0.010  0.00  0.00    +0.081 C 
BRANCH  22  23
ATOM     23  C   UNL     1       1.399   4.698   0.971  0.00  0.00    +0.002 A 
ATOM     24  C   UNL     1       2.611   4.941   1.591  0.00  0.00    +0.008 A 
ATOM     25  C   UNL     1       2.740   5.997   2.473  0.00  0.00    +0.004 A 
ATOM     26  C   UNL     1       1.658   6.816   2.739  0.00  0.00    +0.049 A 
ATOM     27  C   UNL     1       0.441   6.578   2.122  0.00  0.00    +0.159 A 
ATOM     28  C   UNL     1       0.311   5.514   1.234  0.00  0.00    +0.162 A 
BRANCH  28  29
ATOM     29  O   UNL     1      -0.882   5.277   0.625  0.00  0.00    -0.503 OA
ATOM     30  H   UNL     1      -1.745   5.926   0.834  0.00  0.00    +0.292 HD
ENDBRANCH  28  29
BRANCH  27  31
ATOM     31  O   UNL     1      -0.625   7.382   2.383  0.00  0.00    -0.503 OA
ATOM     32  H   UNL     1      -1.590   7.192   1.892  0.00  0.00    +0.292 HD
ENDBRANCH  27  31
ENDBRANCH  22  23
ENDBRANCH   9  22
TORSDOF 7
