REMARK  Name = ZINC12887841
REMARK  9 active torsions:
REMARK  status: ('A' for Active; 'I' for Inactive)
REMARK    1  A    between atoms: C_1  and  C_2
REMARK    2  A    between atoms: C_5  and  C_8
REMARK    3  A    between atoms: C_8  and  C_9
REMARK    4  A    between atoms: C_9  and  C_10
REMARK    5  A    between atoms: C_15  and  C_17
REMARK    6  A    between atoms: C_15  and  C_18
REMARK    7  A    between atoms: C_15  and  N_59
REMARK    8  A    between atoms: N_24  and  C_25
REMARK    9  A    between atoms: N_24  and  C_26
REMARK                            x       y       z     vdW  Elec       q    Type
REMARK                         _______ _______ _______ _____ _____    ______ ____
ROOT
ATOM      1  C   UNL     1       1.396   3.562   0.008  0.00  0.00    -0.014 C 
ATOM      2  C   UNL     1       0.774   4.073  -1.295  0.00  0.00    -0.015 C 
ATOM      3  C   UNL     1       0.812   5.603  -1.307  0.00  0.00    -0.078 C 
ATOM      4  C   UNL     1       2.806   5.622   0.069  0.00  0.00    -0.078 C 
ATOM      5  C   UNL     1       2.828   4.093   0.123  0.00  0.00    -0.015 C 
ATOM      6  N   UNL     1       2.219   6.049  -1.218  0.00  0.00    +0.386 N 
ATOM      7  H   UNL     1       2.752   5.623  -1.985  0.00  0.00    -0.081 HD
ENDROOT
BRANCH   6   8
ATOM      8  C   UNL     1       2.290   7.519  -1.343  0.00  0.00    -0.002 C 
ATOM      9  C   UNL     1       3.759   7.946  -1.326  0.00  0.00    -0.005 C 
BRANCH   8  10
ATOM     10  C   UNL     1       1.662   7.931  -2.650  0.00  0.00    +0.123 A 
ATOM     11  N   UNL     1       1.938   7.258  -3.754  0.00  0.00    -0.201 NA
ATOM     12  C   UNL     1       1.381   7.616  -4.909  0.00  0.00    +0.217 A 
ATOM     13  N   UNL     1       0.556   8.656  -4.953  0.00  0.00    -0.181 NA
ATOM     14  C   UNL     1       0.286   9.332  -3.842  0.00  0.00    +0.222 A 
ATOM     15  N   UNL     1       0.842   8.966  -2.690  0.00  0.00    -0.201 NA
ATOM     16  N   UNL     1      -0.571  10.413  -3.883  0.00  0.00    -0.306 N 
ATOM     17  C   UNL     1      -0.869  11.158  -2.657  0.00  0.00    +0.132 C 
ATOM     18  C   UNL     1      -1.183  10.816  -5.151  0.00  0.00    +0.132 C 
ATOM     19  N   UNL     1       1.666   6.910  -6.060  0.00  0.00    -0.327 N 
ATOM     20  H   UNL     1       1.263   7.174  -6.902  0.00  0.00    +0.145 HD
ATOM     21  H   UNL     1       2.268   6.151  -6.027  0.00  0.00    +0.145 HD
ENDBRANCH   8  10
ENDBRANCH   6   8
BRANCH   1  22
ATOM     22  C   UNL     1       1.417   2.032  -0.001  0.00  0.00    +0.008 C 
BRANCH  22  23
ATOM     23  C   UNL     1      -0.018   1.503   0.010  0.00  0.00    +0.035 C 
BRANCH  23  28
ATOM     24  C   UNL     1       0.061  -4.275  -0.021  0.00  0.00    +0.044 C 
ATOM     25  C   UNL     1       0.039  -2.768  -0.013  0.00  0.00    -0.050 A 
ATOM     26  C   UNL     1       0.042  -2.084   1.188  0.00  0.00    +0.003 A 
ATOM     27  C   UNL     1       0.023  -0.702   1.195  0.00  0.00    +0.004 A 
ATOM     28  C   UNL     1       0.002  -0.004   0.002  0.00  0.00    -0.047 A 
ATOM     29  C   UNL     1      -0.006  -0.689  -1.199  0.00  0.00    +0.004 A 
ATOM     30  C   UNL     1       0.018  -2.071  -1.206  0.00  0.00    +0.003 A 
ENDBRANCH  23  28
ENDBRANCH  22  23
ENDBRANCH   1  22
TORSDOF 5
