REMARK  Name = ZINC41326672
REMARK  5 active torsions:
REMARK  status: ('A' for Active; 'I' for Inactive)
REMARK    1  A    between atoms: C_3  and  S_13
REMARK    2  A    between atoms: C_6  and  O_7
REMARK    3  A    between atoms: O_7  and  C_8
REMARK    4  A    between atoms: S_13  and  N_16
REMARK    5  A    between atoms: N_16  and  N_17
REMARK                            x       y       z     vdW  Elec       q    Type
REMARK                         _______ _______ _______ _____ _____    ______ ____
ROOT
ATOM      1  C   UNL     1      -0.077   1.363  -0.457  0.00  0.00    +0.047 A 
ATOM      2  C   UNL     1       1.085   2.069  -0.702  0.00  0.00    +0.028 A 
ATOM      3  C   UNL     1       2.302   1.413  -0.723  0.00  0.00    +0.062 A 
ATOM      4  C   UNL     1       2.359   0.049  -0.499  0.00  0.00    +0.028 A 
ATOM      5  C   UNL     1       1.199  -0.661  -0.254  0.00  0.00    +0.047 A 
ATOM      6  C   UNL     1      -0.023  -0.005  -0.232  0.00  0.00    +0.121 A 
ENDROOT
BRANCH   3   7
ATOM      7  S   UNL     1       3.782   2.315  -1.036  0.00  0.00    -0.096 S 
ATOM      8  O   UNL     1       4.727   1.382  -1.543  0.00  0.00    -0.195 OA
ATOM      9  O   UNL     1       3.403   3.481  -1.754  0.00  0.00    -0.195 OA
BRANCH   7  10
ATOM     10  N   UNL     1       4.362   2.828   0.428  0.00  0.00    +0.409 NA
BRANCH  10  11
ATOM     11  N   UNL     1       5.514   3.561   0.487  0.00  0.00    +0.372 N 
ATOM     12  H   UNL     1       5.719   3.787   1.449  0.00  0.00    -0.137 HD
ATOM     13  H   UNL     1       6.274   3.024   0.099  0.00  0.00    -0.137 HD
ATOM     14  H   UNL     1       5.398   4.412  -0.041  0.00  0.00    -0.137 HD
ENDBRANCH  10  11
ENDBRANCH   7  10
ENDBRANCH   3   7
BRANCH   6  15
ATOM     15  O   UNL     1      -1.165  -0.701   0.010  0.00  0.00    -0.489 OA
BRANCH  15  16
ATOM     16  C   UNL     1      -2.371   0.055   0.137  0.00  0.00    +0.173 C 
ATOM     17  C   UNL     1      -3.044   0.239  -1.246  0.00  0.00    +0.044 C 
ATOM     18  C   UNL     1      -4.525   0.494  -0.874  0.00  0.00    +0.004 C 
ATOM     19  C   UNL     1      -4.783  -0.447   0.321  0.00  0.00    +0.004 C 
ATOM     20  C   UNL     1      -3.413  -0.726   0.964  0.00  0.00    +0.044 C 
ENDBRANCH  15  16
ENDBRANCH   6  15
TORSDOF 5
