REMARK  Name = ZINC23538764
REMARK  10 active torsions:
REMARK  status: ('A' for Active; 'I' for Inactive)
REMARK    1  A    between atoms: C_1  and  C_2
REMARK    2  A    between atoms: C_2  and  N_3
REMARK    3  A    between atoms: C_13  and  S_14
REMARK    4  A    between atoms: S_14  and  C_15
REMARK    5  A    between atoms: C_15  and  C_17
REMARK    6  A    between atoms: C_15  and  C_18
REMARK    7  A    between atoms: N_20  and  C_21
REMARK    8  A    between atoms: C_22  and  C_29
REMARK    9  A    between atoms: C_24  and  C_28
REMARK   10  A    between atoms: C_26  and  C_27
REMARK                            x       y       z     vdW  Elec       q    Type
REMARK                         _______ _______ _______ _____ _____    ______ ____
ROOT
ATOM      1  S   UNL     1       7.287  -0.027  -1.444  0.00  0.00    -0.075 S 
ENDROOT
BRANCH   1  12
ATOM      2  N   UNL     1       9.736  -0.886  -2.173  0.00  0.00    -0.288 N 
ATOM      3  C   UNL     1      10.787  -1.738  -2.196  0.00  0.00    +0.262 A 
ATOM      4  O   UNL     1      11.789  -1.486  -2.839  0.00  0.00    -0.267 OA
ATOM      5  C   UNL     1      10.670  -2.982  -1.423  0.00  0.00    +0.066 A 
ATOM      6  C   UNL     1      11.696  -3.926  -1.388  0.00  0.00    +0.030 A 
ATOM      7  C   UNL     1      11.532  -5.075  -0.645  0.00  0.00    +0.019 A 
ATOM      8  C   UNL     1      10.358  -5.297   0.065  0.00  0.00    +0.017 A 
ATOM      9  C   UNL     1       9.341  -4.385   0.045  0.00  0.00    +0.029 A 
ATOM     10  C   UNL     1       9.477  -3.209  -0.700  0.00  0.00    +0.079 A 
ATOM     11  N   UNL     1       8.492  -2.282  -0.745  0.00  0.00    -0.223 NA
ATOM     12  C   UNL     1       8.620  -1.180  -1.442  0.00  0.00    +0.173 A 
ATOM     13 BR   UNL     1      12.917  -6.362  -0.592  0.00  0.00    -0.050 Br
BRANCH   2  15
ATOM     14  C   UNL     1      10.394   1.467  -2.051  0.00  0.00    +0.027 C 
ATOM     15  C   UNL     1       9.799   0.366  -2.931  0.00  0.00    +0.124 C 
ENDBRANCH   2  15
ENDBRANCH   1  12
BRANCH   1  16
ATOM     16  C   UNL     1       6.121  -0.895  -0.366  0.00  0.00    +0.137 C 
ATOM     17  C   UNL     1       6.707  -0.997   1.044  0.00  0.00    +0.029 C 
BRANCH  16  18
ATOM     18  C   UNL     1       4.822  -0.133  -0.315  0.00  0.00    +0.230 C 
ATOM     19  O   UNL     1       4.794   1.040  -0.625  0.00  0.00    -0.274 OA
ATOM     20  N   UNL     1       3.691  -0.753   0.075  0.00  0.00    -0.284 N 
ATOM     21  H   UNL     1       3.729  -1.793   0.432  0.00  0.00    +0.155 HD
BRANCH  20  22
ATOM     22  C   UNL     1       2.467  -0.076   0.024  0.00  0.00    +0.039 A 
ATOM     23  C   UNL     1       1.409  -0.605  -0.703  0.00  0.00    -0.029 A 
ATOM     24  C   UNL     1       0.203   0.067  -0.751  0.00  0.00    +0.008 A 
ATOM     25  C   UNL     1       0.048   1.264  -0.076  0.00  0.00    -0.050 A 
ATOM     26  C   UNL     1       1.101   1.792   0.649  0.00  0.00    +0.008 A 
ATOM     27  C   UNL     1       2.309   1.126   0.701  0.00  0.00    -0.029 A 
ATOM     28  C   UNL     1       3.455   1.703   1.492  0.00  0.00    +0.045 C 
ATOM     29  C   UNL     1      -1.267   1.996  -0.136  0.00  0.00    +0.044 C 
ATOM     30  C   UNL     1       1.576  -1.909  -1.439  0.00  0.00    +0.045 C 
ENDBRANCH  20  22
ENDBRANCH  16  18
ENDBRANCH   1  16
TORSDOF 5
