REMARK  Name = ZINC19703273
REMARK  6 active torsions:
REMARK  status: ('A' for Active; 'I' for Inactive)
REMARK    1  A    between atoms: C_1  and  C_2
REMARK    2  A    between atoms: C_2  and  O_3
REMARK    3  A    between atoms: O_3  and  C_4
REMARK    4  A    between atoms: C_4  and  C_6
REMARK    5  A    between atoms: C_7  and  C_22
REMARK    6  A    between atoms: C_11  and  C_13
REMARK                            x       y       z     vdW  Elec       q    Type
REMARK                         _______ _______ _______ _____ _____    ______ ____
ROOT
ATOM      1  C   UNL     1      -4.263   1.153   2.325  0.00  0.00    +0.060 C 
ATOM      2  C   UNL     1      -4.888   1.253   3.506  0.00  0.00    +0.016 C 
ATOM      3  N   UNL     1      -6.101   0.668   3.758  0.00  0.00    -0.317 N 
ATOM      4  C   UNL     1      -6.568  -0.272   2.864  0.00  0.00    +0.047 C 
ATOM      5  C   UNL     1      -5.998  -0.435   1.627  0.00  0.00    +0.029 C 
ATOM      6  C   UNL     1      -4.837   0.404   1.152  0.00  0.00    +0.060 C 
ATOM      7  C   UNL     1      -5.317   1.400   0.094  0.00  0.00    +0.018 C 
ATOM      8  C   UNL     1      -6.668  -1.463   0.927  0.00  0.00    +0.192 C 
ATOM      9  O   UNL     1      -6.408  -1.857  -0.194  0.00  0.00    -0.287 OA
ATOM     10  C   UNL     1      -7.742  -1.973   1.807  0.00  0.00    +0.031 A 
ATOM     11  C   UNL     1      -7.673  -1.225   3.010  0.00  0.00    +0.007 A 
ATOM     12  C   UNL     1      -8.558  -1.465   4.049  0.00  0.00    +0.010 A 
ATOM     13  C   UNL     1      -9.509  -2.470   3.852  0.00  0.00    +0.001 A 
ATOM     14  C   UNL     1      -9.573  -3.193   2.685  0.00  0.00    +0.001 A 
ATOM     15  C   UNL     1      -8.688  -2.963   1.626  0.00  0.00    +0.012 A 
ATOM     16  C   UNL     1      -4.227   2.043   4.606  0.00  0.00    +0.061 C 
ATOM     17  H   UNL     1      -6.673   0.952   4.653  0.00  0.00    +0.152 HD
ENDROOT
BRANCH   1  18
ATOM     18  C   UNL     1      -3.007   1.787   2.171  0.00  0.00    +0.337 C 
ATOM     19  O   UNL     1      -1.988   1.122   2.159  0.00  0.00    -0.245 OA
BRANCH  18  20
ATOM     20  O   UNL     1      -2.940   3.128   2.037  0.00  0.00    -0.462 OA
BRANCH  20  22
ATOM     21  C   UNL     1      -1.763   5.219   1.749  0.00  0.00    +0.048 C 
ATOM     22  C   UNL     1      -1.639   3.700   1.886  0.00  0.00    +0.229 C 
ENDBRANCH  20  22
ENDBRANCH  18  20
ENDBRANCH   1  18
TORSDOF 3
