REMARK  Name = ZINC35450257
REMARK  10 active torsions:
REMARK  status: ('A' for Active; 'I' for Inactive)
REMARK    1  A    between atoms: C_1  and  C_2
REMARK    2  A    between atoms: C_2  and  C_3
REMARK    3  A    between atoms: C_3  and  C_5
REMARK    4  A    between atoms: C_3  and  S_6
REMARK    5  A    between atoms: S_6  and  C_7
REMARK    6  A    between atoms: C_14  and  C_26
REMARK    7  A    between atoms: C_20  and  C_24
REMARK    8  A    between atoms: C_20  and  C_25
REMARK    9  A    between atoms: C_31  and  O_32
REMARK   10  A    between atoms: O_32  and  C_33
REMARK                            x       y       z     vdW  Elec       q    Type
REMARK                         _______ _______ _______ _____ _____    ______ ____
ROOT
ATOM      1  C   UNL     1       0.852  -0.566   4.057  0.00  0.00    +0.171 A 
ATOM      2  N   UNL     1       2.010  -1.133   3.787  0.00  0.00    -0.208 NA
ATOM      3  C   UNL     1       2.826  -1.538   4.766  0.00  0.00    +0.135 A 
ATOM      4  C   UNL     1       2.454  -1.364   6.088  0.00  0.00    +0.069 A 
ATOM      5  C   UNL     1       1.224  -0.760   6.369  0.00  0.00    +0.258 A 
ATOM      6  O   UNL     1       0.865  -0.588   7.524  0.00  0.00    -0.267 OA
ATOM      7  N   UNL     1       0.444  -0.365   5.341  0.00  0.00    -0.302 N 
ATOM      8  C   UNL     1       3.349  -1.818   7.203  0.00  0.00    +0.096 C 
ATOM      9  C   UNL     1       4.760  -2.036   6.720  0.00  0.00    +0.024 C 
ATOM     10  C   UNL     1       5.035  -2.184   5.407  0.00  0.00    +0.017 C 
ATOM     11  N   UNL     1       4.040  -2.126   4.469  0.00  0.00    -0.302 N 
ATOM     12  C   UNL     1       6.447  -2.425   4.931  0.00  0.00    +0.058 C 
ATOM     13  C   UNL     1       7.432  -1.730   5.873  0.00  0.00    -0.023 C 
ATOM     14  C   UNL     1       7.221  -2.281   7.287  0.00  0.00    +0.086 C 
ATOM     15  C   UNL     1       5.784  -2.078   7.682  0.00  0.00    +0.162 C 
ATOM     16  O   UNL     1       5.503  -1.948   8.857  0.00  0.00    -0.292 OA
ATOM     17  C   UNL     1       7.176  -0.221   5.865  0.00  0.00    +0.011 C 
ATOM     18  C   UNL     1       8.866  -2.012   5.419  0.00  0.00    +0.011 C 
ATOM     19  H   UNL     1       4.188  -2.501   3.587  0.00  0.00    +0.153 HD
ATOM     20  H   UNL     1      -0.410   0.060   5.516  0.00  0.00    +0.171 HD
ENDROOT
BRANCH   8  21
ATOM     21  C   UNL     1       2.817  -3.110   7.767  0.00  0.00    +0.006 A 
ATOM     22  C   UNL     1       2.702  -4.223   6.957  0.00  0.00    +0.008 A 
ATOM     23  C   UNL     1       2.214  -5.409   7.473  0.00  0.00    +0.001 A 
ATOM     24  C   UNL     1       1.840  -5.484   8.803  0.00  0.00    +0.004 A 
ATOM     25  C   UNL     1       1.953  -4.375   9.617  0.00  0.00    +0.046 A 
ATOM     26  C   UNL     1       2.447  -3.185   9.102  0.00  0.00    +0.124 A 
BRANCH  26  27
ATOM     27  O   UNL     1       2.565  -2.093   9.903  0.00  0.00    -0.495 OA
ATOM     28  C   UNL     1       2.165  -2.243  11.267  0.00  0.00    +0.277 C 
ENDBRANCH  26  27
ENDBRANCH   8  21
BRANCH   1  29
ATOM     29  S   UNL     1      -0.187  -0.052   2.730  0.00  0.00    -0.085 S 
BRANCH  29  30
ATOM     30  C   UNL     1       0.742  -0.511   1.242  0.00  0.00    +0.051 C 
ATOM     31  C   UNL     1       0.872  -2.034   1.171  0.00  0.00    +0.019 C 
BRANCH  30  33
ATOM     32  C   UNL     1      -0.019   1.526   0.010  0.00  0.00    +0.005 C 
ATOM     33  C   UNL     1       0.002  -0.004   0.002  0.00  0.00    +0.011 C 
ENDBRANCH  30  33
ENDBRANCH  29  30
ENDBRANCH   1  29
TORSDOF 5
