REMARK  Name = ZINC39666361
REMARK  11 active torsions:
REMARK  status: ('A' for Active; 'I' for Inactive)
REMARK    1  A    between atoms: C_1  and  C_2
REMARK    2  A    between atoms: C_2  and  C_4
REMARK    3  A    between atoms: C_2  and  O_31
REMARK    4  A    between atoms: C_4  and  N_5
REMARK    5  A    between atoms: C_6  and  C_8
REMARK    6  A    between atoms: C_19  and  C_21
REMARK    7  A    between atoms: C_23  and  O_29
REMARK    8  A    between atoms: C_25  and  O_27
REMARK    9  A    between atoms: O_27  and  C_28
REMARK   10  A    between atoms: O_29  and  C_30
REMARK   11  A    between atoms: O_31  and  C_32
REMARK                            x       y       z     vdW  Elec       q    Type
REMARK                         _______ _______ _______ _____ _____    ______ ____
ROOT
ATOM      1  C   UNL     1       1.625  -3.892   1.880  0.00  0.00    +0.100 C 
ATOM      2  C   UNL     1       0.224  -4.535   1.764  0.00  0.00    +0.121 C 
ATOM      3  N   UNL     1       0.322  -5.789   2.548  0.00  0.00    -0.296 N 
ATOM      4  C   UNL     1       1.139  -5.422   3.729  0.00  0.00    +0.115 C 
ATOM      5  C   UNL     1       2.222  -4.476   3.171  0.00  0.00    -0.004 C 
ATOM      6  C   UNL     1       2.513  -3.361   4.170  0.00  0.00    -0.010 C 
ATOM      7  C   UNL     1       3.159  -3.959   5.423  0.00  0.00    -0.082 C 
ATOM      8  N   UNL     1       4.402  -4.649   5.052  0.00  0.00    +0.379 N 
ATOM      9  C   UNL     1       4.102  -5.778   4.164  0.00  0.00    -0.082 C 
ATOM     10  C   UNL     1       3.495  -5.256   2.859  0.00  0.00    -0.010 C 
ATOM     11  C   UNL     1      -0.212  -6.991   2.253  0.00  0.00    +0.247 C 
ATOM     12  O   UNL     1      -0.770  -7.163   1.188  0.00  0.00    -0.270 OA
ATOM     13  H   UNL     1       5.014  -4.003   4.578  0.00  0.00    -0.086 HD
ATOM     14  H   UNL     1       4.857  -4.989   5.886  0.00  0.00    -0.086 HD
ENDROOT
BRANCH  11  15
ATOM     15  C   UNL     1      -0.119  -8.099   3.228  0.00  0.00    +0.044 A 
ATOM     16  C   UNL     1       0.027  -7.825   4.588  0.00  0.00    +0.059 A 
ATOM     17  C   UNL     1       0.113  -8.867   5.497  0.00  0.00    +0.124 A 
ATOM     18  C   UNL     1       0.055 -10.181   5.056  0.00  0.00    +0.091 A 
ATOM     19  C   UNL     1      -0.090 -10.458   3.704  0.00  0.00    +0.124 A 
ATOM     20  C   UNL     1      -0.183  -9.422   2.789  0.00  0.00    +0.059 A 
BRANCH  19  21
ATOM     21  O   UNL     1      -0.146 -11.747   3.278  0.00  0.00    -0.495 OA
ATOM     22  C   UNL     1      -0.050 -12.765   4.276  0.00  0.00    +0.277 C 
ENDBRANCH  19  21
BRANCH  17  23
ATOM     23  O   UNL     1       0.255  -8.601   6.822  0.00  0.00    -0.495 OA
ATOM     24  C   UNL     1       0.338  -9.723   7.703  0.00  0.00    +0.277 C 
ENDBRANCH  17  23
ENDBRANCH  11  15
BRANCH   1  26
ATOM     25  N   UNL     1       2.485  -1.604   1.500  0.00  0.00    -0.312 N 
ATOM     26  C   UNL     1       1.507  -2.394   1.987  0.00  0.00    +0.218 C 
ATOM     27  O   UNL     1       0.532  -1.898   2.511  0.00  0.00    -0.275 OA
ATOM     28  H   UNL     1       3.264  -2.001   1.081  0.00  0.00    +0.149 HD
BRANCH  25  29
ATOM     29  C   UNL     1       2.370  -0.147   1.605  0.00  0.00    +0.148 C 
BRANCH  29  31
ATOM     30  C   UNL     1       3.545   2.020   1.199  0.00  0.00    +0.053 C 
ATOM     31  C   UNL     1       3.604   0.507   0.980  0.00  0.00    +0.187 C 
BRANCH  31  32
ATOM     32  O   UNL     1       3.633   0.229  -0.421  0.00  0.00    -0.486 OA
BRANCH  32  33
ATOM     33  C   UNL     1       4.846   0.264  -1.033  0.00  0.00    +0.139 A 
ATOM     34  C   UNL     1       5.997   0.460  -0.283  0.00  0.00    +0.047 A 
ATOM     35  C   UNL     1       7.229   0.495  -0.907  0.00  0.00    +0.004 A 
ATOM     36  C   UNL     1       7.317   0.335  -2.277  0.00  0.00    +0.002 A 
ATOM     37  C   UNL     1       6.172   0.139  -3.028  0.00  0.00    +0.023 A 
ATOM     38  C   UNL     1       4.937   0.098  -2.408  0.00  0.00    +0.083 A 
ATOM     39 CL   UNL     1       3.501  -0.154  -3.350  0.00  0.00    -0.080 Cl
ENDBRANCH  32  33
ENDBRANCH  31  32
ENDBRANCH  29  31
ENDBRANCH  25  29
ENDBRANCH   1  26
TORSDOF 8
