REMARK  Name = ZINC22413654
REMARK  7 active torsions:
REMARK  status: ('A' for Active; 'I' for Inactive)
REMARK    1  A    between atoms: C_1  and  C_2
REMARK    2  A    between atoms: C_2  and  O_3
REMARK    3  A    between atoms: O_3  and  C_4
REMARK    4  A    between atoms: C_4  and  C_6
REMARK    5  A    between atoms: C_6  and  N_7
REMARK    6  A    between atoms: N_19  and  C_22
REMARK    7  A    between atoms: C_26  and  C_28
REMARK                            x       y       z     vdW  Elec       q    Type
REMARK                         _______ _______ _______ _____ _____    ______ ____
ROOT
ATOM      1  N   UNL     1      -2.841   1.291  -0.030  0.00  0.00    -0.279 N 
ATOM      2  C   UNL     1      -2.972   0.538  -1.179  0.00  0.00    +0.105 A 
ATOM      3  C   UNL     1      -2.568   0.726  -2.575  0.00  0.00    +0.045 A 
ATOM      4  C   UNL     1      -1.910   1.742  -3.270  0.00  0.00    +0.014 A 
ATOM      5  C   UNL     1      -1.683   1.610  -4.611  0.00  0.00    +0.001 A 
ATOM      6  C   UNL     1      -2.103   0.472  -5.286  0.00  0.00    +0.004 A 
ATOM      7  C   UNL     1      -2.755  -0.541  -4.618  0.00  0.00    +0.047 A 
ATOM      8  C   UNL     1      -2.997  -0.429  -3.253  0.00  0.00    +0.138 A 
ATOM      9  O   UNL     1      -3.597  -1.241  -2.359  0.00  0.00    -0.448 OA
ATOM     10  C   UNL     1      -3.593  -0.694  -1.124  0.00  0.00    +0.217 A 
ATOM     11  C   UNL     1      -4.089  -1.142   0.126  0.00  0.00    +0.304 A 
ATOM     12  O   UNL     1      -4.647  -2.221   0.214  0.00  0.00    -0.263 OA
ATOM     13  N   UNL     1      -3.939  -0.365   1.216  0.00  0.00    -0.226 N 
ATOM     14  C   UNL     1      -3.326   0.830   1.139  0.00  0.00    +0.338 A 
ATOM     15  O   UNL     1      -3.208   1.506   2.143  0.00  0.00    -0.246 OA
ENDROOT
BRANCH  13  16
ATOM     16  C   UNL     1      -4.429  -0.809   2.452  0.00  0.00    +0.055 A 
ATOM     17  C   UNL     1      -5.729  -0.505   2.834  0.00  0.00    +0.026 A 
ATOM     18  C   UNL     1      -6.209  -0.944   4.052  0.00  0.00    +0.002 A 
ATOM     19  C   UNL     1      -5.397  -1.686   4.891  0.00  0.00    +0.003 A 
ATOM     20  C   UNL     1      -4.103  -1.990   4.513  0.00  0.00    -0.048 A 
ATOM     21  C   UNL     1      -3.618  -1.558   3.293  0.00  0.00    +0.029 A 
ATOM     22  C   UNL     1      -3.221  -2.799   5.429  0.00  0.00    +0.044 C 
ENDBRANCH  13  16
BRANCH   1  23
ATOM     23  C   UNL     1      -2.178   2.596  -0.082  0.00  0.00    +0.247 C 
BRANCH  23  24
ATOM     24  C   UNL     1      -0.703   2.422   0.173  0.00  0.00    +0.327 C 
ATOM     25  O   UNL     1      -0.252   1.320   0.377  0.00  0.00    -0.249 OA
BRANCH  24  26
ATOM     26  O   UNL     1       0.110   3.490   0.167  0.00  0.00    -0.464 OA
BRANCH  26  28
ATOM     27  C   UNL     1       2.282   4.572   0.369  0.00  0.00    +0.048 C 
ATOM     28  C   UNL     1       1.520   3.246   0.414  0.00  0.00    +0.229 C 
ENDBRANCH  26  28
ENDBRANCH  24  26
ENDBRANCH  23  24
ENDBRANCH   1  23
TORSDOF 5
