REMARK  Name = ZINC59889646
REMARK  9 active torsions:
REMARK  status: ('A' for Active; 'I' for Inactive)
REMARK    1  A    between atoms: C_1  and  C_2
REMARK    2  A    between atoms: C_2  and  C_3
REMARK    3  A    between atoms: C_3  and  C_4
REMARK    4  A    between atoms: C_4  and  C_26
REMARK    5  A    between atoms: N_5  and  N_6
REMARK    6  A    between atoms: C_9  and  S_12
REMARK    7  A    between atoms: S_12  and  C_13
REMARK    8  A    between atoms: C_13  and  C_14
REMARK    9  A    between atoms: C_14  and  C_16
REMARK                            x       y       z     vdW  Elec       q    Type
REMARK                         _______ _______ _______ _____ _____    ______ ____
ROOT
ATOM      1  N   UNL     1      -1.182  -4.051   1.361  0.00  0.00    -0.205 N 
ATOM      2  C   UNL     1      -1.757  -4.761   2.400  0.00  0.00    +0.232 A 
ATOM      3  N   UNL     1      -2.448  -4.250   3.398  0.00  0.00    -0.186 NA
ATOM      4  C   UNL     1      -2.850  -5.230   4.214  0.00  0.00    +0.210 A 
ATOM      5  N   UNL     1      -2.420  -6.377   3.747  0.00  0.00    -0.144 NA
ATOM      6  N   UNL     1      -1.712  -6.099   2.566  0.00  0.00    -0.245 N 
ATOM      7  H   UNL     1      -0.693  -4.518   0.666  0.00  0.00    +0.177 HD
ATOM      8  H   UNL     1      -1.276  -6.742   1.986  0.00  0.00    +0.192 HD
ENDROOT
BRANCH   1  10
ATOM      9  C   UNL     1      -0.774  -1.999   0.352  0.00  0.00    +0.034 C 
ATOM     10  N   UNL     1      -1.306  -2.656   1.313  0.00  0.00    -0.189 NA
ATOM     11  C   UNL     1      -0.015  -2.726  -0.728  0.00  0.00    +0.062 C 
BRANCH   9  12
ATOM     12  C   UNL     1      -0.908  -0.499   0.299  0.00  0.00    +0.052 C 
BRANCH  12  14
ATOM     13  C   UNL     1       0.336   1.665   0.406  0.00  0.00    +0.004 C 
ATOM     14  C   UNL     1       0.472   0.142   0.458  0.00  0.00    +0.002 C 
ENDBRANCH  12  14
ENDBRANCH   9  12
ENDBRANCH   1  10
BRANCH   4  15
ATOM     15  S   UNL     1      -3.803  -5.013   5.681  0.00  0.00    -0.077 S 
BRANCH  15  16
ATOM     16  C   UNL     1      -4.012  -6.698   6.321  0.00  0.00    +0.152 C 
BRANCH  16  17
ATOM     17  C   UNL     1      -4.821  -6.656   7.591  0.00  0.00    +0.147 C 
ATOM     18  O   UNL     1      -5.215  -5.599   8.021  0.00  0.00    -0.296 OA
BRANCH  17  19
ATOM     19  C   UNL     1      -5.137  -7.933   8.326  0.00  0.00    +0.062 C 
ATOM     20  C   UNL     1      -6.213  -8.708   7.563  0.00  0.00    +0.000 C 
ATOM     21  C   UNL     1      -6.534 -10.004   8.309  0.00  0.00    +0.007 C 
ATOM     22  C   UNL     1      -7.043  -9.672   9.712  0.00  0.00    -0.010 C 
ATOM     23  C   UNL     1      -8.308  -8.818   9.607  0.00  0.00    +0.007 C 
ATOM     24  C   UNL     1      -7.987  -7.522   8.861  0.00  0.00    -0.010 C 
ATOM     25  C   UNL     1      -7.478  -7.854   7.457  0.00  0.00    +0.007 C 
ATOM     26  C   UNL     1      -6.911  -6.747   9.624  0.00  0.00    +0.007 C 
ATOM     27  C   UNL     1      -5.646  -7.601   9.730  0.00  0.00    +0.000 C 
ATOM     28  C   UNL     1      -5.967  -8.898  10.476  0.00  0.00    +0.007 C 
ENDBRANCH  17  19
ENDBRANCH  16  17
ENDBRANCH  15  16
ENDBRANCH   4  15
TORSDOF 7
