REMARK  Name = ZINC62039363
REMARK  12 active torsions:
REMARK  status: ('A' for Active; 'I' for Inactive)
REMARK    1  A    between atoms: C_1  and  C_2
REMARK    2  A    between atoms: C_2  and  O_3
REMARK    3  A    between atoms: O_3  and  C_4
REMARK    4  A    between atoms: C_4  and  C_6
REMARK    5  A    between atoms: C_7  and  C_25
REMARK    6  A    between atoms: C_10  and  N_11
REMARK    7  A    between atoms: C_12  and  C_14
REMARK    8  A    between atoms: N_19  and  C_21
REMARK    9  A    between atoms: C_21  and  C_22
REMARK   10  A    between atoms: C_22  and  C_23
REMARK   11  A    between atoms: C_28  and  O_31
REMARK   12  A    between atoms: O_31  and  C_32
REMARK                            x       y       z     vdW  Elec       q    Type
REMARK                         _______ _______ _______ _____ _____    ______ ____
ROOT
ATOM      1  C   UNL     1       1.448  -2.344  -2.515  0.00  0.00    +0.095 A 
ATOM      2  C   UNL     1       2.874  -2.621  -2.522  0.00  0.00    +0.005 A 
ATOM      3  C   UNL     1       3.364  -3.124  -3.684  0.00  0.00    +0.056 A 
ATOM      4  S   UNL     1       1.928  -3.213  -4.730  0.00  0.00    -0.080 S 
ATOM      5  C   UNL     1       0.756  -2.626  -3.683  0.00  0.00    +0.086 A 
ENDROOT
BRANCH   2   6
ATOM      6  C   UNL     1       3.734  -2.373  -1.341  0.00  0.00    -0.016 A 
ATOM      7  C   UNL     1       3.686  -1.143  -0.687  0.00  0.00    +0.012 A 
ATOM      8  C   UNL     1       4.488  -0.915   0.412  0.00  0.00    +0.046 A 
ATOM      9  C   UNL     1       5.343  -1.909   0.867  0.00  0.00    +0.120 A 
ATOM     10  C   UNL     1       5.394  -3.135   0.218  0.00  0.00    +0.046 A 
ATOM     11  C   UNL     1       4.590  -3.372  -0.878  0.00  0.00    +0.012 A 
BRANCH   9  12
ATOM     12  O   UNL     1       6.132  -1.681   1.950  0.00  0.00    -0.495 OA
ATOM     13  C   UNL     1       6.989  -2.748   2.364  0.00  0.00    +0.277 C 
ENDBRANCH   9  12
ENDBRANCH   2   6
BRANCH   5  14
ATOM     14  N   UNL     1      -0.597  -2.458  -3.930  0.00  0.00    -0.279 N 
ATOM     15  C   UNL     1      -1.108  -2.787  -5.133  0.00  0.00    +0.219 C 
ATOM     16  O   UNL     1      -0.384  -3.229  -5.999  0.00  0.00    -0.275 OA
ATOM     17  H   UNL     1      -1.176  -2.105  -3.237  0.00  0.00    +0.155 HD
BRANCH  15  18
ATOM     18  C   UNL     1      -2.580  -2.605  -5.401  0.00  0.00    +0.059 C 
ATOM     19  C   UNL     1      -2.951  -1.129  -5.235  0.00  0.00    +0.009 C 
ATOM     20  C   UNL     1      -4.430  -0.942  -5.586  0.00  0.00    -0.018 C 
ATOM     21  C   UNL     1      -4.678  -1.445  -7.009  0.00  0.00    -0.079 C 
ATOM     22  N   UNL     1      -4.329  -2.868  -7.097  0.00  0.00    +0.381 N 
ATOM     23  C   UNL     1      -2.897  -3.048  -6.831  0.00  0.00    -0.066 C 
ATOM     24  H   UNL     1      -4.863  -3.387  -6.416  0.00  0.00    -0.082 HD
BRANCH  22  25
ATOM     25  C   UNL     1      -4.642  -3.366  -8.443  0.00  0.00    -0.064 C 
BRANCH  25  26
ATOM     26  C   UNL     1      -6.154  -3.305  -8.671  0.00  0.00    +0.100 C 
BRANCH  26  27
ATOM     27  C   UNL     1      -6.468  -3.803 -10.020  0.00  0.00    +0.061 C 
ATOM     28  N   UNL     1      -6.710  -4.188 -11.061  0.00  0.00    -0.197 NA
ENDBRANCH  26  27
ENDBRANCH  25  26
ENDBRANCH  22  25
ENDBRANCH  15  18
ENDBRANCH   5  14
BRANCH   1  29
ATOM     29  C   UNL     1       0.776  -1.800  -1.335  0.00  0.00    +0.342 C 
ATOM     30  O   UNL     1       0.312  -2.552  -0.499  0.00  0.00    -0.245 OA
BRANCH  29  31
ATOM     31  O   UNL     1       0.671  -0.465  -1.174  0.00  0.00    -0.461 OA
BRANCH  31  33
ATOM     32  C   UNL     1      -0.019   1.526   0.010  0.00  0.00    +0.048 C 
ATOM     33  C   UNL     1       0.002  -0.004   0.002  0.00  0.00    +0.229 C 
ENDBRANCH  31  33
ENDBRANCH  29  31
ENDBRANCH   1  29
TORSDOF 10
