REMARK  Name = ZINC02296548
REMARK  8 active torsions:
REMARK  status: ('A' for Active; 'I' for Inactive)
REMARK    1  A    between atoms: C_1  and  O_2
REMARK    2  A    between atoms: O_2  and  C_3
REMARK    3  A    between atoms: C_6  and  C_11
REMARK    4  A    between atoms: C_8  and  O_9
REMARK    5  A    between atoms: O_9  and  C_10
REMARK    6  A    between atoms: N_13  and  N_14
REMARK    7  A    between atoms: N_22  and  C_25
REMARK    8  A    between atoms: C_25  and  N_26
REMARK                            x       y       z     vdW  Elec       q    Type
REMARK                         _______ _______ _______ _____ _____    ______ ____
ROOT
ATOM      1  N   UNL     1       3.780  -2.424   6.344  0.00  0.00    -0.174 NA
ATOM      2  C   UNL     1       4.409  -1.707   7.244  0.00  0.00    +0.153 C 
ATOM      3  C   UNL     1       4.452  -0.230   7.351  0.00  0.00    +0.029 A 
ATOM      4  C   UNL     1       3.891   0.796   6.598  0.00  0.00    +0.027 A 
ATOM      5  C   UNL     1       4.118   2.111   6.955  0.00  0.00    +0.019 A 
ATOM      6  C   UNL     1       4.902   2.404   8.060  0.00  0.00    +0.017 A 
ATOM      7  C   UNL     1       5.463   1.392   8.812  0.00  0.00    +0.025 A 
ATOM      8  C   UNL     1       5.245   0.062   8.468  0.00  0.00    +0.047 A 
ATOM      9  N   UNL     1       5.683  -1.125   9.044  0.00  0.00    -0.252 N 
ATOM     10  C   UNL     1       5.221  -2.195   8.375  0.00  0.00    +0.272 C 
ATOM     11  O   UNL     1       5.438  -3.361   8.652  0.00  0.00    -0.268 OA
ATOM     12 BR   UNL     1       3.359   3.511   5.936  0.00  0.00    -0.050 Br
ENDROOT
BRANCH   1  15
ATOM     13  C   UNL     1       2.463  -2.521   4.363  0.00  0.00    +0.263 C 
ATOM     14  O   UNL     1       2.297  -3.711   4.548  0.00  0.00    -0.268 OA
ATOM     15  N   UNL     1       3.203  -1.801   5.229  0.00  0.00    -0.202 N 
ATOM     16  H   UNL     1       3.336  -0.852   5.082  0.00  0.00    +0.178 HD
BRANCH  13  20
ATOM     17  C   UNL     1       0.716  -0.626   0.985  0.00  0.00    +0.162 A 
ATOM     18  C   UNL     1       1.478   0.114   1.879  0.00  0.00    +0.050 A 
ATOM     19  C   UNL     1       2.046  -0.497   2.976  0.00  0.00    +0.017 A 
ATOM     20  C   UNL     1       1.855  -1.865   3.190  0.00  0.00    +0.042 A 
ATOM     21  C   UNL     1       1.088  -2.610   2.290  0.00  0.00    +0.062 A 
ATOM     22  C   UNL     1       0.517  -1.990   1.196  0.00  0.00    +0.162 A 
BRANCH  17  24
ATOM     23  C   UNL     1       0.402   1.380  -0.249  0.00  0.00    +0.277 C 
ATOM     24  O   UNL     1       0.158  -0.019  -0.094  0.00  0.00    -0.491 OA
ENDBRANCH  17  24
BRANCH  22  25
ATOM     25  O   UNL     1      -0.235  -2.711   0.321  0.00  0.00    -0.491 OA
ATOM     26  C   UNL     1      -0.396  -4.103   0.599  0.00  0.00    +0.277 C 
ENDBRANCH  22  25
ENDBRANCH  13  20
ENDBRANCH   1  15
BRANCH   9  27
ATOM     27  C   UNL     1       6.535  -1.200  10.233  0.00  0.00    +0.201 C 
BRANCH  27  28
ATOM     28  N   UNL     1       5.694  -1.250  11.436  0.00  0.00    -0.287 NA
ATOM     29  C   UNL     1       5.233   0.093  11.812  0.00  0.00    +0.086 C 
ATOM     30  C   UNL     1       4.246  -0.013  12.977  0.00  0.00    +0.015 C 
ATOM     31  C   UNL     1       4.936  -0.687  14.166  0.00  0.00    +0.002 C 
ATOM     32  C   UNL     1       5.450  -2.063  13.734  0.00  0.00    +0.015 C 
ATOM     33  C   UNL     1       6.402  -1.898  12.547  0.00  0.00    +0.086 C 
ENDBRANCH  27  28
ENDBRANCH   9  27
TORSDOF 6
