REMARK  Name = ZINC09291783
REMARK  6 active torsions:
REMARK  status: ('A' for Active; 'I' for Inactive)
REMARK    1  A    between atoms: C_1  and  C_2
REMARK    2  A    between atoms: C_5  and  C_8
REMARK    3  A    between atoms: C_19  and  C_21
REMARK    4  A    between atoms: C_25  and  C_27
REMARK    5  A    between atoms: C_32  and  S_34
REMARK    6  A    between atoms: S_34  and  C_35
REMARK                            x       y       z     vdW  Elec       q    Type
REMARK                         _______ _______ _______ _____ _____    ______ ____
ROOT
ATOM      1  C   UNL     1      -0.017  -4.165  -0.237  0.00  0.00    +0.159 C 
ATOM      2  C   UNL     1       1.403  -4.654  -0.056  0.00  0.00    +0.025 C 
ATOM      3  C   UNL     1       1.681  -5.413   1.025  0.00  0.00    +0.058 C 
ATOM      4  C   UNL     1       3.077  -5.894   1.183  0.00  0.00    +0.040 A 
ATOM      5  C   UNL     1       3.538  -6.396   2.392  0.00  0.00    +0.013 A 
ATOM      6  C   UNL     1       4.846  -6.831   2.497  0.00  0.00    +0.001 A 
ATOM      7  C   UNL     1       5.691  -6.765   1.403  0.00  0.00    +0.004 A 
ATOM      8  C   UNL     1       5.239  -6.267   0.195  0.00  0.00    +0.046 A 
ATOM      9  C   UNL     1       3.932  -5.829   0.075  0.00  0.00    +0.131 A 
ATOM     10  O   UNL     1       3.460  -5.341  -1.100  0.00  0.00    -0.479 OA
ATOM     11  C   UNL     1       2.480  -4.303  -1.040  0.00  0.00    +0.234 C 
ATOM     12  N   UNL     1       0.727  -5.728   1.934  0.00  0.00    -0.326 N 
ATOM     13  C   UNL     1      -0.530  -5.345   1.854  0.00  0.00    +0.216 C 
ATOM     14  N   UNL     1      -0.970  -4.567   0.805  0.00  0.00    -0.209 N 
ATOM     15  N   UNL     1      -2.332  -4.339   1.016  0.00  0.00    -0.239 N 
ATOM     16  C   UNL     1      -2.654  -4.983   2.182  0.00  0.00    +0.174 C 
ATOM     17  N   UNL     1      -1.585  -5.569   2.657  0.00  0.00    -0.192 NA
ATOM     18  H   UNL     1       0.987  -6.273   2.693  0.00  0.00    +0.169 HD
ATOM     19  H   UNL     1      -2.930  -3.827   0.450  0.00  0.00    +0.172 HD
ENDROOT
BRANCH   1  24
ATOM     20  C   UNL     1       0.078   1.608  -0.459  0.00  0.00    +0.044 C 
ATOM     21  C   UNL     1       0.053   0.103  -0.401  0.00  0.00    -0.050 A 
ATOM     22  C   UNL     1      -0.069  -0.632  -1.566  0.00  0.00    +0.004 A 
ATOM     23  C   UNL     1      -0.091  -2.013  -1.513  0.00  0.00    +0.006 A 
ATOM     24  C   UNL     1       0.009  -2.660  -0.295  0.00  0.00    -0.021 A 
ATOM     25  C   UNL     1       0.132  -1.925   0.870  0.00  0.00    +0.006 A 
ATOM     26  C   UNL     1       0.159  -0.544   0.816  0.00  0.00    +0.004 A 
ENDBRANCH   1  24
BRANCH  11  27
ATOM     27  C   UNL     1       3.142  -3.017  -0.616  0.00  0.00    -0.003 A 
ATOM     28  C   UNL     1       2.931  -1.859  -1.342  0.00  0.00    +0.007 A 
ATOM     29  C   UNL     1       3.539  -0.680  -0.953  0.00  0.00    +0.001 A 
ATOM     30  C   UNL     1       4.357  -0.658   0.161  0.00  0.00    +0.003 A 
ATOM     31  C   UNL     1       4.567  -1.816   0.887  0.00  0.00    -0.050 A 
ATOM     32  C   UNL     1       3.956  -2.994   0.501  0.00  0.00    +0.011 A 
ATOM     33  C   UNL     1       5.459  -1.792   2.101  0.00  0.00    +0.044 C 
ENDBRANCH  11  27
BRANCH  16  34
ATOM     34  S   UNL     1      -4.254  -5.020   2.921  0.00  0.00    -0.092 S 
ATOM     35  C   UNL     1      -4.022  -6.018   4.418  0.00  0.00    +0.093 C 
ENDBRANCH  16  34
TORSDOF 3
