REMARK  Name = ZINC39665725
REMARK  10 active torsions:
REMARK  status: ('A' for Active; 'I' for Inactive)
REMARK    1  A    between atoms: C_1  and  C_2
REMARK    2  A    between atoms: C_2  and  C_4
REMARK    3  A    between atoms: C_2  and  O_27
REMARK    4  A    between atoms: C_4  and  N_5
REMARK    5  A    between atoms: C_6  and  C_8
REMARK    6  A    between atoms: C_19  and  C_21
REMARK    7  A    between atoms: N_25  and  C_26
REMARK    8  A    between atoms: O_27  and  C_28
REMARK    9  A    between atoms: C_31  and  O_34
REMARK   10  A    between atoms: O_34  and  C_35
REMARK                            x       y       z     vdW  Elec       q    Type
REMARK                         _______ _______ _______ _____ _____    ______ ____
ROOT
ATOM      1  C   UNL     1      -2.623  -4.762   0.005  0.00  0.00    +0.100 C 
ATOM      2  C   UNL     1      -1.782  -5.127  -1.239  0.00  0.00    +0.121 C 
ATOM      3  N   UNL     1      -2.553  -6.200  -1.910  0.00  0.00    -0.295 N 
ATOM      4  C   UNL     1      -3.968  -5.781  -1.769  0.00  0.00    +0.115 C 
ATOM      5  C   UNL     1      -4.057  -5.192  -0.347  0.00  0.00    -0.004 C 
ATOM      6  C   UNL     1      -4.989  -3.984  -0.334  0.00  0.00    -0.010 C 
ATOM      7  C   UNL     1      -6.419  -4.446  -0.630  0.00  0.00    -0.082 C 
ATOM      8  N   UNL     1      -6.838  -5.424   0.381  0.00  0.00    +0.379 N 
ATOM      9  C   UNL     1      -5.994  -6.622   0.299  0.00  0.00    -0.082 C 
ATOM     10  C   UNL     1      -4.546  -6.253   0.634  0.00  0.00    -0.010 C 
ATOM     11  C   UNL     1      -2.075  -7.307  -2.512  0.00  0.00    +0.263 C 
ATOM     12  O   UNL     1      -2.843  -8.108  -3.011  0.00  0.00    -0.268 OA
ATOM     13  H   UNL     1      -6.751  -5.015   1.299  0.00  0.00    -0.086 HD
ATOM     14  H   UNL     1      -7.801  -5.680   0.220  0.00  0.00    -0.086 HD
ENDROOT
BRANCH  11  15
ATOM     15  C   UNL     1      -0.629  -7.547  -2.565  0.00  0.00    +0.104 A 
ATOM     16  C   UNL     1       0.360  -6.637  -2.257  0.00  0.00    +0.032 A 
ATOM     17  C   UNL     1       1.586  -7.283  -2.444  0.00  0.00    +0.020 A 
ATOM     18  C   UNL     1       1.330  -8.548  -2.854  0.00  0.00    +0.086 A 
ATOM     19  N   UNL     1      -0.012  -8.723  -2.927  0.00  0.00    -0.346 N 
ATOM     20  C   UNL     1      -0.693  -9.957  -3.326  0.00  0.00    +0.149 C 
ENDBRANCH  11  15
BRANCH   1  22
ATOM     21  N   UNL     1      -2.668  -2.805   1.518  0.00  0.00    -0.312 N 
ATOM     22  C   UNL     1      -2.568  -3.277   0.259  0.00  0.00    +0.218 C 
ATOM     23  O   UNL     1      -2.433  -2.508  -0.668  0.00  0.00    -0.275 OA
ATOM     24  H   UNL     1      -2.776  -3.420   2.260  0.00  0.00    +0.149 HD
BRANCH  21  25
ATOM     25  C   UNL     1      -2.615  -1.362   1.764  0.00  0.00    +0.148 C 
BRANCH  25  27
ATOM     26  C   UNL     1      -2.695   0.411   3.523  0.00  0.00    +0.053 C 
ATOM     27  C   UNL     1      -2.751  -1.096   3.265  0.00  0.00    +0.187 C 
BRANCH  27  28
ATOM     28  O   UNL     1      -4.000  -1.612   3.729  0.00  0.00    -0.488 OA
BRANCH  28  29
ATOM     29  C   UNL     1      -4.030  -2.110   4.994  0.00  0.00    +0.121 A 
ATOM     30  C   UNL     1      -5.169  -2.749   5.460  0.00  0.00    +0.049 A 
ATOM     31  C   UNL     1      -5.200  -3.255   6.745  0.00  0.00    +0.049 A 
ATOM     32  C   UNL     1      -4.092  -3.124   7.569  0.00  0.00    +0.120 A 
ATOM     33  C   UNL     1      -2.953  -2.486   7.102  0.00  0.00    +0.049 A 
ATOM     34  C   UNL     1      -2.920  -1.984   5.816  0.00  0.00    +0.049 A 
BRANCH  32  35
ATOM     35  O   UNL     1      -4.123  -3.621   8.834  0.00  0.00    -0.495 OA
ATOM     36  C   UNL     1      -2.946  -3.451   9.627  0.00  0.00    +0.277 C 
ENDBRANCH  32  35
ENDBRANCH  28  29
ENDBRANCH  27  28
ENDBRANCH  25  27
ENDBRANCH  21  25
ENDBRANCH   1  22
TORSDOF 7
