REMARK  Name = ZINC38751516
REMARK  6 active torsions:
REMARK  status: ('A' for Active; 'I' for Inactive)
REMARK    1  A    between atoms: C_1  and  C_2
REMARK    2  A    between atoms: C_3  and  C_4
REMARK    3  A    between atoms: N_6  and  C_7
REMARK    4  A    between atoms: C_7  and  C_8
REMARK    5  A    between atoms: C_10  and  C_13
REMARK    6  A    between atoms: C_20  and  C_23
REMARK                            x       y       z     vdW  Elec       q    Type
REMARK                         _______ _______ _______ _____ _____    ______ ____
ROOT
ATOM      1  C   UNL     1       2.967  -0.785  -5.233  0.00  0.00    +0.101 A 
ATOM      2  C   UNL     1       2.328  -1.242  -6.395  0.00  0.00    +0.077 A 
ATOM      3  C   UNL     1       3.174  -2.098  -7.031  0.00  0.00    +0.168 A 
ATOM      4  O   UNL     1       4.302  -2.178  -6.300  0.00  0.00    -0.354 OA
ATOM      5  N   UNL     1       4.148  -1.336  -5.172  0.00  0.00    -0.081 NA
ENDROOT
BRANCH   3   6
ATOM      6  C   UNL     1       2.904  -2.811  -8.296  0.00  0.00    +0.020 A 
ATOM      7  C   UNL     1       1.687  -2.632  -8.959  0.00  0.00    +0.015 A 
ATOM      8  C   UNL     1       1.438  -3.293 -10.139  0.00  0.00    +0.046 A 
ATOM      9  C   UNL     1       2.396  -4.148 -10.686  0.00  0.00    +0.124 A 
ATOM     10  C   UNL     1       3.602  -4.328 -10.018  0.00  0.00    -0.002 A 
ATOM     11  C   UNL     1       3.865  -3.665  -8.843  0.00  0.00    +0.019 A 
ATOM     12  C   UNL     1       4.416  -5.317 -10.830  0.00  0.00    +0.083 C 
ATOM     13  C   UNL     1       3.343  -5.921 -11.767  0.00  0.00    +0.175 C 
ATOM     14  O   UNL     1       2.356  -4.878 -11.834  0.00  0.00    -0.488 OA
ATOM     15  C   UNL     1       3.930  -6.207 -13.150  0.00  0.00    +0.052 C 
ENDBRANCH   3   6
BRANCH   1  16
ATOM     16  C   UNL     1       2.391   0.181  -4.230  0.00  0.00    +0.163 C 
BRANCH  16  19
ATOM     17  C   UNL     1       1.194   0.094  -2.110  0.00  0.00    +0.237 C 
ATOM     18  O   UNL     1       1.177   1.310  -2.103  0.00  0.00    -0.271 OA
ATOM     19  N   UNL     1       1.777  -0.566  -3.130  0.00  0.00    -0.306 N 
ATOM     20  H   UNL     1       1.790  -1.536  -3.135  0.00  0.00    +0.149 HD
BRANCH  17  23
ATOM     21  C   UNL     1      -0.018   1.503   0.010  0.00  0.00    +0.035 C 
ATOM     22  C   UNL     1       0.002  -0.004   0.002  0.00  0.00    -0.025 C 
ATOM     23  C   UNL     1       0.577  -0.656  -1.004  0.00  0.00    +0.063 C 
ENDBRANCH  17  23
ENDBRANCH  16  19
ENDBRANCH   1  16
TORSDOF 4
