REMARK  Name = ZINC62845861
REMARK  3 active torsions:
REMARK  status: ('A' for Active; 'I' for Inactive)
REMARK    1  A    between atoms: C_1  and  C_2
REMARK    2  A    between atoms: C_2  and  C_3
REMARK    3  A    between atoms: C_3  and  C_19
REMARK                            x       y       z     vdW  Elec       q    Type
REMARK                         _______ _______ _______ _____ _____    ______ ____
ROOT
ATOM      1  C   UNL     1      -1.441  -0.513   0.001  0.00  0.00    +0.075 C 
ATOM      2  C   UNL     1      -2.155  -0.001  -1.252  0.00  0.00    +0.037 C 
ATOM      3  C   UNL     1      -1.409  -0.490  -2.497  0.00  0.00    +0.107 C 
ATOM      4  N   UNL     1      -1.283  -1.952  -2.430  0.00  0.00    -0.317 N 
ATOM      5  C   UNL     1      -0.692  -2.555  -1.228  0.00  0.00    +0.107 C 
ATOM      6  C   UNL     1      -1.447  -2.044   0.003  0.00  0.00    +0.037 C 
ATOM      7  C   UNL     1      -1.715  -2.747  -3.481  0.00  0.00    +0.099 A 
ATOM      8  C   UNL     1      -2.390  -2.153  -4.556  0.00  0.00    +0.042 A 
ATOM      9  C   UNL     1      -2.820  -2.922  -5.596  0.00  0.00    +0.013 A 
ATOM     10  C   UNL     1      -2.565  -4.309  -5.551  0.00  0.00    -0.002 A 
ATOM     11  C   UNL     1      -2.979  -5.158  -6.588  0.00  0.00    +0.010 A 
ATOM     12  C   UNL     1      -2.716  -6.492  -6.512  0.00  0.00    +0.001 A 
ATOM     13  C   UNL     1      -2.040  -7.025  -5.417  0.00  0.00    +0.002 A 
ATOM     14  C   UNL     1      -1.625  -6.229  -4.393  0.00  0.00    +0.026 A 
ATOM     15  C   UNL     1      -1.878  -4.848  -4.437  0.00  0.00    +0.048 A 
ATOM     16  N   UNL     1      -1.476  -4.042  -3.447  0.00  0.00    -0.343 N 
ATOM     17  H   UNL     1      -1.002  -4.419  -2.689  0.00  0.00    +0.167 HD
ENDROOT
BRANCH   1  18
ATOM     18  C   UNL     1      -2.153  -0.006   1.228  0.00  0.00    +0.362 C 
ATOM     19  O   UNL     1      -2.260   1.193   1.419  0.00  0.00    -0.246 OA
ATOM     20  O   UNL     1      -2.623  -0.795   2.030  0.00  0.00    -0.246 OA
ENDBRANCH   1  18
BRANCH   1  22
ATOM     21  C   UNL     1       0.010   1.521   0.002  0.00  0.00    +0.005 C 
ATOM     22  C   UNL     1       0.004  -0.009   0.005  0.00  0.00    +0.015 C 
ENDBRANCH   1  22
TORSDOF 2
