REMARK  Name = ZINC51173453
REMARK  4 active torsions:
REMARK  status: ('A' for Active; 'I' for Inactive)
REMARK    1  A    between atoms: C_4  and  C_7
REMARK    2  A    between atoms: C_7  and  C_9
REMARK    3  A    between atoms: C_7  and  N_20
REMARK    4  A    between atoms: C_12  and  C_14
REMARK                            x       y       z     vdW  Elec       q    Type
REMARK                         _______ _______ _______ _____ _____    ______ ____
ROOT
ATOM      1  C   UNL     1       3.711  -0.707  -0.038  0.00  0.00    +0.045 C 
ENDROOT
BRANCH   1   5
ATOM      2  C   UNL     1      -0.017   1.378   0.010  0.00  0.00    +0.000 A 
ATOM      3  C   UNL     1       1.171   2.086   0.002  0.00  0.00    +0.000 A 
ATOM      4  C   UNL     1       2.377   1.411  -0.013  0.00  0.00    +0.002 A 
ATOM      5  C   UNL     1       2.396   0.029  -0.020  0.00  0.00    -0.053 A 
ATOM      6  C   UNL     1       1.208  -0.679  -0.012  0.00  0.00    +0.002 A 
ATOM      7  C   UNL     1       0.002  -0.004   0.002  0.00  0.00    +0.000 A 
ENDBRANCH   1   5
BRANCH   1   8
ATOM      8  C   UNL     1       4.044  -1.175   1.356  0.00  0.00    +0.208 A 
ATOM      9  N   UNL     1       3.496  -2.178   1.981  0.00  0.00    -0.114 NA
ATOM     10  N   UNL     1       4.019  -2.295   3.151  0.00  0.00    -0.107 NA
ATOM     11  C   UNL     1       4.929  -1.358   3.314  0.00  0.00    +0.255 A 
ATOM     12  O   UNL     1       4.964  -0.635   2.176  0.00  0.00    -0.421 OA
BRANCH  11  13
ATOM     13  C   UNL     1       5.756  -1.144   4.511  0.00  0.00    +0.077 A 
ATOM     14  C   UNL     1       5.774  -1.855   5.696  0.00  0.00    +0.022 A 
ATOM     15  C   UNL     1       6.647  -1.460   6.683  0.00  0.00    +0.028 A 
ATOM     16  C   UNL     1       7.459  -0.392   6.463  0.00  0.00    +0.079 A 
ATOM     17  S   UNL     1       7.005   0.097   4.808  0.00  0.00    -0.072 S 
ATOM     18 CL   UNL     1       8.640   0.314   7.522  0.00  0.00    -0.076 Cl
ENDBRANCH  11  13
ENDBRANCH   1   8
BRANCH   1  19
ATOM     19  N   UNL     1       3.611  -1.868  -0.933  0.00  0.00    +0.388 N 
ATOM     20  H   UNL     1       4.492  -2.360  -0.944  0.00  0.00    -0.088 HD
ATOM     21  H   UNL     1       2.885  -2.485  -0.603  0.00  0.00    -0.088 HD
ATOM     22  H   UNL     1       3.389  -1.555  -1.866  0.00  0.00    -0.088 HD
ENDBRANCH   1  19
TORSDOF 4
