REMARK  Name = ZINC19892971
REMARK  9 active torsions:
REMARK  status: ('A' for Active; 'I' for Inactive)
REMARK    1  A    between atoms: C_1  and  C_2
REMARK    2  A    between atoms: C_2  and  C_4
REMARK    3  A    between atoms: C_4  and  C_5
REMARK    4  A    between atoms: C_9  and  C_34
REMARK    5  A    between atoms: C_12  and  C_13
REMARK    6  A    between atoms: C_12  and  C_14
REMARK    7  A    between atoms: C_19  and  C_21
REMARK    8  A    between atoms: C_21  and  O_22
REMARK    9  A    between atoms: O_22  and  C_23
REMARK                            x       y       z     vdW  Elec       q    Type
REMARK                         _______ _______ _______ _____ _____    ______ ____
ROOT
ATOM      1  C   UNL     1      -0.013   1.129   3.107  0.00  0.00    +0.002 C 
ATOM      2  C   UNL     1       1.318   1.873   3.133  0.00  0.00    +0.005 C 
ATOM      3  C   UNL     1       1.071   3.376   3.034  0.00  0.00    +0.008 C 
ATOM      4  C   UNL     1       0.344   3.706   1.729  0.00  0.00    -0.016 C 
ATOM      5  C   UNL     1      -0.968   2.944   1.635  0.00  0.00    +0.002 C 
ATOM      6  C   UNL     1      -0.802   1.437   1.837  0.00  0.00    -0.028 C 
ATOM      7  C   UNL     1      -0.153   0.747   0.633  0.00  0.00    +0.011 C 
ATOM      8  C   UNL     1      -2.190   0.774   1.990  0.00  0.00    +0.011 C 
ATOM      9  C   UNL     1      -1.976   3.453   2.673  0.00  0.00    +0.012 C 
ATOM     10  C   UNL     1      -2.262   4.947   2.483  0.00  0.00    +0.075 C 
ATOM     11  C   UNL     1      -0.942   5.676   2.582  0.00  0.00    +0.140 C 
ATOM     12  O   UNL     1      -0.781   6.574   3.372  0.00  0.00    -0.297 OA
ATOM     13  C   UNL     1       0.156   5.230   1.656  0.00  0.00    +0.099 C 
ATOM     14  C   UNL     1       1.277   3.379   0.549  0.00  0.00    +0.012 C 
ENDROOT
BRANCH   1  15
ATOM     15  C   UNL     1       0.248  -0.379   3.187  0.00  0.00    +0.078 C 
BRANCH  15  17
ATOM     16  C   UNL     1       1.284  -2.130   4.823  0.00  0.00    +0.086 C 
ATOM     17  C   UNL     1       0.918  -0.705   4.497  0.00  0.00    +0.131 C 
ATOM     18  O   UNL     1       1.163   0.177   5.285  0.00  0.00    -0.298 OA
ENDBRANCH  15  17
ENDBRANCH   1  15
BRANCH  13  19
ATOM     19  C   UNL     1      -0.162   5.639   0.217  0.00  0.00    +0.240 C 
BRANCH  19  20
ATOM     20  O   UNL     1      -0.287   7.060   0.143  0.00  0.00    -0.491 OA
BRANCH  20  21
ATOM     21  C   UNL     1      -0.570   7.591  -1.074  0.00  0.00    +0.124 A 
ATOM     22  C   UNL     1      -0.725   6.752  -2.176  0.00  0.00    +0.046 A 
ATOM     23  C   UNL     1      -1.010   7.270  -3.405  0.00  0.00    +0.015 A 
ATOM     24  C   UNL     1      -1.148   8.654  -3.562  0.00  0.00    +0.018 A 
ATOM     25  C   UNL     1      -1.454   9.238  -4.869  0.00  0.00    +0.018 A 
ATOM     26  C   UNL     1      -1.577  10.588  -4.956  0.00  0.00    +0.092 A 
ATOM     27  C   UNL     1      -1.408  11.383  -3.804  0.00  0.00    +0.337 A 
ATOM     28  O   UNL     1      -1.521  12.592  -3.896  0.00  0.00    -0.245 OA
ATOM     29  O   UNL     1      -1.128  10.842  -2.608  0.00  0.00    -0.422 OA
ATOM     30  C   UNL     1      -0.993   9.507  -2.453  0.00  0.00    +0.143 A 
ATOM     31  C   UNL     1      -0.709   8.963  -1.210  0.00  0.00    +0.092 A 
ENDBRANCH  20  21
ENDBRANCH  19  20
ENDBRANCH  13  19
TORSDOF 5
