REMARK  Name = ZINC39978795
REMARK  5 active torsions:
REMARK  status: ('A' for Active; 'I' for Inactive)
REMARK    1  A    between atoms: C_1  and  C_2
REMARK    2  A    between atoms: C_5  and  N_9
REMARK    3  A    between atoms: N_9  and  C_10
REMARK    4  A    between atoms: N_13  and  S_14
REMARK    5  A    between atoms: S_14  and  C_17
REMARK                            x       y       z     vdW  Elec       q    Type
REMARK                         _______ _______ _______ _____ _____    ______ ____
ROOT
ATOM      1  C   UNL     1      -0.048  -4.895  -1.290  0.00  0.00    +0.237 C 
ATOM      2  C   UNL     1       0.975  -6.008  -1.272  0.00  0.00    +0.192 C 
ATOM      3  N   UNL     1       2.237  -5.742  -1.108  0.00  0.00    -0.110 NA
ATOM      4  N   UNL     1       0.561  -7.276  -1.427  0.00  0.00    -0.226 NA
ATOM      5  C   UNL     1      -0.711  -7.571  -1.594  0.00  0.00    +0.089 A 
ATOM      6  C   UNL     1      -1.113  -8.922  -1.755  0.00  0.00    +0.030 A 
ATOM      7  C   UNL     1      -2.416  -9.230  -1.927  0.00  0.00    +0.002 A 
ATOM      8  C   UNL     1      -3.430  -8.258  -1.957  0.00  0.00    +0.002 A 
ATOM      9  C   UNL     1      -3.157  -6.942  -1.814  0.00  0.00    +0.027 A 
ATOM     10  C   UNL     1      -1.761  -6.523  -1.622  0.00  0.00    +0.063 A 
ATOM     11  N   UNL     1      -1.460  -5.263  -1.479  0.00  0.00    -0.359 N 
ATOM     12  H   UNL     1      -2.151  -4.584  -1.497  0.00  0.00    +0.162 HD
ENDROOT
BRANCH   3  13
ATOM     13  S   UNL     1       3.348  -6.971  -1.090  0.00  0.00    +0.100 S 
ATOM     14  O   UNL     1       3.078  -7.745   0.071  0.00  0.00    -0.146 OA
ATOM     15  O   UNL     1       3.353  -7.532  -2.395  0.00  0.00    -0.146 OA
BRANCH  13  16
ATOM     16  C   UNL     1       4.932  -6.238  -0.850  0.00  0.00    +0.113 A 
ATOM     17  C   UNL     1       5.683  -5.843  -1.941  0.00  0.00    +0.029 A 
ATOM     18  C   UNL     1       6.926  -5.268  -1.752  0.00  0.00    +0.002 A 
ATOM     19  C   UNL     1       7.418  -5.088  -0.473  0.00  0.00    +0.000 A 
ATOM     20  C   UNL     1       6.666  -5.482   0.618  0.00  0.00    +0.002 A 
ATOM     21  C   UNL     1       5.421  -6.053   0.430  0.00  0.00    +0.029 A 
ENDBRANCH  13  16
ENDBRANCH   3  13
BRANCH   1  22
ATOM     22  N   UNL     1       0.059  -4.168  -0.023  0.00  0.00    -0.317 N 
ATOM     23  H   UNL     1       0.039  -4.653   0.817  0.00  0.00    +0.148 HD
BRANCH  22  28
ATOM     24  C   UNL     1       0.592   1.478  -0.027  0.00  0.00    +0.044 C 
ATOM     25  C   UNL     1       0.450  -0.022  -0.025  0.00  0.00    -0.049 A 
ATOM     26  C   UNL     1       0.216  -0.694  -1.211  0.00  0.00    +0.005 A 
ATOM     27  C   UNL     1       0.086  -2.069  -1.214  0.00  0.00    +0.024 A 
ATOM     28  C   UNL     1       0.191  -2.777  -0.024  0.00  0.00    +0.043 A 
ATOM     29  C   UNL     1       0.426  -2.099   1.166  0.00  0.00    +0.039 A 
ATOM     30  C   UNL     1       0.561  -0.724   1.161  0.00  0.00    +0.020 A 
ATOM     31 BR   UNL     1       0.570  -3.058   2.790  0.00  0.00    -0.048 Br
ENDBRANCH  22  28
ENDBRANCH   1  22
TORSDOF 4
