REMARK  Name = ZINC41236289
REMARK  7 active torsions:
REMARK  status: ('A' for Active; 'I' for Inactive)
REMARK    1  A    between atoms: C_1  and  C_2
REMARK    2  A    between atoms: C_2  and  C_3
REMARK    3  A    between atoms: C_2  and  N_12
REMARK    4  A    between atoms: C_13  and  C_15
REMARK    5  A    between atoms: N_17  and  C_18
REMARK    6  A    between atoms: C_21  and  N_24
REMARK    7  A    between atoms: C_25  and  C_27
REMARK                            x       y       z     vdW  Elec       q    Type
REMARK                         _______ _______ _______ _____ _____    ______ ____
ROOT
ATOM      1  N   UNL     1      -1.391  -0.493  -0.033  0.00  0.00    -0.301 N 
ATOM      2  C   UNL     1      -2.038  -0.644   1.139  0.00  0.00    +0.300 C 
ATOM      3  O   UNL     1      -1.481  -0.365   2.180  0.00  0.00    -0.265 OA
ATOM      4  H   UNL     1      -1.836  -0.716  -0.866  0.00  0.00    +0.150 HD
ENDROOT
BRANCH   2   5
ATOM      5  C   UNL     1      -3.441  -1.155   1.157  0.00  0.00    +0.303 C 
ATOM      6  O   UNL     1      -3.998  -1.435   0.115  0.00  0.00    -0.265 OA
ATOM      7  N   UNL     1      -4.089  -1.307   2.329  0.00  0.00    -0.278 N 
ATOM      8  H   UNL     1      -3.623  -1.148   3.164  0.00  0.00    +0.155 HD
BRANCH   7   9
ATOM      9  C   UNL     1      -5.433  -1.693   2.340  0.00  0.00    +0.034 A 
ATOM     10  C   UNL     1      -6.293  -1.186   3.307  0.00  0.00    +0.025 A 
ATOM     11  C   UNL     1      -7.619  -1.567   3.318  0.00  0.00    +0.025 A 
ATOM     12  C   UNL     1      -8.094  -2.457   2.363  0.00  0.00    +0.033 A 
ATOM     13  C   UNL     1      -7.234  -2.964   1.397  0.00  0.00    +0.025 A 
ATOM     14  C   UNL     1      -5.909  -2.579   1.382  0.00  0.00    +0.025 A 
BRANCH  12  15
ATOM     15  N   UNL     1      -9.440  -2.844   2.375  0.00  0.00    -0.286 N 
ATOM     16  C   UNL     1      -9.784  -4.098   2.022  0.00  0.00    +0.214 C 
ATOM     17  O   UNL     1      -8.939  -4.867   1.615  0.00  0.00    -0.276 OA
ATOM     18  C   UNL     1     -11.219  -4.546   2.134  0.00  0.00    +0.109 C 
ATOM     19  H   UNL     1     -10.125  -2.209   2.637  0.00  0.00    +0.155 HD
ENDBRANCH  12  15
ENDBRANCH   7   9
ENDBRANCH   2   5
BRANCH   1  21
ATOM     20  C   UNL     1      -0.029   1.538  -0.029  0.00  0.00    +0.033 C 
ATOM     21  C   UNL     1      -0.014   0.009  -0.050  0.00  0.00    +0.101 C 
BRANCH  21  22
ATOM     22  C   UNL     1       0.679  -0.470  -1.300  0.00  0.00    -0.024 A 
ATOM     23  C   UNL     1      -0.002  -0.488  -2.503  0.00  0.00    +0.009 A 
ATOM     24  C   UNL     1       0.630  -0.925  -3.652  0.00  0.00    +0.050 A 
ATOM     25  C   UNL     1       1.949  -1.348  -3.600  0.00  0.00    +0.166 A 
ATOM     26  C   UNL     1       2.635  -1.330  -2.388  0.00  0.00    +0.167 A 
ATOM     27  C   UNL     1       1.997  -0.884  -1.242  0.00  0.00    +0.055 A 
ATOM     28  O   UNL     1       3.903  -1.788  -2.598  0.00  0.00    -0.453 OA
ATOM     29  C   UNL     1       3.861  -2.470  -3.865  0.00  0.00    +0.466 C 
ATOM     30  O   UNL     1       2.787  -1.817  -4.569  0.00  0.00    -0.453 OA
ENDBRANCH  21  22
ENDBRANCH   1  21
TORSDOF 5
