REMARK  Name = ZINC35196286
REMARK  8 active torsions:
REMARK  status: ('A' for Active; 'I' for Inactive)
REMARK    1  A    between atoms: C_1  and  C_2
REMARK    2  A    between atoms: C_2  and  C_4
REMARK    3  A    between atoms: C_2  and  N_7
REMARK    4  A    between atoms: C_4  and  C_5
REMARK    5  A    between atoms: C_4  and  C_6
REMARK    6  A    between atoms: C_8  and  C_10
REMARK    7  A    between atoms: C_14  and  C_25
REMARK    8  A    between atoms: C_17  and  C_19
REMARK                            x       y       z     vdW  Elec       q    Type
REMARK                         _______ _______ _______ _____ _____    ______ ____
ROOT
ATOM      1  C   UNL     1       0.832  -1.109   3.654  0.00  0.00    +0.173 C 
ATOM      2  C   UNL     1       1.524  -2.503   3.663  0.00  0.00    +0.103 C 
ATOM      3  S   UNL     1       0.035  -3.542   4.015  0.00  0.00    -0.131 S 
ATOM      4  C   UNL     1      -0.886  -2.295   5.011  0.00  0.00    +0.167 C 
ATOM      5  N   UNL     1      -0.195  -1.034   4.689  0.00  0.00    -0.269 N 
ATOM      6  C   UNL     1      -0.495   0.121   5.316  0.00  0.00    +0.248 C 
ATOM      7  O   UNL     1      -0.021   1.168   4.919  0.00  0.00    -0.270 OA
ENDROOT
BRANCH   4   8
ATOM      8  C   UNL     1      -2.332  -2.238   4.589  0.00  0.00    +0.001 A 
ATOM      9  C   UNL     1      -2.907  -1.026   4.256  0.00  0.00    +0.008 A 
ATOM     10  C   UNL     1      -4.233  -0.973   3.869  0.00  0.00    +0.000 A 
ATOM     11  C   UNL     1      -4.984  -2.132   3.813  0.00  0.00    +0.001 A 
ATOM     12  C   UNL     1      -4.410  -3.345   4.144  0.00  0.00    +0.020 A 
ATOM     13  C   UNL     1      -3.081  -3.399   4.527  0.00  0.00    +0.047 A 
ATOM     14 CL   UNL     1      -2.357  -4.922   4.938  0.00  0.00    -0.083 Cl
ENDBRANCH   4   8
BRANCH   6  15
ATOM     15  C   UNL     1      -1.400   0.115   6.484  0.00  0.00    +0.037 A 
ATOM     16  C   UNL     1      -2.084  -1.050   6.835  0.00  0.00    +0.013 A 
ATOM     17  C   UNL     1      -2.928  -1.049   7.927  0.00  0.00    +0.001 A 
ATOM     18  C   UNL     1      -3.096   0.104   8.674  0.00  0.00    +0.000 A 
ATOM     19  C   UNL     1      -2.421   1.262   8.331  0.00  0.00    +0.001 A 
ATOM     20  C   UNL     1      -1.570   1.273   7.245  0.00  0.00    +0.013 A 
ENDBRANCH   6  15
BRANCH   1  22
ATOM     21  N   UNL     1       0.967  -0.760   1.209  0.00  0.00    -0.311 N 
ATOM     22  C   UNL     1       0.196  -0.879   2.307  0.00  0.00    +0.235 C 
ATOM     23  O   UNL     1      -1.011  -0.800   2.212  0.00  0.00    -0.274 OA
ATOM     24  H   UNL     1       1.932  -0.823   1.285  0.00  0.00    +0.149 HD
BRANCH  21  26
ATOM     25  C   UNL     1       0.096   0.959  -0.296  0.00  0.00    +0.028 C 
ATOM     26  C   UNL     1       0.349  -0.537  -0.100  0.00  0.00    +0.072 C 
BRANCH  26  27
ATOM     27  C   UNL     1       1.284  -1.044  -1.200  0.00  0.00    +0.003 C 
ATOM     28  C   UNL     1       1.538  -2.540  -1.004  0.00  0.00    +0.009 C 
ATOM     29  C   UNL     1       0.639  -0.811  -2.567  0.00  0.00    +0.009 C 
ENDBRANCH  26  27
ENDBRANCH  21  26
ENDBRANCH   1  22
TORSDOF 5
