REMARK  Name = ZINC55158333
REMARK  11 active torsions:
REMARK  status: ('A' for Active; 'I' for Inactive)
REMARK    1  A    between atoms: C_1  and  C_2
REMARK    2  A    between atoms: C_2  and  N_3
REMARK    3  A    between atoms: N_3  and  C_4
REMARK    4  A    between atoms: N_3  and  C_6
REMARK    5  A    between atoms: C_4  and  C_5
REMARK    6  A    between atoms: C_6  and  C_7
REMARK    7  A    between atoms: C_7  and  C_8
REMARK    8  A    between atoms: C_11  and  C_21
REMARK    9  A    between atoms: C_14  and  C_16
REMARK   10  A    between atoms: C_23  and  C_33
REMARK   11  A    between atoms: C_26  and  C_27
REMARK                            x       y       z     vdW  Elec       q    Type
REMARK                         _______ _______ _______ _____ _____    ______ ____
ROOT
ATOM      1  C   UNL     1      -0.804  -3.635   2.138  0.00  0.00    +0.234 C 
ATOM      2  O   UNL     1      -1.319  -4.411   1.361  0.00  0.00    -0.274 OA
ATOM      3  N   UNL     1      -0.275  -4.089   3.292  0.00  0.00    -0.183 N 
ATOM      4  C   UNL     1      -0.249  -5.494   3.727  0.00  0.00    +0.158 C 
ATOM      5  C   UNL     1       0.463  -5.438   5.093  0.00  0.00    +0.091 C 
ATOM      6  C   UNL     1       0.768  -3.969   5.285  0.00  0.00    +0.104 C 
ATOM      7  N   UNL     1       0.343  -3.304   4.263  0.00  0.00    -0.178 NA
ENDROOT
BRANCH   4   8
ATOM      8  C   UNL     1       0.534  -6.336   2.752  0.00  0.00    +0.090 A 
ATOM      9  N   UNL     1       1.701  -6.007   2.196  0.00  0.00    -0.230 NA
ATOM     10  C   UNL     1       2.096  -6.975   1.397  0.00  0.00    +0.139 A 
ATOM     11  H   UNL     1       1.196  -8.807   0.934  0.00  0.00    +0.167 HD
ATOM     12  N   UNL     1       1.165  -7.972   1.426  0.00  0.00    -0.338 N 
ATOM     13  C   UNL     1       0.174  -7.568   2.293  0.00  0.00    +0.071 A 
BRANCH  13  14
ATOM     14  C   UNL     1      -1.046  -8.322   2.652  0.00  0.00    +0.000 A 
ATOM     15  C   UNL     1      -1.454  -8.402   3.985  0.00  0.00    +0.010 A 
ATOM     16  C   UNL     1      -2.593  -9.107   4.313  0.00  0.00    +0.001 A 
ATOM     17  C   UNL     1      -3.331  -9.734   3.325  0.00  0.00    +0.000 A 
ATOM     18  C   UNL     1      -2.932  -9.659   2.002  0.00  0.00    +0.001 A 
ATOM     19  C   UNL     1      -1.798  -8.952   1.659  0.00  0.00    +0.010 A 
ENDBRANCH  13  14
BRANCH  10  20
ATOM     20  C   UNL     1       3.342  -6.981   0.602  0.00  0.00    +0.017 A 
ATOM     21  C   UNL     1       3.646  -8.071  -0.216  0.00  0.00    +0.011 A 
ATOM     22  C   UNL     1       4.810  -8.070  -0.957  0.00  0.00    +0.001 A 
ATOM     23  C   UNL     1       5.675  -6.993  -0.890  0.00  0.00    +0.000 A 
ATOM     24  C   UNL     1       5.380  -5.910  -0.081  0.00  0.00    +0.001 A 
ATOM     25  C   UNL     1       4.217  -5.895   0.660  0.00  0.00    +0.011 A 
ENDBRANCH  10  20
ENDBRANCH   4   8
BRANCH   6  26
ATOM     26  C   UNL     1       1.448  -3.391   6.448  0.00  0.00    +0.150 A 
ATOM     27  C   UNL     1       1.726  -2.069   6.639  0.00  0.00    +0.051 A 
ATOM     28  C   UNL     1       2.381  -1.968   7.880  0.00  0.00    +0.042 A 
ATOM     29  C   UNL     1       2.471  -3.216   8.383  0.00  0.00    +0.196 A 
ATOM     30  O   UNL     1       1.902  -4.072   7.520  0.00  0.00    -0.462 OA
ENDBRANCH   6  26
BRANCH   1  31
ATOM     31  C   UNL     1      -0.756  -2.164   1.814  0.00  0.00    +0.079 C 
BRANCH  31  32
ATOM     32  C   UNL     1      -1.421  -1.919   0.458  0.00  0.00    -0.070 C 
BRANCH  32  33
ATOM     33  N   UNL     1      -1.374  -0.485   0.142  0.00  0.00    +0.380 N 
ATOM     34  H   UNL     1      -1.792   0.039   0.895  0.00  0.00    -0.082 HD
BRANCH  33  36
ATOM     35  C   UNL     1       0.082   1.451  -0.216  0.00  0.00    -0.017 C 
ATOM     36  C   UNL     1       0.024  -0.066  -0.029  0.00  0.00    -0.082 C 
ENDBRANCH  33  36
BRANCH  33  37
ATOM     37  C   UNL     1      -2.116  -0.233  -1.101  0.00  0.00    -0.082 C 
ATOM     38  C   UNL     1      -3.600  -0.533  -0.879  0.00  0.00    -0.017 C 
ENDBRANCH  33  37
ENDBRANCH  32  33
ENDBRANCH  31  32
ENDBRANCH   1  31
TORSDOF 9
