REMARK  Name = ZINC44737006
REMARK  8 active torsions:
REMARK  status: ('A' for Active; 'I' for Inactive)
REMARK    1  A    between atoms: C_1  and  C_2
REMARK    2  A    between atoms: C_10  and  C_12
REMARK    3  A    between atoms: C_12  and  C_13
REMARK    4  A    between atoms: C_12  and  N_14
REMARK    5  A    between atoms: C_15  and  C_17
REMARK    6  A    between atoms: C_27  and  C_29
REMARK    7  A    between atoms: C_29  and  C_30
REMARK    8  A    between atoms: C_29  and  C_31
REMARK                            x       y       z     vdW  Elec       q    Type
REMARK                         _______ _______ _______ _____ _____    ______ ____
ROOT
ATOM      1  N   UNL     1      -0.014  -7.819   2.289  0.00  0.00    -0.305 N 
ATOM      2  C   UNL     1       1.268  -7.697   1.892  0.00  0.00    +0.219 C 
ATOM      3  O   UNL     1       1.930  -6.752   2.264  0.00  0.00    -0.275 OA
ATOM      4  H   UNL     1      -0.544  -8.575   1.991  0.00  0.00    +0.149 HD
ENDROOT
BRANCH   2   5
ATOM      5  C   UNL     1       1.878  -8.733   0.984  0.00  0.00    +0.100 C 
ATOM      6  C   UNL     1       2.993  -8.103   0.120  0.00  0.00    +0.121 C 
ATOM      7  N   UNL     1       4.244  -8.379   0.864  0.00  0.00    -0.300 N 
ATOM      8  C   UNL     1       4.066  -9.755   1.387  0.00  0.00    +0.115 C 
ATOM      9  C   UNL     1       2.588  -9.818   1.811  0.00  0.00    -0.004 C 
ATOM     10  C   UNL     1       2.007 -11.192   1.491  0.00  0.00    -0.010 C 
ATOM     11  C   UNL     1       2.688 -12.246   2.368  0.00  0.00    -0.082 C 
ATOM     12  N   UNL     1       2.475 -11.921   3.783  0.00  0.00    +0.379 N 
ATOM     13  C   UNL     1       3.118 -10.641   4.104  0.00  0.00    -0.082 C 
ATOM     14  C   UNL     1       2.455  -9.518   3.301  0.00  0.00    -0.010 C 
ATOM     15  C   UNL     1       5.305  -7.564   1.028  0.00  0.00    +0.218 C 
ATOM     16  O   UNL     1       6.264  -7.938   1.670  0.00  0.00    -0.275 OA
ATOM     17  H   UNL     1       1.485 -11.854   3.966  0.00  0.00    -0.086 HD
ATOM     18  H   UNL     1       2.873 -12.649   4.358  0.00  0.00    -0.086 HD
BRANCH  15  19
ATOM     19  C   UNL     1       5.300  -6.188   0.414  0.00  0.00    +0.069 C 
ATOM     20  C   UNL     1       6.612  -5.475   0.749  0.00  0.00    +0.017 C 
ATOM     21  C   UNL     1       5.157  -6.308  -1.104  0.00  0.00    +0.017 C 
ENDBRANCH  15  19
ENDBRANCH   2   5
BRANCH   1  22
ATOM     22  C   UNL     1      -0.607  -6.812   3.172  0.00  0.00    +0.136 C 
ATOM     23  C   UNL     1      -0.277  -7.150   4.627  0.00  0.00    +0.036 C 
BRANCH  22  33
ATOM     24  C   UNL     1      -7.914  -5.485   2.687  0.00  0.00    +0.044 C 
ATOM     25  C   UNL     1      -6.573  -6.171   2.627  0.00  0.00    -0.048 A 
ATOM     26  C   UNL     1      -6.491  -7.487   2.196  0.00  0.00    +0.005 A 
ATOM     27  C   UNL     1      -5.285  -8.127   2.135  0.00  0.00    +0.030 A 
ATOM     28  C   UNL     1      -4.120  -7.452   2.510  0.00  0.00    +0.089 A 
ATOM     29  C   UNL     1      -4.203  -6.119   2.946  0.00  0.00    +0.067 A 
ATOM     30  C   UNL     1      -5.436  -5.484   2.997  0.00  0.00    +0.031 A 
ATOM     31  N   UNL     1      -2.910  -5.734   3.240  0.00  0.00    -0.340 N 
ATOM     32  H   UNL     1      -2.630  -4.865   3.568  0.00  0.00    +0.167 HD
ATOM     33  C   UNL     1      -2.103  -6.798   2.986  0.00  0.00    +0.128 A 
ATOM     34  N   UNL     1      -2.809  -7.804   2.559  0.00  0.00    -0.231 NA
ENDBRANCH  22  33
ENDBRANCH   1  22
TORSDOF 4
