REMARK  Name = ZINC01444595
REMARK  10 active torsions:
REMARK  status: ('A' for Active; 'I' for Inactive)
REMARK    1  A    between atoms: C_1  and  C_2
REMARK    2  A    between atoms: C_2  and  O_4
REMARK    3  A    between atoms: O_4  and  C_5
REMARK    4  A    between atoms: C_8  and  C_13
REMARK    5  A    between atoms: C_10  and  O_11
REMARK    6  A    between atoms: O_11  and  C_12
REMARK    7  A    between atoms: N_14  and  N_15
REMARK    8  A    between atoms: C_16  and  C_18
REMARK    9  A    between atoms: C_18  and  O_19
REMARK   10  A    between atoms: O_19  and  C_20
REMARK                            x       y       z     vdW  Elec       q    Type
REMARK                         _______ _______ _______ _____ _____    ______ ____
ROOT
ATOM      1  C   UNL     1       2.939   6.544   0.015  0.00  0.00    +0.138 C 
ATOM      2  N   UNL     1       1.926   5.733  -0.005  0.00  0.00    -0.188 NA
ENDROOT
BRANCH   1   6
ATOM      3  C   UNL     1       2.292  10.743   0.040  0.00  0.00    +0.173 A 
ATOM      4  C   UNL     1       1.210   9.875   0.018  0.00  0.00    +0.051 A 
ATOM      5  C   UNL     1       1.416   8.511   0.004  0.00  0.00    +0.013 A 
ATOM      6  C   UNL     1       2.717   8.001   0.024  0.00  0.00    -0.002 A 
ATOM      7  C   UNL     1       3.807   8.876   0.045  0.00  0.00    +0.059 A 
ATOM      8  C   UNL     1       3.592  10.242   0.053  0.00  0.00    +0.163 A 
BRANCH   8   9
ATOM      9  O   UNL     1       4.650  11.095   0.074  0.00  0.00    -0.491 OA
ATOM     10  C   UNL     1       5.955  10.512   0.087  0.00  0.00    +0.277 C 
ENDBRANCH   8   9
BRANCH   3  11
ATOM     11  O   UNL     1       2.084  12.086   0.048  0.00  0.00    -0.422 OA
BRANCH  11  13
ATOM     12  C   UNL     1       2.092  14.229  -1.179  0.00  0.00    +0.136 C 
ATOM     13  C   UNL     1       2.188  12.726  -1.128  0.00  0.00    +0.309 C 
ATOM     14  O   UNL     1       2.360  12.097  -2.145  0.00  0.00    -0.251 OA
ENDBRANCH  11  13
ENDBRANCH   3  11
ENDBRANCH   1   6
BRANCH   2  15
ATOM     15  N   UNL     1       2.138   4.348  -0.013  0.00  0.00    -0.204 N 
ATOM     16  C   UNL     1       1.085   3.506  -0.033  0.00  0.00    +0.270 C 
ATOM     17  O   UNL     1      -0.044   3.947  -0.045  0.00  0.00    -0.270 OA
ATOM     18  H   UNL     1       3.041   3.995  -0.003  0.00  0.00    +0.177 HD
BRANCH  16  19
ATOM     19  C   UNL     1       1.313   2.016  -0.042  0.00  0.00    +0.326 C 
BRANCH  19  20
ATOM     20  O   UNL     1       0.053   1.342  -0.064  0.00  0.00    -0.482 OA
BRANCH  20  21
ATOM     21  C   UNL     1       0.080  -0.017  -0.075  0.00  0.00    +0.135 A 
ATOM     22  C   UNL     1       1.294  -0.687  -0.063  0.00  0.00    +0.048 A 
ATOM     23  C   UNL     1       1.320  -2.068  -0.074  0.00  0.00    +0.023 A 
ATOM     24  C   UNL     1       0.136  -2.784  -0.095  0.00  0.00    +0.042 A 
ATOM     25  C   UNL     1      -1.077  -2.117  -0.106  0.00  0.00    +0.039 A 
ATOM     26  C   UNL     1      -1.107  -0.735  -0.090  0.00  0.00    +0.061 A 
ATOM     27 BR   UNL     1      -2.764   0.175  -0.098  0.00  0.00    -0.046 Br
ATOM     28 CL   UNL     1       0.171  -4.519  -0.108  0.00  0.00    -0.084 Cl
ENDBRANCH  20  21
ENDBRANCH  19  20
ENDBRANCH  16  19
ENDBRANCH   2  15
TORSDOF 8
