REMARK  Name = ZINC06075421
REMARK  9 active torsions:
REMARK  status: ('A' for Active; 'I' for Inactive)
REMARK    1  A    between atoms: C_1  and  C_2
REMARK    2  A    between atoms: C_2  and  C_3
REMARK    3  A    between atoms: C_2  and  C_4
REMARK    4  A    between atoms: C_2  and  C_5
REMARK    5  A    between atoms: C_8  and  C_11
REMARK    6  A    between atoms: C_16  and  O_31
REMARK    7  A    between atoms: C_19  and  C_22
REMARK    8  A    between atoms: C_25  and  N_28
REMARK    9  A    between atoms: O_31  and  C_32
REMARK                            x       y       z     vdW  Elec       q    Type
REMARK                         _______ _______ _______ _____ _____    ______ ____
ROOT
ATOM      1  C   UNL     1      -4.709  -1.085  -0.043  0.00  0.00    +0.124 C 
ATOM      2  N   UNL     1      -5.478  -0.009   0.114  0.00  0.00    -0.299 N 
ATOM      3  C   UNL     1      -5.080   1.256   0.204  0.00  0.00    +0.042 A 
ATOM      4  C   UNL     1      -6.142   2.170   0.366  0.00  0.00    +0.027 A 
ATOM      5  C   UNL     1      -5.870   3.496   0.472  0.00  0.00    +0.047 A 
ATOM      6  C   UNL     1      -4.552   3.987   0.423  0.00  0.00    +0.121 A 
ATOM      7  C   UNL     1      -3.470   3.139   0.266  0.00  0.00    +0.057 A 
ATOM      8  C   UNL     1      -3.692   1.768   0.153  0.00  0.00    +0.027 A 
ATOM      9  C   UNL     1      -2.504   1.014  -0.003  0.00  0.00    +0.100 C 
ATOM     10  N   UNL     1      -2.425  -0.320  -0.140  0.00  0.00    -0.172 NA
ATOM     11  N   UNL     1      -3.365  -1.194  -0.150  0.00  0.00    -0.263 N 
ATOM     12  H   UNL     1      -2.902  -2.183  -0.274  0.00  0.00    +0.190 HD
ATOM     13  H   UNL     1      -6.571  -0.119   0.182  0.00  0.00    +0.154 HD
ENDROOT
BRANCH   1  17
ATOM     14  C   UNL     1      -6.814  -4.765  -0.240  0.00  0.00    -0.042 A 
ATOM     15  C   UNL     1      -7.514  -3.572  -0.213  0.00  0.00    +0.005 A 
ATOM     16  C   UNL     1      -6.838  -2.372  -0.149  0.00  0.00    +0.011 A 
ATOM     17  C   UNL     1      -5.440  -2.364  -0.112  0.00  0.00    +0.015 A 
ATOM     18  C   UNL     1      -4.739  -3.573  -0.144  0.00  0.00    +0.011 A 
ATOM     19  C   UNL     1      -5.430  -4.765  -0.204  0.00  0.00    +0.005 A 
BRANCH  14  21
ATOM     20  C   UNL     1      -8.407  -6.108  -1.585  0.00  0.00    +0.015 C 
ATOM     21  C   UNL     1      -7.561  -6.072  -0.311  0.00  0.00    -0.013 C 
ATOM     22  C   UNL     1      -6.562  -7.231  -0.328  0.00  0.00    +0.015 C 
ATOM     23  C   UNL     1      -8.473  -6.204   0.910  0.00  0.00    +0.015 C 
ENDBRANCH  14  21
ENDBRANCH   1  17
BRANCH   9  24
ATOM     24  C   UNL     1      -1.236   1.765  -0.024  0.00  0.00    +0.003 A 
ATOM     25  C   UNL     1      -0.670   2.158  -1.243  0.00  0.00    +0.012 A 
ATOM     26  C   UNL     1       0.513   2.864  -1.253  0.00  0.00    +0.033 A 
ATOM     27  C   UNL     1       1.146   3.180  -0.062  0.00  0.00    +0.126 A 
ATOM     28  C   UNL     1       0.596   2.790   1.147  0.00  0.00    +0.033 A 
ATOM     29  C   UNL     1      -0.587   2.083   1.175  0.00  0.00    +0.012 A 
BRANCH  27  30
ATOM     30  N   UNL     1       2.416   3.939  -0.083  0.00  0.00    +0.056 N 
ATOM     31  O   UNL     1       2.942   4.312  -1.231  0.00  0.00    -0.126 OA
ATOM     32  O   UNL     1       3.021   4.241   1.047  0.00  0.00    -0.126 OA
ENDBRANCH  27  30
ENDBRANCH   9  24
BRANCH   6  33
ATOM     33  O   UNL     1      -4.337   5.320   0.533  0.00  0.00    -0.495 OA
ATOM     34  C   UNL     1      -5.489   6.151   0.694  0.00  0.00    +0.277 C 
ENDBRANCH   6  33
TORSDOF 5
