REMARK  Name = ZINC39584038
REMARK  7 active torsions:
REMARK  status: ('A' for Active; 'I' for Inactive)
REMARK    1  A    between atoms: C_1  and  C_2
REMARK    2  A    between atoms: C_2  and  C_4
REMARK    3  A    between atoms: C_2  and  O_16
REMARK    4  A    between atoms: N_9  and  C_10
REMARK    5  A    between atoms: O_16  and  C_17
REMARK    6  A    between atoms: C_17  and  C_19
REMARK    7  A    between atoms: N_28  and  C_30
REMARK                            x       y       z     vdW  Elec       q    Type
REMARK                         _______ _______ _______ _____ _____    ______ ____
ROOT
ATOM      1  C   UNL     1      -0.130  -0.936  -2.204  0.00  0.00    +0.361 C 
ATOM      2  O   UNL     1      -1.329  -0.744  -2.158  0.00  0.00    -0.243 OA
ENDROOT
BRANCH   1   3
ATOM      3  C   UNL     1       0.513  -1.276  -3.486  0.00  0.00    +0.176 A 
ATOM      4  C   UNL     1      -0.287  -1.379  -4.718  0.00  0.00    +0.021 A 
ATOM      5  C   UNL     1      -1.661  -1.169  -4.742  0.00  0.00    +0.011 A 
ATOM      6  C   UNL     1      -2.342  -1.284  -5.936  0.00  0.00    +0.001 A 
ATOM      7  C   UNL     1      -1.672  -1.608  -7.108  0.00  0.00    +0.001 A 
ATOM      8  C   UNL     1      -0.310  -1.821  -7.106  0.00  0.00    +0.014 A 
ATOM      9  C   UNL     1       0.396  -1.709  -5.912  0.00  0.00    +0.051 A 
ATOM     10  C   UNL     1       1.847  -1.920  -5.819  0.00  0.00    +0.280 A 
ATOM     11  O   UNL     1       2.498  -2.206  -6.807  0.00  0.00    -0.265 OA
ATOM     12  N   UNL     1       2.440  -1.789  -4.615  0.00  0.00    -0.196 N 
ATOM     13  N   UNL     1       1.808  -1.485  -3.545  0.00  0.00    -0.156 NA
BRANCH  12  14
ATOM     14  C   UNL     1       3.822  -1.991  -4.532  0.00  0.00    +0.069 A 
ATOM     15  C   UNL     1       4.673  -1.353  -5.426  0.00  0.00    +0.028 A 
ATOM     16  C   UNL     1       6.037  -1.555  -5.342  0.00  0.00    +0.002 A 
ATOM     17  C   UNL     1       6.555  -2.390  -4.369  0.00  0.00    +0.000 A 
ATOM     18  C   UNL     1       5.710  -3.026  -3.478  0.00  0.00    +0.002 A 
ATOM     19  C   UNL     1       4.346  -2.825  -3.553  0.00  0.00    +0.028 A 
ENDBRANCH  12  14
ENDBRANCH   1   3
BRANCH   1  20
ATOM     20  O   UNL     1       0.611  -0.838  -1.083  0.00  0.00    -0.448 OA
BRANCH  20  22
ATOM     21  C   UNL     1      -0.110   1.016   0.290  0.00  0.00    +0.062 C 
ATOM     22  C   UNL     1      -0.078  -0.505   0.124  0.00  0.00    +0.259 C 
BRANCH  22  23
ATOM     23  C   UNL     1       0.636  -1.124   1.298  0.00  0.00    +0.261 C 
ATOM     24  O   UNL     1       1.685  -1.708   1.129  0.00  0.00    -0.271 OA
ATOM     25  N   UNL     1       0.108  -1.028   2.534  0.00  0.00    -0.237 N 
ATOM     26  C   UNL     1       0.747  -1.581   3.584  0.00  0.00    +0.306 C 
ATOM     27  O   UNL     1       1.799  -2.167   3.415  0.00  0.00    -0.252 OA
ATOM     28  N   UNL     1       0.220  -1.486   4.820  0.00  0.00    -0.296 N 
ATOM     29  H   UNL     1      -0.731  -0.561   2.668  0.00  0.00    +0.159 HD
ATOM     30  H   UNL     1      -0.620  -1.018   4.955  0.00  0.00    +0.151 HD
BRANCH  28  31
ATOM     31  C   UNL     1       0.914  -2.087   5.962  0.00  0.00    +0.074 C 
ATOM     32  C   UNL     1       1.964  -1.110   6.493  0.00  0.00    +0.022 C 
ATOM     33  C   UNL     1       2.689  -1.738   7.685  0.00  0.00    +0.002 C 
ATOM     34  C   UNL     1       1.678  -2.051   8.790  0.00  0.00    +0.000 C 
ATOM     35  C   UNL     1       0.628  -3.029   8.258  0.00  0.00    +0.002 C 
ATOM     36  C   UNL     1      -0.097  -2.400   7.066  0.00  0.00    +0.022 C 
ENDBRANCH  28  31
ENDBRANCH  22  23
ENDBRANCH  20  22
ENDBRANCH   1  20
TORSDOF 6
