REMARK  Name = ZINC16649137
REMARK  4 active torsions:
REMARK  status: ('A' for Active; 'I' for Inactive)
REMARK    1  A    between atoms: C_1  and  C_2
REMARK    2  A    between atoms: C_16  and  C_19
REMARK    3  A    between atoms: C_24  and  O_25
REMARK    4  A    between atoms: O_25  and  C_26
REMARK                            x       y       z     vdW  Elec       q    Type
REMARK                         _______ _______ _______ _____ _____    ______ ____
ROOT
ATOM      1  C   UNL     1      -5.761  -4.738   3.151  0.00  0.00    +0.044 C 
ATOM      2  C   UNL     1      -5.183  -3.713   2.209  0.00  0.00    -0.050 A 
ATOM      3  C   UNL     1      -5.523  -3.740   0.868  0.00  0.00    +0.005 A 
ATOM      4  C   UNL     1      -4.997  -2.800   0.005  0.00  0.00    +0.023 A 
ATOM      5  C   UNL     1      -4.126  -1.825   0.481  0.00  0.00    +0.033 A 
ATOM      6  C   UNL     1      -3.781  -1.805   1.827  0.00  0.00    +0.003 A 
ATOM      7  C   UNL     1      -4.316  -2.749   2.685  0.00  0.00    +0.011 A 
ATOM      8  C   UNL     1      -2.834  -0.770   2.358  0.00  0.00    +0.155 C 
ATOM      9  C   UNL     1      -2.836   0.462   1.452  0.00  0.00    +0.047 C 
ATOM     10  C   UNL     1      -1.799   1.456   1.975  0.00  0.00    +0.011 C 
ATOM     11  C   UNL     1      -2.160   1.811   3.423  0.00  0.00    +0.028 C 
ATOM     12  C   UNL     1      -2.245   0.536   4.264  0.00  0.00    +0.160 C 
ATOM     13  O   UNL     1      -3.183  -0.377   3.682  0.00  0.00    -0.372 OA
ATOM     14  C   UNL     1      -2.505   0.019   0.025  0.00  0.00    +0.110 C 
ATOM     15  N   UNL     1      -3.583  -0.878  -0.420  0.00  0.00    -0.336 N 
ATOM     16  H   UNL     1      -3.938  -0.804  -1.319  0.00  0.00    +0.147 HD
ENDROOT
BRANCH  14  17
ATOM     17  C   UNL     1      -1.189  -0.715   0.010  0.00  0.00    +0.015 A 
ATOM     18  C   UNL     1      -1.167  -2.096   0.002  0.00  0.00    +0.009 A 
ATOM     19  C   UNL     1       0.040  -2.770  -0.013  0.00  0.00    +0.001 A 
ATOM     20  C   UNL     1       1.228  -2.064  -0.020  0.00  0.00    +0.004 A 
ATOM     21  C   UNL     1       1.212  -0.682  -0.019  0.00  0.00    +0.046 A 
ATOM     22  C   UNL     1       0.002  -0.004   0.002  0.00  0.00    +0.125 A 
BRANCH  22  23
ATOM     23  O   UNL     1      -0.016   1.355   0.009  0.00  0.00    -0.495 OA
ATOM     24  C   UNL     1       1.248   2.021   0.001  0.00  0.00    +0.277 C 
ENDBRANCH  22  23
ENDBRANCH  14  17
TORSDOF 2
