REMARK  Name = ZINC27549675
REMARK  5 active torsions:
REMARK  status: ('A' for Active; 'I' for Inactive)
REMARK    1  A    between atoms: C_1  and  C_2
REMARK    2  A    between atoms: C_4  and  C_15
REMARK    3  A    between atoms: C_5  and  C_14
REMARK    4  A    between atoms: N_6  and  C_7
REMARK    5  A    between atoms: C_25  and  C_27
REMARK                            x       y       z     vdW  Elec       q    Type
REMARK                         _______ _______ _______ _____ _____    ______ ____
ROOT
ATOM      1  C   UNL     1       0.128  -3.412  -1.427  0.00  0.00    +0.026 C 
ATOM      2  C   UNL     1       0.587  -3.321  -2.725  0.00  0.00    +0.081 C 
ATOM      3  C   UNL     1       1.180  -2.065  -3.261  0.00  0.00    +0.153 C 
ATOM      4  N   UNL     1       1.871  -1.229  -2.532  0.00  0.00    -0.283 NA
ATOM      5  N   UNL     1       0.921  -1.865  -4.634  0.00  0.00    -0.152 N 
ATOM      6  C   UNL     1       0.635  -2.978  -5.396  0.00  0.00    +0.181 C 
ATOM      7  N   UNL     1       0.478  -4.210  -4.982  0.00  0.00    -0.152 NA
ATOM      8  C   UNL     1       0.523  -4.472  -3.658  0.00  0.00    +0.273 C 
ATOM      9  O   UNL     1       0.506  -5.619  -3.240  0.00  0.00    -0.268 OA
ATOM     10  S   UNL     1       0.521  -2.292  -7.027  0.00  0.00    -0.029 S 
ATOM     11  C   UNL     1       0.758  -0.578  -6.577  0.00  0.00    +0.202 C 
ATOM     12  N   UNL     1       0.940  -0.653  -5.290  0.00  0.00    -0.160 NA
ATOM     13  H   UNL     1       2.206  -0.407  -2.923  0.00  0.00    +0.188 HD
ENDROOT
BRANCH   1  17
ATOM     14  C   UNL     1      -0.267   1.424  -0.019  0.00  0.00    +0.064 C 
ATOM     15  C   UNL     1      -0.172  -0.080  -0.019  0.00  0.00    +0.022 A 
ATOM     16  C   UNL     1      -0.053  -0.852  -1.111  0.00  0.00    +0.031 A 
ATOM     17  C   UNL     1       0.004  -2.241  -0.635  0.00  0.00    -0.003 A 
ATOM     18  C   UNL     1      -0.089  -2.173   0.745  0.00  0.00    +0.028 A 
ATOM     19  N   UNL     1      -0.189  -0.875   1.094  0.00  0.00    -0.317 N 
ATOM     20  C   UNL     1      -0.077  -3.345   1.692  0.00  0.00    +0.064 C 
BRANCH  19  21
ATOM     21  C   UNL     1      -0.296  -0.406   2.410  0.00  0.00    +0.047 A 
ATOM     22  C   UNL     1       0.758  -0.577   3.298  0.00  0.00    +0.027 A 
ATOM     23  C   UNL     1       0.649  -0.115   4.595  0.00  0.00    +0.017 A 
ATOM     24  C   UNL     1      -0.508   0.519   5.010  0.00  0.00    +0.018 A 
ATOM     25  C   UNL     1      -1.560   0.691   4.127  0.00  0.00    +0.017 A 
ATOM     26  C   UNL     1      -1.454   0.235   2.828  0.00  0.00    +0.027 A 
ATOM     27 BR   UNL     1      -0.654   1.150   6.786  0.00  0.00    -0.050 Br
ENDBRANCH  19  21
ENDBRANCH   1  17
BRANCH  11  28
ATOM     28  C   UNL     1       0.749   0.642  -7.462  0.00  0.00    +0.442 C 
ATOM     29  F   UNL     1       0.978   1.783  -6.685  0.00  0.00    -0.164 F 
ATOM     30  F   UNL     1       1.756   0.526  -8.427  0.00  0.00    -0.164 F 
ATOM     31  F   UNL     1      -0.494   0.750  -8.095  0.00  0.00    -0.164 F 
ENDBRANCH  11  28
TORSDOF 3
