REMARK  Name = ZINC67479855
REMARK  7 active torsions:
REMARK  status: ('A' for Active; 'I' for Inactive)
REMARK    1  A    between atoms: C_5  and  C_7
REMARK    2  A    between atoms: C_7  and  C_8
REMARK    3  A    between atoms: N_10  and  N_11
REMARK    4  A    between atoms: N_14  and  C_15
REMARK    5  A    between atoms: C_15  and  C_16
REMARK    6  A    between atoms: N_21  and  C_22
REMARK    7  A    between atoms: C_22  and  C_23
REMARK                            x       y       z     vdW  Elec       q    Type
REMARK                         _______ _______ _______ _____ _____    ______ ____
ROOT
ATOM      1  N   UNL     1       2.960  -4.043  -2.121  0.00  0.00    -0.218 N 
ATOM      2  C   UNL     1       3.152  -5.333  -2.461  0.00  0.00    +0.316 C 
ATOM      3  O   UNL     1       3.824  -5.611  -3.436  0.00  0.00    -0.251 OA
ATOM      4  N   UNL     1       2.600  -6.315  -1.721  0.00  0.00    -0.300 N 
ATOM      5  H   UNL     1       3.357  -3.337  -2.653  0.00  0.00    +0.174 HD
ATOM      6  H   UNL     1       2.065  -6.093  -0.943  0.00  0.00    +0.150 HD
ENDROOT
BRANCH   1   9
ATOM      7  C   UNL     1       1.994  -2.433  -0.657  0.00  0.00    +0.235 C 
ATOM      8  O   UNL     1       2.490  -1.550  -1.323  0.00  0.00    -0.274 OA
ATOM      9  N   UNL     1       2.186  -3.723  -0.998  0.00  0.00    -0.233 N 
ATOM     10  H   UNL     1       1.789  -4.429  -0.465  0.00  0.00    +0.173 HD
BRANCH   7  11
ATOM     11  C   UNL     1       1.161  -2.089   0.551  0.00  0.00    +0.152 C 
BRANCH  11  16
ATOM     12  C   UNL     1      -0.168   1.419   0.924  0.00  0.00    +0.003 A 
ATOM     13  C   UNL     1       1.031   2.113   0.996  0.00  0.00    +0.020 A 
ATOM     14  C   UNL     1       2.220   1.412   0.921  0.00  0.00    +0.111 A 
ATOM     15  N   UNL     1       2.223   0.101   0.782  0.00  0.00    -0.259 NA
ATOM     16  C   UNL     1       1.103  -0.591   0.710  0.00  0.00    +0.050 A 
ATOM     17  C   UNL     1      -0.125   0.041   0.778  0.00  0.00    +0.024 A 
ENDBRANCH  11  16
ENDBRANCH   7  11
ENDBRANCH   1   9
BRANCH   4  18
ATOM     18  C   UNL     1       2.809  -7.717  -2.090  0.00  0.00    +0.090 C 
BRANCH  18  19
ATOM     19  C   UNL     1       2.081  -8.621  -1.094  0.00  0.00    -0.051 C 
ATOM     20  C   UNL     1       2.432 -10.098  -1.373  0.00  0.00    -0.016 C 
ATOM     21  C   UNL     1       3.565 -10.387  -0.353  0.00  0.00    -0.020 C 
ATOM     22  C   UNL     1       3.113  -9.542   0.864  0.00  0.00    -0.078 C 
ATOM     23  N   UNL     1       2.525  -8.315   0.278  0.00  0.00    +0.383 N 
ATOM     24  H   UNL     1       3.218  -7.582   0.256  0.00  0.00    -0.081 HD
BRANCH  23  25
ATOM     25  C   UNL     1       1.375  -7.880   1.084  0.00  0.00    -0.075 C 
BRANCH  25  26
ATOM     26  C   UNL     1       1.860  -7.431   2.464  0.00  0.00    -0.028 C 
ATOM     27  C   UNL     1       0.654  -7.112   3.349  0.00  0.00    +0.002 C 
ATOM     28  C   UNL     1       1.139  -6.663   4.729  0.00  0.00    +0.000 C 
ATOM     29  C   UNL     1       2.009  -5.413   4.582  0.00  0.00    +0.000 C 
ATOM     30  C   UNL     1       3.215  -5.733   3.697  0.00  0.00    +0.000 C 
ATOM     31  C   UNL     1       2.730  -6.181   2.317  0.00  0.00    +0.002 C 
ENDBRANCH  25  26
ENDBRANCH  23  25
ENDBRANCH  18  19
ENDBRANCH   4  18
TORSDOF 7
