REMARK  Name = ZINC13592122
REMARK  13 active torsions:
REMARK  status: ('A' for Active; 'I' for Inactive)
REMARK    1  A    between atoms: C_1  and  C_2
REMARK    2  A    between atoms: C_2  and  C_4
REMARK    3  A    between atoms: C_2  and  N_22
REMARK    4  A    between atoms: N_6  and  C_7
REMARK    5  A    between atoms: C_7  and  C_9
REMARK    6  A    between atoms: C_7  and  C_12
REMARK    7  A    between atoms: C_9  and  C_10
REMARK    8  A    between atoms: C_9  and  C_11
REMARK    9  A    between atoms: N_14  and  C_15
REMARK   10  A    between atoms: C_15  and  C_16
REMARK   11  A    between atoms: C_23  and  C_25
REMARK   12  A    between atoms: C_27  and  C_40
REMARK   13  A    between atoms: C_27  and  C_41
REMARK                            x       y       z     vdW  Elec       q    Type
REMARK                         _______ _______ _______ _____ _____    ______ ____
ROOT
ATOM      1  C   UNL     1      -0.019   1.526   0.010  0.00  0.00    +0.038 C 
ATOM      2  C   UNL     1       0.002  -0.004   0.002  0.00  0.00    +0.156 C 
ENDROOT
BRANCH   2   3
ATOM      3  C   UNL     1       0.731  -0.503   1.223  0.00  0.00    +0.234 C 
ATOM      4  O   UNL     1       0.159  -1.213   2.023  0.00  0.00    -0.274 OA
ATOM      5  N   UNL     1       2.019  -0.161   1.426  0.00  0.00    -0.302 N 
ATOM      6  H   UNL     1       2.476   0.406   0.786  0.00  0.00    +0.150 HD
BRANCH   5   7
ATOM      7  C   UNL     1       2.727  -0.647   2.613  0.00  0.00    +0.161 C 
BRANCH   7   8
ATOM      8  C   UNL     1       3.854   0.297   2.946  0.00  0.00    +0.234 C 
ATOM      9  O   UNL     1       4.047   1.278   2.259  0.00  0.00    -0.274 OA
ATOM     10  N   UNL     1       4.648   0.050   4.006  0.00  0.00    -0.310 N 
ATOM     11  H   UNL     1       4.495  -0.735   4.555  0.00  0.00    +0.149 HD
BRANCH  10  12
ATOM     12  C   UNL     1       5.744   0.967   4.330  0.00  0.00    +0.139 C 
BRANCH  12  13
ATOM     13  C   UNL     1       6.473   0.468   5.551  0.00  0.00    -0.030 A 
ATOM     14  C   UNL     1       6.067   0.868   6.810  0.00  0.00    +0.005 A 
ATOM     15  C   UNL     1       6.735   0.410   7.930  0.00  0.00    +0.000 A 
ATOM     16  C   UNL     1       7.810  -0.448   7.791  0.00  0.00    +0.000 A 
ATOM     17  C   UNL     1       8.215  -0.849   6.532  0.00  0.00    +0.000 A 
ATOM     18  C   UNL     1       7.544  -0.395   5.412  0.00  0.00    +0.005 A 
ENDBRANCH  12  13
ENDBRANCH  10  12
ENDBRANCH   7   8
BRANCH   7  19
ATOM     19  C   UNL     1       3.294  -2.040   2.334  0.00  0.00    +0.012 C 
ATOM     20  C   UNL     1       2.150  -2.998   1.996  0.00  0.00    +0.009 C 
ATOM     21  C   UNL     1       4.265  -1.969   1.154  0.00  0.00    +0.009 C 
ENDBRANCH   7  19
ENDBRANCH   5   7
ENDBRANCH   2   3
BRANCH   2  22
ATOM     22  N   UNL     1      -1.372  -0.511   0.012  0.00  0.00    -0.303 N 
ATOM     23  C   UNL     1      -2.051  -0.643  -1.145  0.00  0.00    +0.236 C 
ATOM     24  O   UNL     1      -1.524  -0.341  -2.194  0.00  0.00    -0.274 OA
ATOM     25  H   UNL     1      -1.794  -0.752   0.852  0.00  0.00    +0.149 HD
BRANCH  23  26
ATOM     26  C   UNL     1      -3.465  -1.164  -1.134  0.00  0.00    +0.179 C 
ATOM     27  C   UNL     1      -3.425  -2.700  -0.948  0.00  0.00    +0.040 C 
ATOM     28  S   UNL     1      -4.075  -3.286  -2.573  0.00  0.00    -0.125 S 
ATOM     29  C   UNL     1      -3.862  -1.697  -3.483  0.00  0.00    +0.167 C 
ATOM     30  N   UNL     1      -4.128  -0.745  -2.369  0.00  0.00    -0.269 N 
ATOM     31  C   UNL     1      -4.935   0.206  -2.888  0.00  0.00    +0.249 C 
ATOM     32  O   UNL     1      -5.071   1.329  -2.442  0.00  0.00    -0.270 OA
ATOM     33  C   UNL     1      -5.627  -0.326  -4.078  0.00  0.00    +0.043 A 
ATOM     34  C   UNL     1      -4.977  -1.511  -4.471  0.00  0.00    -0.005 A 
ATOM     35  C   UNL     1      -5.413  -2.230  -5.560  0.00  0.00    +0.007 A 
ATOM     36  C   UNL     1      -6.491  -1.778  -6.303  0.00  0.00    +0.000 A 
ATOM     37  C   UNL     1      -7.131  -0.602  -5.956  0.00  0.00    +0.001 A 
ATOM     38  C   UNL     1      -6.706   0.138  -4.830  0.00  0.00    +0.013 A 
ATOM     39  C   UNL     1      -1.993  -3.188  -0.721  0.00  0.00    +0.025 C 
ATOM     40  C   UNL     1      -4.339  -3.137   0.198  0.00  0.00    +0.025 C 
ENDBRANCH  23  26
ENDBRANCH   2  22
TORSDOF 8
