REMARK  Name = ZINC01378339
REMARK  7 active torsions:
REMARK  status: ('A' for Active; 'I' for Inactive)
REMARK    1  A    between atoms: C_1  and  C_2
REMARK    2  A    between atoms: C_7  and  C_15
REMARK    3  A    between atoms: C_13  and  C_14
REMARK    4  A    between atoms: C_15  and  N_16
REMARK    5  A    between atoms: N_16  and  C_17
REMARK    6  A    between atoms: N_25  and  C_26
REMARK    7  A    between atoms: C_26  and  C_27
REMARK                            x       y       z     vdW  Elec       q    Type
REMARK                         _______ _______ _______ _____ _____    ______ ____
ROOT
ATOM      1  N   UNL     1       2.715  -4.713  -1.415  0.00  0.00    -0.278 N 
ATOM      2  C   UNL     1       3.929  -4.938  -1.953  0.00  0.00    +0.303 C 
ATOM      3  O   UNL     1       4.933  -4.616  -1.346  0.00  0.00    -0.253 OA
ATOM      4  N   UNL     1       4.033  -5.521  -3.164  0.00  0.00    -0.295 N 
ATOM      5  H   UNL     1       3.234  -5.711  -3.680  0.00  0.00    +0.151 HD
ENDROOT
BRANCH   1   6
ATOM      6  C   UNL     1       1.505  -5.004  -2.189  0.00  0.00    +0.078 C 
ATOM      7  C   UNL     1       1.449  -6.500  -2.504  0.00  0.00    +0.022 C 
ATOM      8  C   UNL     1       0.186  -6.804  -3.312  0.00  0.00    +0.002 C 
ATOM      9  C   UNL     1       0.213  -6.008  -4.619  0.00  0.00    +0.000 C 
ATOM     10  C   UNL     1       0.269  -4.512  -4.304  0.00  0.00    +0.002 C 
ATOM     11  C   UNL     1       1.532  -4.208  -3.496  0.00  0.00    +0.022 C 
ENDBRANCH   1   6
BRANCH   1  12
ATOM     12  C   UNL     1       2.603  -4.176  -0.056  0.00  0.00    +0.150 C 
BRANCH  12  19
ATOM     13  C   UNL     1       1.503   3.719  -0.330  0.00  0.00    +0.044 C 
ATOM     14  C   UNL     1       1.477   2.213  -0.275  0.00  0.00    -0.046 A 
ATOM     15  C   UNL     1       0.260   1.548  -0.236  0.00  0.00    +0.004 A 
ATOM     16  C   UNL     1       0.214   0.183  -0.186  0.00  0.00    +0.010 A 
ATOM     17  C   UNL     1       1.406  -0.550  -0.174  0.00  0.00    -0.001 A 
ATOM     18  C   UNL     1       1.394  -2.013  -0.121  0.00  0.00    +0.020 A 
ATOM     19  C   UNL     1       2.580  -2.670  -0.111  0.00  0.00    +0.035 A 
ATOM     20  C   UNL     1       3.792  -1.949  -0.151  0.00  0.00    +0.254 A 
ATOM     21  O   UNL     1       4.847  -2.560  -0.142  0.00  0.00    -0.268 OA
ATOM     22  N   UNL     1       3.813  -0.606  -0.201  0.00  0.00    -0.322 N 
ATOM     23  H   UNL     1       4.691  -0.127  -0.228  0.00  0.00    +0.169 HD
ATOM     24  C   UNL     1       2.642   0.121  -0.214  0.00  0.00    +0.052 A 
ATOM     25  C   UNL     1       2.663   1.512  -0.265  0.00  0.00    -0.024 A 
ATOM     26  C   UNL     1       3.978   2.247  -0.307  0.00  0.00    +0.046 C 
ENDBRANCH  12  19
ENDBRANCH   1  12
BRANCH   4  27
ATOM     27  C   UNL     1       5.351  -5.867  -3.700  0.00  0.00    +0.141 C 
BRANCH  27  28
ATOM     28  C   UNL     1       5.191  -6.502  -5.057  0.00  0.00    -0.030 A 
ATOM     29  C   UNL     1       5.048  -7.872  -5.168  0.00  0.00    +0.005 A 
ATOM     30  C   UNL     1       4.895  -8.453  -6.412  0.00  0.00    +0.000 A 
ATOM     31  C   UNL     1       4.897  -7.665  -7.548  0.00  0.00    +0.000 A 
ATOM     32  C   UNL     1       5.045  -6.295  -7.438  0.00  0.00    +0.000 A 
ATOM     33  C   UNL     1       5.192  -5.713  -6.193  0.00  0.00    +0.005 A 
ENDBRANCH  27  28
ENDBRANCH   4  27
TORSDOF 5
