REMARK  Name = ZINC07075214
REMARK  9 active torsions:
REMARK  status: ('A' for Active; 'I' for Inactive)
REMARK    1  A    between atoms: C_1  and  C_2
REMARK    2  A    between atoms: C_5  and  C_8
REMARK    3  A    between atoms: N_13  and  C_14
REMARK    4  A    between atoms: C_14  and  C_15
REMARK    5  A    between atoms: N_17  and  C_18
REMARK    6  A    between atoms: C_18  and  C_20
REMARK    7  A    between atoms: C_18  and  C_21
REMARK    8  A    between atoms: C_24  and  O_28
REMARK    9  A    between atoms: O_28  and  C_29
REMARK                            x       y       z     vdW  Elec       q    Type
REMARK                         _______ _______ _______ _____ _____    ______ ____
ROOT
ATOM      1  C   UNL     1      -1.801   2.584   0.846  0.00  0.00    +0.233 C 
ATOM      2  O   UNL     1      -1.272   2.255   1.887  0.00  0.00    -0.274 OA
ATOM      3  N   UNL     1      -2.938   3.308   0.867  0.00  0.00    -0.307 N 
ATOM      4  H   UNL     1      -3.361   3.571   0.035  0.00  0.00    +0.149 HD
ENDROOT
BRANCH   3   5
ATOM      5  C   UNL     1      -3.535   3.696   2.147  0.00  0.00    +0.100 C 
ATOM      6  C   UNL     1      -2.879   4.984   2.647  0.00  0.00    +0.033 C 
BRANCH   5   7
ATOM      7  C   UNL     1      -5.013   3.923   1.964  0.00  0.00    -0.025 A 
ATOM      8  C   UNL     1      -5.477   4.564   0.830  0.00  0.00    +0.009 A 
ATOM      9  C   UNL     1      -6.832   4.770   0.655  0.00  0.00    +0.049 A 
ATOM     10  C   UNL     1      -7.728   4.343   1.624  0.00  0.00    +0.155 A 
ATOM     11  C   UNL     1      -7.261   3.703   2.765  0.00  0.00    +0.165 A 
ATOM     12  C   UNL     1      -5.903   3.495   2.932  0.00  0.00    +0.047 A 
ATOM     13  F   UNL     1      -8.130   3.286   3.711  0.00  0.00    -0.202 F 
BRANCH  10  14
ATOM     14  O   UNL     1      -9.061   4.550   1.457  0.00  0.00    -0.492 OA
ATOM     15  C   UNL     1      -9.470   5.213   0.259  0.00  0.00    +0.277 C 
ENDBRANCH  10  14
ENDBRANCH   5   7
ENDBRANCH   3   5
BRANCH   1  16
ATOM     16  C   UNL     1      -1.186   2.185  -0.471  0.00  0.00    +0.219 C 
BRANCH  16  22
ATOM     17  C   UNL     1      -0.000   0.044  -0.245  0.00  0.00    +0.057 A 
ATOM     18  C   UNL     1       1.136  -0.650  -0.022  0.00  0.00    +0.074 A 
ATOM     19  S   UNL     1       2.322   0.662   0.228  0.00  0.00    -0.070 S 
ATOM     20  C   UNL     1       1.207   2.041   0.016  0.00  0.00    +0.126 A 
ATOM     21  S   UNL     1       1.537   3.720   0.096  0.00  0.00    -0.025 S 
ATOM     22  N   UNL     1       0.033   1.411  -0.226  0.00  0.00    -0.320 N 
BRANCH  17  27
ATOM     23  C   UNL     1      -4.942  -2.725  -1.261  0.00  0.00    +0.044 C 
ATOM     24  C   UNL     1      -3.648  -1.999  -0.995  0.00  0.00    -0.050 A 
ATOM     25  C   UNL     1      -2.460  -2.504  -1.495  0.00  0.00    +0.004 A 
ATOM     26  C   UNL     1      -1.272  -1.845  -1.254  0.00  0.00    +0.010 A 
ATOM     27  C   UNL     1      -1.270  -0.667  -0.506  0.00  0.00    -0.001 A 
ATOM     28  C   UNL     1      -2.471  -0.166  -0.001  0.00  0.00    +0.010 A 
ATOM     29  C   UNL     1      -3.653  -0.832  -0.253  0.00  0.00    +0.004 A 
ENDBRANCH  17  27
ENDBRANCH  16  22
ENDBRANCH   1  16
TORSDOF 6
