REMARK  Name = ZINC34757782
REMARK  11 active torsions:
REMARK  status: ('A' for Active; 'I' for Inactive)
REMARK    1  A    between atoms: C_1  and  C_2
REMARK    2  A    between atoms: C_2  and  N_3
REMARK    3  A    between atoms: N_3  and  C_4
REMARK    4  A    between atoms: C_4  and  C_5
REMARK    5  A    between atoms: C_6  and  C_8
REMARK    6  A    between atoms: C_8  and  S_9
REMARK    7  A    between atoms: S_9  and  C_10
REMARK    8  A    between atoms: N_25  and  C_28
REMARK    9  A    between atoms: C_28  and  C_29
REMARK   10  A    between atoms: C_29  and  C_30
REMARK   11  A    between atoms: C_30  and  C_31
REMARK                            x       y       z     vdW  Elec       q    Type
REMARK                         _______ _______ _______ _____ _____    ______ ____
ROOT
ATOM      1  C   UNL     1       0.438  -2.139  -6.226  0.00  0.00    +0.191 A 
ATOM      2  N   UNL     1      -0.155  -2.382  -7.389  0.00  0.00    -0.206 NA
ATOM      3  C   UNL     1       0.533  -2.639  -8.488  0.00  0.00    +0.134 A 
ATOM      4  C   UNL     1       1.955  -2.656  -8.427  0.00  0.00    +0.051 A 
ATOM      5  C   UNL     1       2.913  -2.917  -9.515  0.00  0.00    -0.025 A 
ATOM      6  C   UNL     1       4.216  -2.876  -9.198  0.00  0.00    -0.004 A 
ATOM      7  S   UNL     1       4.259  -2.491  -7.462  0.00  0.00    -0.073 S 
ATOM      8  C   UNL     1       2.515  -2.390  -7.165  0.00  0.00    +0.115 A 
ATOM      9  N   UNL     1       1.759  -2.137  -6.113  0.00  0.00    -0.214 NA
ATOM     10  C   UNL     1       5.099  -3.161 -10.383  0.00  0.00    +0.043 C 
ATOM     11  C   UNL     1       4.159  -3.817 -11.418  0.00  0.00    +0.010 C 
ATOM     12  C   UNL     1       2.790  -3.239 -11.007  0.00  0.00    +0.037 C 
ATOM     13  N   UNL     1      -0.119  -2.889  -9.682  0.00  0.00    -0.318 N 
ATOM     14  C   UNL     1      -0.372  -1.808 -10.646  0.00  0.00    +0.088 C 
ATOM     15  C   UNL     1      -1.852  -1.843 -11.039  0.00  0.00    -0.060 C 
ATOM     16  N   UNL     1      -2.196  -3.184 -11.529  0.00  0.00    +0.382 N 
ATOM     17  C   UNL     1      -2.051  -4.164 -10.445  0.00  0.00    -0.060 C 
ATOM     18  C   UNL     1      -0.576  -4.245 -10.025  0.00  0.00    +0.088 C 
ATOM     19  H   UNL     1      -1.580  -3.432 -12.289  0.00  0.00    -0.082 HD
ENDROOT
BRANCH   1  20
ATOM     20  S   UNL     1      -0.550  -1.804  -4.806  0.00  0.00    -0.077 S 
BRANCH  20  21
ATOM     21  C   UNL     1       0.660  -1.530  -3.483  0.00  0.00    +0.173 C 
BRANCH  21  23
ATOM     22  N   UNL     1       0.639  -0.991  -1.069  0.00  0.00    -0.301 N 
ATOM     23  C   UNL     1      -0.062  -1.230  -2.195  0.00  0.00    +0.226 C 
ATOM     24  O   UNL     1      -1.274  -1.203  -2.172  0.00  0.00    -0.275 OA
BRANCH  22  26
ATOM     25  C   UNL     1      -0.283   0.810   0.305  0.00  0.00    +0.024 C 
ATOM     26  C   UNL     1      -0.063  -0.699   0.183  0.00  0.00    +0.104 C 
ENDBRANCH  22  26
BRANCH  22  27
ATOM     27  C   UNL     1       2.104  -1.023  -1.097  0.00  0.00    +0.104 C 
ATOM     28  C   UNL     1       2.589  -2.442  -0.793  0.00  0.00    +0.024 C 
ENDBRANCH  22  27
ENDBRANCH  21  23
ENDBRANCH  20  21
ENDBRANCH   1  20
BRANCH  16  29
ATOM     29  C   UNL     1      -3.585  -3.188 -12.008  0.00  0.00    -0.078 C 
BRANCH  29  30
ATOM     30  C   UNL     1      -3.905  -4.547 -12.632  0.00  0.00    -0.014 C 
BRANCH  30  31
ATOM     31  C   UNL     1      -5.352  -4.551 -13.130  0.00  0.00    +0.033 C 
BRANCH  31  32
ATOM     32  C   UNL     1      -5.668  -5.890 -13.745  0.00  0.00    -0.047 A 
ATOM     33  C   UNL     1      -5.441  -6.104 -15.092  0.00  0.00    +0.003 A 
ATOM     34  C   UNL     1      -5.731  -7.332 -15.656  0.00  0.00    +0.000 A 
ATOM     35  C   UNL     1      -6.247  -8.347 -14.873  0.00  0.00    +0.000 A 
ATOM     36  C   UNL     1      -6.473  -8.134 -13.526  0.00  0.00    +0.000 A 
ATOM     37  C   UNL     1      -6.179  -6.907 -12.961  0.00  0.00    +0.003 A 
ENDBRANCH  31  32
ENDBRANCH  30  31
ENDBRANCH  29  30
ENDBRANCH  16  29
TORSDOF 9
