REMARK  Name = ZINC19323385
REMARK  5 active torsions:
REMARK  status: ('A' for Active; 'I' for Inactive)
REMARK    1  A    between atoms: C_1  and  C_2
REMARK    2  A    between atoms: C_12  and  C_16
REMARK    3  A    between atoms: C_12  and  C_17
REMARK    4  A    between atoms: C_14  and  C_15
REMARK    5  A    between atoms: N_23  and  C_24
REMARK                            x       y       z     vdW  Elec       q    Type
REMARK                         _______ _______ _______ _____ _____    ______ ____
ROOT
ATOM      1  C   UNL     1       0.341   2.174   0.853  0.00  0.00    +0.044 C 
ATOM      2  C   UNL     1       0.235   0.699   0.560  0.00  0.00    -0.049 A 
ATOM      3  C   UNL     1       0.187   0.273  -0.755  0.00  0.00    +0.013 A 
ATOM      4  C   UNL     1       0.090  -1.093  -1.026  0.00  0.00    -0.000 A 
ATOM      5  C   UNL     1       0.044  -1.973   0.048  0.00  0.00    +0.052 A 
ATOM      6  C   UNL     1       0.091  -1.550   1.356  0.00  0.00    +0.033 A 
ATOM      7  C   UNL     1       0.193  -0.201   1.616  0.00  0.00    +0.013 A 
ATOM      8  C   UNL     1       0.015  -2.815   2.174  0.00  0.00    +0.260 C 
ATOM      9  C   UNL     1      -0.080  -3.924   1.142  0.00  0.00    +0.276 C 
ATOM     10  O   UNL     1      -0.166  -5.112   1.370  0.00  0.00    -0.270 OA
ATOM     11  N   UNL     1      -0.053  -3.345  -0.076  0.00  0.00    -0.257 N 
ATOM     12  C   UNL     1      -0.105  -3.894  -1.443  0.00  0.00    +0.055 C 
ATOM     13  C   UNL     1      -0.056  -2.931  -2.606  0.00  0.00    +0.002 C 
ATOM     14  C   UNL     1       0.036  -1.621  -2.402  0.00  0.00    -0.043 C 
ATOM     15  C   UNL     1       0.084  -0.676  -3.575  0.00  0.00    +0.044 C 
ATOM     16  C   UNL     1       1.064  -4.868  -1.597  0.00  0.00    +0.036 C 
ATOM     17  C   UNL     1      -1.396  -4.706  -1.567  0.00  0.00    +0.036 C 
ATOM     18  N   UNL     1       1.229  -2.982   2.962  0.00  0.00    -0.212 NA
ATOM     19  C   UNL     1       1.245  -2.802   4.248  0.00  0.00    +0.182 C 
ATOM     20  N   UNL     1       0.088  -2.453   4.914  0.00  0.00    -0.260 N 
ATOM     21  C   UNL     1      -1.129  -2.632   4.289  0.00  0.00    +0.189 C 
ATOM     22  N   UNL     1      -1.182  -2.810   3.003  0.00  0.00    -0.212 NA
ATOM     23  N   UNL     1      -2.289  -2.624   5.029  0.00  0.00    -0.287 N 
ATOM     24  N   UNL     1       2.418  -2.961   4.947  0.00  0.00    -0.331 N 
ATOM     25  H   UNL     1      -2.259  -2.409   5.975  0.00  0.00    +0.155 HD
ATOM     26  H   UNL     1       3.232  -3.207   4.480  0.00  0.00    +0.145 HD
ATOM     27  H   UNL     1       2.432  -2.827   5.908  0.00  0.00    +0.145 HD
ATOM     28  H   UNL     1       0.130  -2.086   5.811  0.00  0.00    +0.157 HD
ENDROOT
BRANCH  23  29
ATOM     29  C   UNL     1      -3.511  -2.925   4.418  0.00  0.00    +0.033 A 
ATOM     30  C   UNL     1      -3.575  -3.906   3.438  0.00  0.00    +0.023 A 
ATOM     31  C   UNL     1      -4.784  -4.201   2.837  0.00  0.00    +0.002 A 
ATOM     32  C   UNL     1      -5.928  -3.521   3.211  0.00  0.00    +0.000 A 
ATOM     33  C   UNL     1      -5.867  -2.543   4.187  0.00  0.00    +0.002 A 
ATOM     34  C   UNL     1      -4.663  -2.247   4.795  0.00  0.00    +0.023 A 
ENDBRANCH  23  29
TORSDOF 1
