REMARK  Name = ZINC39226300
REMARK  4 active torsions:
REMARK  status: ('A' for Active; 'I' for Inactive)
REMARK    1  A    between atoms: C_1  and  N_2
REMARK    2  A    between atoms: C_13  and  C_18
REMARK    3  A    between atoms: C_21  and  C_24
REMARK    4  A    between atoms: N_26  and  N_27
REMARK                            x       y       z     vdW  Elec       q    Type
REMARK                         _______ _______ _______ _____ _____    ______ ____
ROOT
ATOM      1  C   UNL     1      -0.018   1.465   0.010  0.00  0.00    -0.096 C 
ATOM      2  N   UNL     1       0.002  -0.004   0.002  0.00  0.00    +0.378 N 
ATOM      3  C   UNL     1       0.681  -0.476  -1.211  0.00  0.00    -0.075 C 
ATOM      4  C   UNL     1       0.632  -2.005  -1.265  0.00  0.00    +0.030 C 
ATOM      5  C   UNL     1       1.332  -2.576  -0.029  0.00  0.00    +0.114 C 
ATOM      6  C   UNL     1       0.666  -2.018   1.231  0.00  0.00    +0.030 C 
ATOM      7  C   UNL     1       0.712  -0.489   1.192  0.00  0.00    -0.075 C 
ATOM      8  C   UNL     1       1.206  -4.105  -0.036  0.00  0.00    +0.127 C 
ATOM      9  C   UNL     1       1.902  -4.606  -1.289  0.00  0.00    +0.170 C 
ATOM     10  O   UNL     1       1.448  -5.515  -1.951  0.00  0.00    -0.292 OA
ATOM     11  C   UNL     1       3.160  -3.931  -1.658  0.00  0.00    +0.060 A 
ATOM     12  C   UNL     1       3.993  -4.468  -2.638  0.00  0.00    +0.023 A 
ATOM     13  C   UNL     1       5.170  -3.808  -2.973  0.00  0.00    -0.017 A 
ATOM     14  C   UNL     1       5.508  -2.615  -2.328  0.00  0.00    +0.012 A 
ATOM     15  C   UNL     1       4.686  -2.085  -1.358  0.00  0.00    +0.047 A 
ATOM     16  C   UNL     1       3.507  -2.734  -1.009  0.00  0.00    +0.132 A 
ATOM     17  O   UNL     1       2.711  -2.212  -0.047  0.00  0.00    -0.485 OA
ATOM     18  H   UNL     1      -0.945  -0.352   0.012  0.00  0.00    -0.082 HD
ENDROOT
BRANCH  13  19
ATOM     19  C   UNL     1       6.065  -4.369  -4.013  0.00  0.00    -0.018 A 
ATOM     20  C   UNL     1       5.723  -5.557  -4.660  0.00  0.00    +0.009 A 
ATOM     21  C   UNL     1       6.553  -6.079  -5.626  0.00  0.00    +0.014 A 
ATOM     22  C   UNL     1       7.739  -5.418  -5.959  0.00  0.00    +0.038 A 
ATOM     23  C   UNL     1       8.080  -4.228  -5.310  0.00  0.00    +0.014 A 
ATOM     24  C   UNL     1       7.245  -3.705  -4.349  0.00  0.00    +0.009 A 
BRANCH  22  25
ATOM     25  C   UNL     1       8.631  -5.977  -6.994  0.00  0.00    +0.258 C 
ATOM     26  O   UNL     1       8.334  -7.013  -7.558  0.00  0.00    -0.269 OA
ATOM     27  N   UNL     1       9.774  -5.340  -7.315  0.00  0.00    -0.244 N 
ATOM     28  H   UNL     1      10.011  -4.514  -6.865  0.00  0.00    +0.170 HD
BRANCH  27  29
ATOM     29  N   UNL     1      10.599  -5.857  -8.273  0.00  0.00    -0.226 NA
ATOM     30  C   UNL     1      11.955  -6.152  -7.711  0.00  0.00    +0.109 C 
ATOM     31  C   UNL     1      12.876  -5.221  -8.438  0.00  0.00    +0.009 C 
ATOM     32  C   UNL     1      14.308  -5.449  -8.812  0.00  0.00    +0.005 C 
ATOM     33  C   UNL     1      14.492  -4.622 -10.122  0.00  0.00    +0.001 C 
ATOM     34  C   UNL     1      13.065  -4.111 -10.505  0.00  0.00    +0.005 C 
ATOM     35  C   UNL     1      12.194  -5.175  -9.860  0.00  0.00    +0.009 C 
ATOM     36  C   UNL     1      10.775  -4.893  -9.409  0.00  0.00    +0.109 C 
ENDBRANCH  27  29
ENDBRANCH  22  25
ENDBRANCH  13  19
TORSDOF 3
