REMARK  Name = ZINC64502628
REMARK  8 active torsions:
REMARK  status: ('A' for Active; 'I' for Inactive)
REMARK    1  A    between atoms: C_4  and  N_7
REMARK    2  A    between atoms: C_8  and  C_10
REMARK    3  A    between atoms: C_14  and  C_17
REMARK    4  A    between atoms: C_22  and  C_25
REMARK    5  A    between atoms: C_25  and  C_26
REMARK    6  A    between atoms: N_28  and  C_29
REMARK    7  A    between atoms: C_29  and  C_30
REMARK    8  A    between atoms: C_30  and  C_31
REMARK                            x       y       z     vdW  Elec       q    Type
REMARK                         _______ _______ _______ _____ _____    ______ ____
ROOT
ATOM      1  C   UNL     1       5.307  -5.914   2.450  0.00  0.00    +0.252 C 
ATOM      2  O   UNL     1       4.191  -6.352   2.267  0.00  0.00    -0.272 OA
ATOM      3  N   UNL     1       6.027  -6.327   3.512  0.00  0.00    -0.299 N 
ATOM      4  C   UNL     1       7.378  -5.802   3.750  0.00  0.00    +0.108 C 
ATOM      5  C   UNL     1       7.447  -5.247   5.177  0.00  0.00    +0.023 C 
ATOM      6  C   UNL     1       7.012  -6.333   6.163  0.00  0.00    +0.001 C 
ATOM      7  C   UNL     1       5.565  -6.739   5.872  0.00  0.00    +0.023 C 
ATOM      8  C   UNL     1       5.472  -7.306   4.457  0.00  0.00    +0.108 C 
ENDROOT
BRANCH   1  12
ATOM      9  C   UNL     1       4.962  -2.721   0.153  0.00  0.00    +0.273 C 
ATOM     10  N   UNL     1       5.554  -2.587   1.503  0.00  0.00    -0.167 NA
ATOM     11  N   UNL     1       5.968  -3.563   2.099  0.00  0.00    -0.167 NA
ATOM     12  C   UNL     1       5.890  -4.910   1.489  0.00  0.00    +0.273 C 
ATOM     13  S   UNL     1       4.726  -4.554   0.096  0.00  0.00    -0.086 S 
BRANCH   9  15
ATOM     14  N   UNL     1       3.622  -0.651  -0.037  0.00  0.00    -0.283 N 
ATOM     15  C   UNL     1       3.645  -1.995   0.057  0.00  0.00    +0.254 C 
ATOM     16  O   UNL     1       2.606  -2.620   0.064  0.00  0.00    -0.272 OA
ATOM     17  H   UNL     1       4.452  -0.156  -0.121  0.00  0.00    +0.155 HD
BRANCH  14  21
ATOM     18  C   UNL     1      -0.015   1.381   0.029  0.00  0.00    +0.000 A 
ATOM     19  C   UNL     1       0.140   0.218   0.763  0.00  0.00    +0.002 A 
ATOM     20  C   UNL     1       1.344  -0.457   0.743  0.00  0.00    +0.023 A 
ATOM     21  C   UNL     1       2.400   0.031  -0.015  0.00  0.00    +0.033 A 
ATOM     22  C   UNL     1       2.241   1.198  -0.751  0.00  0.00    +0.023 A 
ATOM     23  C   UNL     1       1.034   1.870  -0.727  0.00  0.00    +0.002 A 
ENDBRANCH  14  21
ENDBRANCH   9  15
ENDBRANCH   1  12
BRANCH   6  24
ATOM     24  C   UNL     1       7.113  -5.794   7.592  0.00  0.00    +0.099 C 
BRANCH  24  25
ATOM     25  C   UNL     1       6.803  -6.899   8.569  0.00  0.00    +0.213 C 
ATOM     26  O   UNL     1       6.528  -8.008   8.162  0.00  0.00    -0.276 OA
ATOM     27  N   UNL     1       6.830  -6.655   9.894  0.00  0.00    -0.315 N 
ATOM     28  H   UNL     1       7.050  -5.768  10.219  0.00  0.00    +0.149 HD
BRANCH  27  29
ATOM     29  C   UNL     1       6.529  -7.729  10.843  0.00  0.00    +0.108 C 
BRANCH  29  30
ATOM     30  C   UNL     1       6.630  -7.190  12.272  0.00  0.00    +0.052 C 
BRANCH  30  31
ATOM     31  C   UNL     1       6.320  -8.295  13.248  0.00  0.00    -0.040 C 
ATOM     32  C   UNL     1       7.209  -9.096  13.879  0.00  0.00    -0.001 A 
ATOM     33  C   UNL     1       8.674  -9.176  13.845  0.00  0.00    +0.010 A 
ATOM     34  C   UNL     1       9.298 -10.105  14.604  0.00  0.00    +0.001 A 
ATOM     35  C   UNL     1       8.582 -10.992  15.420  0.00  0.00    +0.002 A 
ATOM     36  C   UNL     1       7.235 -10.979  15.505  0.00  0.00    +0.026 A 
ATOM     37  C   UNL     1       6.476 -10.043  14.750  0.00  0.00    +0.043 A 
ATOM     38  N   UNL     1       5.185  -9.835  14.661  0.00  0.00    -0.380 N 
ATOM     39  C   UNL     1       4.952  -8.728  13.727  0.00  0.00    +0.144 C 
ATOM     40  H   UNL     1       4.498 -10.329  15.136  0.00  0.00    +0.160 HD
ENDBRANCH  30  31
ENDBRANCH  29  30
ENDBRANCH  27  29
ENDBRANCH  24  25
ENDBRANCH   6  24
TORSDOF 8
