REMARK  Name = ZINC40839263
REMARK  6 active torsions:
REMARK  status: ('A' for Active; 'I' for Inactive)
REMARK    1  A    between atoms: C_1  and  C_2
REMARK    2  A    between atoms: C_9  and  N_13
REMARK    3  A    between atoms: C_10  and  C_11
REMARK    4  A    between atoms: C_14  and  C_16
REMARK    5  A    between atoms: C_16  and  C_17
REMARK    6  A    between atoms: C_17  and  C_18
REMARK                            x       y       z     vdW  Elec       q    Type
REMARK                         _______ _______ _______ _____ _____    ______ ____
ROOT
ATOM      1  N   UNL     1       1.941  -5.828   1.697  0.00  0.00    -0.279 N 
ATOM      2  C   UNL     1       2.252  -6.088   2.983  0.00  0.00    +0.218 C 
ATOM      3  O   UNL     1       2.232  -5.196   3.804  0.00  0.00    -0.275 OA
ATOM      4  H   UNL     1       1.957  -6.541   1.040  0.00  0.00    +0.155 HD
ENDROOT
BRANCH   1  12
ATOM      5  C   UNL     1      -0.019   1.526   0.010  0.00  0.00    +0.008 C 
ATOM      6  C   UNL     1       0.002  -0.004   0.002  0.00  0.00    -0.009 C 
ATOM      7  C   UNL     1       0.724  -0.500  -1.254  0.00  0.00    +0.008 C 
ATOM      8  C   UNL     1       0.537  -2.012  -1.399  0.00  0.00    +0.037 C 
ATOM      9  C   UNL     1       0.935  -2.680  -0.092  0.00  0.00    -0.018 A 
ATOM     10  C   UNL     1       1.019  -1.977   1.059  0.00  0.00    -0.004 A 
ATOM     11  S   UNL     1       1.508  -3.165   2.275  0.00  0.00    -0.077 S 
ATOM     12  C   UNL     1       1.599  -4.539   1.313  0.00  0.00    +0.090 A 
ATOM     13  C   UNL     1       1.254  -4.090   0.049  0.00  0.00    +0.084 A 
ATOM     14  C   UNL     1       0.750  -0.515   1.242  0.00  0.00    +0.046 C 
BRANCH  13  15
ATOM     15  C   UNL     1       1.212  -4.980  -1.072  0.00  0.00    +0.102 C 
ATOM     16  N   UNL     1       1.180  -5.685  -1.962  0.00  0.00    -0.191 NA
ENDBRANCH  13  15
ENDBRANCH   1  12
BRANCH   2  17
ATOM     17  C   UNL     1       2.624  -7.488   3.399  0.00  0.00    +0.102 C 
BRANCH  17  18
ATOM     18  C   UNL     1       2.928  -7.510   4.899  0.00  0.00    +0.070 C 
BRANCH  18  19
ATOM     19  C   UNL     1       3.300  -8.909   5.316  0.00  0.00    +0.106 A 
ATOM     20  C   UNL     1       3.631  -9.191   6.717  0.00  0.00    +0.271 A 
ATOM     21  O   UNL     1       3.608  -8.300   7.546  0.00  0.00    -0.266 OA
ATOM     22  N   UNL     1       3.963 -10.450   7.075  0.00  0.00    -0.319 N 
ATOM     23  H   UNL     1       4.185 -10.658   7.996  0.00  0.00    +0.169 HD
ATOM     24  C   UNL     1       3.980 -11.437   6.110  0.00  0.00    +0.068 A 
ATOM     25  C   UNL     1       4.317 -12.745   6.447  0.00  0.00    +0.028 A 
ATOM     26  C   UNL     1       4.330 -13.722   5.476  0.00  0.00    +0.002 A 
ATOM     27  C   UNL     1       4.010 -13.412   4.160  0.00  0.00    +0.002 A 
ATOM     28  C   UNL     1       3.677 -12.137   3.807  0.00  0.00    +0.030 A 
ATOM     29  C   UNL     1       3.655 -11.123   4.777  0.00  0.00    +0.088 A 
ATOM     30  N   UNL     1       3.321  -9.865   4.432  0.00  0.00    -0.245 NA
ENDBRANCH  18  19
ENDBRANCH  17  18
ENDBRANCH   2  17
TORSDOF 5
