REMARK  Name = ZINC40994691
REMARK  13 active torsions:
REMARK  status: ('A' for Active; 'I' for Inactive)
REMARK    1  A    between atoms: C_1  and  C_2
REMARK    2  A    between atoms: C_3  and  C_35
REMARK    3  A    between atoms: C_5  and  N_18
REMARK    4  A    between atoms: C_6  and  C_7
REMARK    5  A    between atoms: C_9  and  C_12
REMARK    6  A    between atoms: C_19  and  C_21
REMARK    7  A    between atoms: C_21  and  C_23
REMARK    8  A    between atoms: C_21  and  O_24
REMARK    9  A    between atoms: O_24  and  C_25
REMARK   10  A    between atoms: C_28  and  C_31
REMARK   11  A    between atoms: C_31  and  C_32
REMARK   12  A    between atoms: C_31  and  C_33
REMARK   13  A    between atoms: C_31  and  C_34
REMARK                            x       y       z     vdW  Elec       q    Type
REMARK                         _______ _______ _______ _____ _____    ______ ____
ROOT
ATOM      1  C   UNL     1      -0.516   1.291  -0.585  0.00  0.00    +0.045 C 
ATOM      2  C   UNL     1      -0.344  -0.202  -0.477  0.00  0.00    -0.026 A 
ATOM      3  C   UNL     1      -0.112  -0.950  -1.572  0.00  0.00    -0.008 A 
ATOM      4  S   UNL     1       0.011  -2.603  -0.917  0.00  0.00    -0.078 S 
ATOM      5  C   UNL     1      -0.252  -2.242   0.809  0.00  0.00    +0.085 A 
ATOM      6  C   UNL     1      -0.418  -0.862   0.802  0.00  0.00    +0.071 A 
ATOM      7  C   UNL     1       0.012  -0.498  -3.004  0.00  0.00    +0.052 C 
ENDROOT
BRANCH   6   8
ATOM      8  C   UNL     1      -0.662  -0.111   2.042  0.00  0.00    +0.261 A 
ATOM      9  N   UNL     1      -0.741  -0.622   3.252  0.00  0.00    -0.187 NA
ATOM     10  C   UNL     1      -0.972   0.352   4.145  0.00  0.00    +0.202 A 
ATOM     11  N   UNL     1      -1.044   1.498   3.514  0.00  0.00    -0.056 NA
ATOM     12  O   UNL     1      -0.839   1.220   2.137  0.00  0.00    -0.332 OA
BRANCH  10  13
ATOM     13  C   UNL     1      -1.123   0.162   5.610  0.00  0.00    +0.022 A 
ATOM     14  C   UNL     1      -1.020  -1.112   6.164  0.00  0.00    +0.012 A 
ATOM     15  C   UNL     1      -1.161  -1.283   7.526  0.00  0.00    +0.001 A 
ATOM     16  C   UNL     1      -1.404  -0.192   8.341  0.00  0.00    +0.000 A 
ATOM     17  C   UNL     1      -1.507   1.075   7.796  0.00  0.00    +0.001 A 
ATOM     18  C   UNL     1      -1.362   1.258   6.436  0.00  0.00    +0.012 A 
ENDBRANCH  10  13
ENDBRANCH   6   8
BRANCH   5  19
ATOM     19  N   UNL     1      -0.279  -3.117   1.887  0.00  0.00    -0.276 N 
ATOM     20  C   UNL     1      -0.089  -4.437   1.690  0.00  0.00    +0.258 C 
ATOM     21  O   UNL     1       0.106  -4.860   0.570  0.00  0.00    -0.271 OA
ATOM     22  H   UNL     1      -0.435  -2.779   2.783  0.00  0.00    +0.155 HD
BRANCH  20  23
ATOM     23  C   UNL     1      -0.118  -5.386   2.860  0.00  0.00    +0.256 C 
ATOM     24  C   UNL     1       1.052  -5.079   3.795  0.00  0.00    +0.062 C 
BRANCH  23  25
ATOM     25  O   UNL     1      -0.009  -6.730   2.385  0.00  0.00    -0.480 OA
BRANCH  25  26
ATOM     26  C   UNL     1      -0.520  -7.707   3.179  0.00  0.00    +0.122 A 
ATOM     27  C   UNL     1      -1.017  -7.393   4.436  0.00  0.00    +0.046 A 
ATOM     28  C   UNL     1      -1.537  -8.389   5.240  0.00  0.00    +0.008 A 
ATOM     29  C   UNL     1      -1.561  -9.697   4.794  0.00  0.00    -0.042 A 
ATOM     30  C   UNL     1      -1.066 -10.013   3.542  0.00  0.00    +0.008 A 
ATOM     31  C   UNL     1      -0.551  -9.020   2.732  0.00  0.00    +0.046 A 
BRANCH  29  32
ATOM     32  C   UNL     1      -2.128 -10.781   5.674  0.00  0.00    -0.013 C 
ATOM     33  C   UNL     1      -3.593 -10.470   5.989  0.00  0.00    +0.015 C 
ATOM     34  C   UNL     1      -2.037 -12.126   4.950  0.00  0.00    +0.015 C 
ATOM     35  C   UNL     1      -1.330 -10.849   6.978  0.00  0.00    +0.015 C 
ENDBRANCH  29  32
ENDBRANCH  25  26
ENDBRANCH  23  25
ENDBRANCH  20  23
ENDBRANCH   5  19
TORSDOF 7
