REMARK  Name = ZINC35091487
REMARK  15 active torsions:
REMARK  status: ('A' for Active; 'I' for Inactive)
REMARK    1  A    between atoms: C_1  and  C_2
REMARK    2  A    between atoms: C_2  and  C_3
REMARK    3  A    between atoms: C_6  and  N_9
REMARK    4  A    between atoms: C_19  and  C_20
REMARK    5  A    between atoms: C_20  and  C_22
REMARK    6  A    between atoms: C_20  and  N_23
REMARK    7  A    between atoms: N_23  and  C_24
REMARK    8  A    between atoms: C_24  and  C_25
REMARK    9  A    between atoms: C_25  and  N_26
REMARK   10  A    between atoms: N_26  and  C_27
REMARK   11  A    between atoms: N_26  and  C_28
REMARK   12  A    between atoms: N_31  and  C_32
REMARK   13  A    between atoms: C_32  and  C_33
REMARK   14  A    between atoms: C_32  and  C_34
REMARK   15  A    between atoms: C_32  and  C_35
REMARK                            x       y       z     vdW  Elec       q    Type
REMARK                         _______ _______ _______ _____ _____    ______ ____
ROOT
ATOM      1  N   UNL     1       2.679  -2.116   4.564  0.00  0.00    -0.263 N 
ATOM      2  C   UNL     1       3.975  -2.496   4.475  0.00  0.00    +0.266 A 
ATOM      3  O   UNL     1       4.566  -2.484   3.411  0.00  0.00    -0.267 OA
ATOM      4  C   UNL     1       4.642  -2.923   5.714  0.00  0.00    +0.065 A 
ATOM      5  C   UNL     1       5.974  -3.333   5.730  0.00  0.00    +0.015 A 
ATOM      6  C   UNL     1       6.550  -3.722   6.919  0.00  0.00    +0.001 A 
ATOM      7  C   UNL     1       5.814  -3.711   8.097  0.00  0.00    +0.002 A 
ATOM      8  C   UNL     1       4.497  -3.310   8.103  0.00  0.00    +0.028 A 
ATOM      9  C   UNL     1       3.891  -2.909   6.910  0.00  0.00    +0.078 A 
ATOM     10  N   UNL     1       2.597  -2.506   6.870  0.00  0.00    -0.231 NA
ATOM     11  C   UNL     1       2.035  -2.129   5.762  0.00  0.00    +0.138 A 
ENDROOT
BRANCH   1  15
ATOM     12  C   UNL     1       0.650  -0.879   1.141  0.00  0.00    -0.047 A 
ATOM     13  C   UNL     1       1.098  -2.183   1.244  0.00  0.00    +0.005 A 
ATOM     14  C   UNL     1       1.771  -2.596   2.377  0.00  0.00    +0.026 A 
ATOM     15  C   UNL     1       1.998  -1.700   3.413  0.00  0.00    +0.051 A 
ATOM     16  C   UNL     1       1.546  -0.391   3.307  0.00  0.00    +0.026 A 
ATOM     17  C   UNL     1       0.878   0.017   2.169  0.00  0.00    +0.005 A 
BRANCH  12  19
ATOM     18  C   UNL     1       0.920   0.096  -1.123  0.00  0.00    +0.009 C 
ATOM     19  C   UNL     1      -0.085  -0.432  -0.097  0.00  0.00    +0.032 C 
ENDBRANCH  12  19
ENDBRANCH   1  15
BRANCH  11  20
ATOM     20  C   UNL     1       0.594  -1.689   5.804  0.00  0.00    +0.141 C 
ATOM     21  C   UNL     1      -0.230  -2.550   4.845  0.00  0.00    +0.036 C 
BRANCH  20  22
ATOM     22  N   UNL     1       0.076  -1.843   7.166  0.00  0.00    -0.278 N 
ATOM     23  C   UNL     1       0.005  -3.066   7.726  0.00  0.00    +0.303 C 
ATOM     24  O   UNL     1      -0.516  -3.207   8.815  0.00  0.00    -0.253 OA
ATOM     25  N   UNL     1       0.511  -4.134   7.078  0.00  0.00    -0.294 N 
ATOM     26  H   UNL     1       0.992  -4.013   6.244  0.00  0.00    +0.151 HD
BRANCH  25  27
ATOM     27  C   UNL     1       0.337  -5.479   7.633  0.00  0.00    +0.028 C 
ATOM     28  C   UNL     1      -1.157  -5.792   7.751  0.00  0.00    +0.031 C 
ATOM     29  C   UNL     1       1.001  -6.502   6.710  0.00  0.00    +0.031 C 
ATOM     30  C   UNL     1       0.983  -5.546   9.018  0.00  0.00    +0.031 C 
ENDBRANCH  25  27
BRANCH  22  31
ATOM     31  C   UNL     1      -0.364  -0.666   7.919  0.00  0.00    +0.091 C 
BRANCH  31  32
ATOM     32  C   UNL     1      -1.851  -0.419   7.655  0.00  0.00    -0.060 C 
BRANCH  32  33
ATOM     33  N   UNL     1      -2.293   0.761   8.411  0.00  0.00    +0.377 N 
ATOM     34  C   UNL     1      -1.604   1.955   7.901  0.00  0.00    -0.097 C 
ATOM     35  C   UNL     1      -3.744   0.928   8.253  0.00  0.00    -0.097 C 
ATOM     36  H   UNL     1      -2.072   0.637   9.387  0.00  0.00    -0.083 HD
ENDBRANCH  32  33
ENDBRANCH  31  32
ENDBRANCH  22  31
ENDBRANCH  20  22
ENDBRANCH  11  20
TORSDOF 8
