REMARK  Name = ZINC09316910
REMARK  6 active torsions:
REMARK  status: ('A' for Active; 'I' for Inactive)
REMARK    1  A    between atoms: C_7  and  C_22
REMARK    2  A    between atoms: C_8  and  N_21
REMARK    3  A    between atoms: C_9  and  C_10
REMARK    4  A    between atoms: C_10  and  C_12
REMARK    5  A    between atoms: C_15  and  N_18
REMARK    6  A    between atoms: N_24  and  C_25
REMARK                            x       y       z     vdW  Elec       q    Type
REMARK                         _______ _______ _______ _____ _____    ______ ____
ROOT
ATOM      1  C   UNL     1       0.051   1.069  -0.011  0.00  0.00    +0.003 A 
ATOM      2  C   UNL     1      -1.163   1.766  -0.035  0.00  0.00    +0.018 A 
ATOM      3  C   UNL     1      -1.171   3.119  -0.047  0.00  0.00    +0.092 A 
ATOM      4  N   UNL     1      -0.006   3.823  -0.047  0.00  0.00    -0.311 N 
ATOM      5  C   UNL     1       1.191   3.168  -0.029  0.00  0.00    +0.061 A 
ATOM      6  C   UNL     1       1.224   1.768  -0.010  0.00  0.00    +0.027 A 
ATOM      7  C   UNL     1       2.226   4.133  -0.032  0.00  0.00    +0.083 A 
ATOM      8  C   UNL     1       1.611   5.400  -0.053  0.00  0.00    +0.067 A 
ATOM      9  C   UNL     1       0.233   5.190  -0.062  0.00  0.00    +0.116 A 
ENDROOT
BRANCH   7  10
ATOM     10  C   UNL     1       3.663   3.865  -0.017  0.00  0.00    +0.252 C 
ATOM     11  O   UNL     1       4.270   3.741  -1.065  0.00  0.00    -0.270 OA
ATOM     12  N   UNL     1       4.316   3.756   1.157  0.00  0.00    -0.280 N 
ATOM     13  H   UNL     1       3.847   3.920   1.990  0.00  0.00    +0.155 HD
BRANCH  12  14
ATOM     14  C   UNL     1       5.671   3.408   1.174  0.00  0.00    +0.054 A 
ATOM     15  C   UNL     1       6.515   3.846   0.163  0.00  0.00    +0.025 A 
ATOM     16  C   UNL     1       7.853   3.501   0.182  0.00  0.00    +0.003 A 
ATOM     17  C   UNL     1       8.352   2.719   1.207  0.00  0.00    +0.021 A 
ATOM     18  C   UNL     1       7.515   2.280   2.217  0.00  0.00    +0.061 A 
ATOM     19  C   UNL     1       6.176   2.627   2.207  0.00  0.00    +0.080 A 
ATOM     20 CL   UNL     1       5.126   2.082   3.478  0.00  0.00    -0.080 Cl
ATOM     21 CL   UNL     1       8.147   1.299   3.503  0.00  0.00    -0.082 Cl
ENDBRANCH  12  14
ENDBRANCH   7  10
BRANCH   8  22
ATOM     22  N   UNL     1       2.255   6.626  -0.063  0.00  0.00    -0.356 N 
ATOM     23  H   UNL     1       3.222   6.665  -0.128  0.00  0.00    +0.142 HD
ATOM     24  H   UNL     1       1.740   7.446  -0.004  0.00  0.00    +0.142 HD
ENDBRANCH   8  22
BRANCH   9  25
ATOM     25  C   UNL     1      -0.752   6.197  -0.081  0.00  0.00    +0.212 C 
ATOM     26  O   UNL     1      -1.252   6.582   0.962  0.00  0.00    -0.285 OA
BRANCH  25  27
ATOM     27  C   UNL     1      -1.181   6.788  -1.369  0.00  0.00    +0.024 A 
ATOM     28  C   UNL     1      -0.685   6.282  -2.571  0.00  0.00    +0.014 A 
ATOM     29  C   UNL     1      -1.092   6.834  -3.768  0.00  0.00    +0.033 A 
ATOM     30  C   UNL     1      -1.982   7.893  -3.778  0.00  0.00    +0.126 A 
ATOM     31  C   UNL     1      -2.473   8.403  -2.589  0.00  0.00    +0.033 A 
ATOM     32  C   UNL     1      -2.077   7.857  -1.385  0.00  0.00    +0.014 A 
BRANCH  30  33
ATOM     33  N   UNL     1      -2.411   8.484  -5.066  0.00  0.00    +0.056 N 
ATOM     34  O   UNL     1      -3.194   9.417  -5.077  0.00  0.00    -0.126 OA
ATOM     35  O   UNL     1      -1.980   8.037  -6.114  0.00  0.00    -0.126 OA
ENDBRANCH  30  33
ENDBRANCH  25  27
ENDBRANCH   9  25
TORSDOF 6
