REMARK  Name = ZINC65259901
REMARK  7 active torsions:
REMARK  status: ('A' for Active; 'I' for Inactive)
REMARK    1  A    between atoms: C_1  and  C_2
REMARK    2  A    between atoms: C_6  and  C_8
REMARK    3  A    between atoms: C_8  and  C_9
REMARK    4  A    between atoms: N_26  and  C_27
REMARK    5  A    between atoms: C_27  and  C_28
REMARK    6  A    between atoms: C_28  and  O_29
REMARK    7  A    between atoms: O_29  and  C_30
REMARK                            x       y       z     vdW  Elec       q    Type
REMARK                         _______ _______ _______ _____ _____    ______ ____
ROOT
ATOM      1  C   UNL     1       1.480  -3.080   2.915  0.00  0.00    +0.220 C 
ATOM      2  O   UNL     1       2.393  -2.670   2.230  0.00  0.00    -0.275 OA
ATOM      3  N   UNL     1       1.741  -3.745   4.058  0.00  0.00    -0.299 N 
ATOM      4  C   UNL     1       0.646  -4.253   4.895  0.00  0.00    +0.108 C 
ATOM      5  C   UNL     1       0.833  -3.733   6.324  0.00  0.00    +0.021 C 
ATOM      6  C   UNL     1       2.230  -4.115   6.822  0.00  0.00    +0.036 C 
ATOM      7  C   UNL     1       3.286  -3.476   5.924  0.00  0.00    +0.102 C 
ATOM      8  C   UNL     1       3.126  -3.982   4.487  0.00  0.00    +0.141 C 
ATOM      9  C   UNL     1       4.669  -3.826   6.434  0.00  0.00    +0.098 C 
ATOM     10  N   UNL     1       5.727  -3.138   5.868  0.00  0.00    -0.301 N 
ATOM     11  C   UNL     1       5.536  -1.778   5.572  0.00  0.00    +0.053 A 
ATOM     12  C   UNL     1       6.623  -0.983   5.242  0.00  0.00    +0.025 A 
ATOM     13  C   UNL     1       6.436   0.354   4.944  0.00  0.00    +0.002 A 
ATOM     14  C   UNL     1       5.167   0.901   4.973  0.00  0.00    +0.002 A 
ATOM     15  C   UNL     1       4.077   0.117   5.302  0.00  0.00    +0.025 A 
ATOM     16  C   UNL     1       4.257  -1.224   5.607  0.00  0.00    +0.049 A 
ATOM     17  N   UNL     1       3.152  -2.014   5.959  0.00  0.00    -0.329 N 
ATOM     18  N   UNL     1       4.850  -4.721   7.351  0.00  0.00    -0.372 N 
ATOM     19  H   UNL     1       2.314  -1.601   6.222  0.00  0.00    +0.147 HD
ATOM     20  H   UNL     1       4.089  -5.187   7.730  0.00  0.00    +0.161 HD
ATOM     21  H   UNL     1       6.571  -3.579   5.683  0.00  0.00    +0.153 HD
ENDROOT
BRANCH   1  22
ATOM     22  C   UNL     1       0.054  -2.845   2.489  0.00  0.00    +0.131 C 
BRANCH  22  28
ATOM     23  C   UNL     1      -0.018   1.503   0.010  0.00  0.00    +0.044 C 
ATOM     24  C   UNL     1       0.002  -0.004   0.002  0.00  0.00    -0.050 A 
ATOM     25  C   UNL     1       0.006  -0.689  -1.199  0.00  0.00    +0.003 A 
ATOM     26  C   UNL     1       0.025  -2.071  -1.207  0.00  0.00    +0.001 A 
ATOM     27  C   UNL     1       0.040  -2.768  -0.013  0.00  0.00    +0.004 A 
ATOM     28  C   UNL     1       0.037  -2.084   1.188  0.00  0.00    -0.038 A 
ATOM     29  C   UNL     1       0.023  -0.702   1.195  0.00  0.00    +0.007 A 
ENDBRANCH  22  28
ENDBRANCH   1  22
BRANCH  18  30
ATOM     30  C   UNL     1       6.205  -5.029   7.815  0.00  0.00    +0.141 C 
BRANCH  30  31
ATOM     31  C   UNL     1       6.140  -6.113   8.893  0.00  0.00    +0.180 C 
BRANCH  31  32
ATOM     32  O   UNL     1       5.652  -7.327   8.319  0.00  0.00    -0.381 OA
ATOM     33  C   UNL     1       5.552  -8.410   9.246  0.00  0.00    +0.194 C 
ENDBRANCH  31  32
ENDBRANCH  30  31
ENDBRANCH  18  30
TORSDOF 5
