REMARK  Name = ZINC15183651
REMARK  9 active torsions:
REMARK  status: ('A' for Active; 'I' for Inactive)
REMARK    1  A    between atoms: C_4  and  O_7
REMARK    2  A    between atoms: O_7  and  C_8
REMARK    3  A    between atoms: C_11  and  N_14
REMARK    4  A    between atoms: C_24  and  S_25
REMARK    5  A    between atoms: S_25  and  C_26
REMARK    6  A    between atoms: C_26  and  C_27
REMARK    7  A    between atoms: N_29  and  C_30
REMARK    8  A    between atoms: C_30  and  C_31
REMARK    9  A    between atoms: C_31  and  C_32
REMARK                            x       y       z     vdW  Elec       q    Type
REMARK                         _______ _______ _______ _____ _____    ______ ____
ROOT
ATOM      1  N   UNL     1       0.245  -2.780  -0.138  0.00  0.00    -0.255 N 
ATOM      2  C   UNL     1       1.318  -2.203  -0.729  0.00  0.00    +0.267 A 
ATOM      3  O   UNL     1       2.193  -2.876  -1.242  0.00  0.00    -0.267 OA
ATOM      4  C   UNL     1       1.386  -0.736  -0.727  0.00  0.00    +0.065 A 
ATOM      5  C   UNL     1       2.450  -0.048  -1.308  0.00  0.00    +0.015 A 
ATOM      6  C   UNL     1       2.466   1.319  -1.278  0.00  0.00    +0.001 A 
ATOM      7  C   UNL     1       1.433   2.027  -0.676  0.00  0.00    +0.002 A 
ATOM      8  C   UNL     1       0.378   1.378  -0.098  0.00  0.00    +0.028 A 
ATOM      9  C   UNL     1       0.334  -0.019  -0.112  0.00  0.00    +0.079 A 
ATOM     10  N   UNL     1      -0.687  -0.699   0.446  0.00  0.00    -0.223 NA
ATOM     11  C   UNL     1      -0.729  -2.009   0.433  0.00  0.00    +0.177 A 
ENDROOT
BRANCH   1  15
ATOM     12  C   UNL     1      -0.092  -6.936  -0.061  0.00  0.00    +0.129 A 
ATOM     13  C   UNL     1      -0.678  -6.212  -1.089  0.00  0.00    +0.048 A 
ATOM     14  C   UNL     1      -0.566  -4.836  -1.115  0.00  0.00    +0.030 A 
ATOM     15  C   UNL     1       0.132  -4.177  -0.112  0.00  0.00    +0.052 A 
ATOM     16  C   UNL     1       0.723  -4.903   0.913  0.00  0.00    +0.030 A 
ATOM     17  C   UNL     1       0.606  -6.278   0.942  0.00  0.00    +0.048 A 
BRANCH  12  18
ATOM     18  O   UNL     1      -0.202  -8.291  -0.036  0.00  0.00    -0.456 OA
BRANCH  18  22
ATOM     19  C   UNL     1       1.565 -10.320   3.092  0.00  0.00    +0.000 A 
ATOM     20  C   UNL     1       0.359  -9.670   3.284  0.00  0.00    +0.004 A 
ATOM     21  C   UNL     1      -0.234  -8.990   2.238  0.00  0.00    +0.046 A 
ATOM     22  C   UNL     1       0.380  -8.959   0.994  0.00  0.00    +0.128 A 
ATOM     23  C   UNL     1       1.587  -9.617   0.803  0.00  0.00    +0.046 A 
ATOM     24  C   UNL     1       2.179 -10.291   1.853  0.00  0.00    +0.004 A 
ENDBRANCH  18  22
ENDBRANCH  12  18
ENDBRANCH   1  15
BRANCH  11  25
ATOM     25  S   UNL     1      -2.103  -2.813   1.187  0.00  0.00    -0.078 S 
BRANCH  25  26
ATOM     26  C   UNL     1      -3.039  -1.372   1.755  0.00  0.00    +0.173 C 
BRANCH  26  27
ATOM     27  C   UNL     1      -4.294  -1.830   2.451  0.00  0.00    +0.223 C 
ATOM     28  O   UNL     1      -4.533  -3.014   2.553  0.00  0.00    -0.275 OA
ATOM     29  N   UNL     1      -5.152  -0.923   2.960  0.00  0.00    -0.314 N 
ATOM     30  H   UNL     1      -4.961   0.024   2.878  0.00  0.00    +0.149 HD
BRANCH  29  31
ATOM     31  C   UNL     1      -6.372  -1.369   3.636  0.00  0.00    +0.119 C 
BRANCH  31  32
ATOM     32  C   UNL     1      -7.163  -0.150   4.117  0.00  0.00    +0.137 C 
BRANCH  32  33
ATOM     33  C   UNL     1      -8.389  -0.597   4.796  0.00  0.00    +0.064 C 
ATOM     34  N   UNL     1      -9.336  -0.943   5.321  0.00  0.00    -0.197 NA
ENDBRANCH  32  33
ENDBRANCH  31  32
ENDBRANCH  29  31
ENDBRANCH  26  27
ENDBRANCH  25  26
ENDBRANCH  11  25
TORSDOF 9
