REMARK  Name = ZINC63573474
REMARK  6 active torsions:
REMARK  status: ('A' for Active; 'I' for Inactive)
REMARK    1  A    between atoms: C_1  and  C_2
REMARK    2  A    between atoms: C_5  and  C_8
REMARK    3  A    between atoms: C_15  and  O_20
REMARK    4  A    between atoms: O_20  and  C_21
REMARK    5  A    between atoms: N_27  and  C_28
REMARK    6  A    between atoms: C_31  and  C_35
REMARK                            x       y       z     vdW  Elec       q    Type
REMARK                         _______ _______ _______ _____ _____    ______ ____
ROOT
ATOM      1  C   UNL     1      -0.817  -4.623  -0.419  0.00  0.00    +0.134 C 
ATOM      2  C   UNL     1       0.692  -4.845  -0.572  0.00  0.00    +0.131 C 
ATOM      3  C   UNL     1       0.981  -6.247  -0.053  0.00  0.00    -0.035 C 
ATOM      4  C   UNL     1       1.587  -6.895  -1.040  0.00  0.00    +0.003 A 
ATOM      5  C   UNL     1       2.164  -8.246  -1.119  0.00  0.00    +0.055 A 
ATOM      6  C   UNL     1       2.712  -8.607  -2.312  0.00  0.00    +0.121 A 
ATOM      7  C   UNL     1       2.752  -7.774  -3.440  0.00  0.00    +0.047 A 
ATOM      8  C   UNL     1       2.255  -6.511  -3.476  0.00  0.00    +0.029 A 
ATOM      9  C   UNL     1       1.639  -6.006  -2.241  0.00  0.00    +0.043 A 
ATOM     10  N   UNL     1       1.104  -4.829  -1.977  0.00  0.00    -0.375 N 
ATOM     11  C   UNL     1       0.538  -6.713   1.313  0.00  0.00    +0.052 C 
ATOM     12  C   UNL     1      -0.961  -6.378   1.430  0.00  0.00    +0.114 C 
ATOM     13  N   UNL     1      -1.194  -5.012   0.949  0.00  0.00    -0.276 N 
ATOM     14  C   UNL     1      -1.757  -4.103   1.770  0.00  0.00    +0.307 C 
ATOM     15  O   UNL     1      -2.120  -3.029   1.330  0.00  0.00    -0.252 OA
ATOM     16  N   UNL     1      -1.919  -4.385   3.078  0.00  0.00    -0.269 N 
ATOM     17  H   UNL     1      -1.546  -5.199   3.448  0.00  0.00    +0.156 HD
ATOM     18  H   UNL     1       0.994  -4.087  -2.593  0.00  0.00    +0.160 HD
ENDROOT
BRANCH  16  19
ATOM     19  C   UNL     1      -2.626  -3.501   3.901  0.00  0.00    +0.038 A 
ATOM     20  C   UNL     1      -2.611  -2.138   3.635  0.00  0.00    +0.024 A 
ATOM     21  C   UNL     1      -3.309  -1.268   4.449  0.00  0.00    +0.008 A 
ATOM     22  C   UNL     1      -4.023  -1.752   5.530  0.00  0.00    -0.015 A 
ATOM     23  C   UNL     1      -4.041  -3.110   5.799  0.00  0.00    +0.128 A 
ATOM     24  C   UNL     1      -3.348  -3.986   4.983  0.00  0.00    +0.062 A 
ATOM     25  F   UNL     1      -4.739  -3.579   6.856  0.00  0.00    -0.205 F 
ATOM     26  C   UNL     1      -4.783  -0.799   6.416  0.00  0.00    +0.047 C 
ENDBRANCH  16  19
BRANCH   1  31
ATOM     27  C   UNL     1      -2.073   0.949  -1.290  0.00  0.00    +0.044 C 
ATOM     28  C   UNL     1      -1.746  -0.504  -1.063  0.00  0.00    -0.050 A 
ATOM     29  C   UNL     1      -0.694  -0.855  -0.237  0.00  0.00    +0.004 A 
ATOM     30  C   UNL     1      -0.393  -2.188  -0.029  0.00  0.00    +0.006 A 
ATOM     31  C   UNL     1      -1.145  -3.170  -0.645  0.00  0.00    -0.025 A 
ATOM     32  C   UNL     1      -2.198  -2.820  -1.470  0.00  0.00    +0.006 A 
ATOM     33  C   UNL     1      -2.501  -1.487  -1.675  0.00  0.00    +0.004 A 
ENDBRANCH   1  31
BRANCH   6  34
ATOM     34  O   UNL     1       3.254  -9.849  -2.416  0.00  0.00    -0.495 OA
ATOM     35  C   UNL     1       3.823 -10.205  -3.678  0.00  0.00    +0.277 C 
ENDBRANCH   6  34
TORSDOF 3
