REMARK  Name = ZINC39608996
REMARK  9 active torsions:
REMARK  status: ('A' for Active; 'I' for Inactive)
REMARK    1  A    between atoms: C_1  and  C_2
REMARK    2  A    between atoms: C_2  and  C_4
REMARK    3  A    between atoms: C_2  and  O_35
REMARK    4  A    between atoms: C_8  and  C_17
REMARK    5  A    between atoms: N_19  and  C_20
REMARK    6  A    between atoms: C_25  and  O_27
REMARK    7  A    between atoms: O_27  and  C_28
REMARK    8  A    between atoms: C_28  and  C_29
REMARK    9  A    between atoms: O_35  and  C_36
REMARK                            x       y       z     vdW  Elec       q    Type
REMARK                         _______ _______ _______ _____ _____    ______ ____
ROOT
ATOM      1  C   UNL     1      -1.175  -0.469  -0.153  0.00  0.00    +0.256 C 
ATOM      2  O   UNL     1      -1.577  -0.900  -1.214  0.00  0.00    -0.272 OA
ATOM      3  N   UNL     1      -1.970  -0.506   0.934  0.00  0.00    -0.297 N 
ATOM      4  C   UNL     1      -1.633  -0.103   2.320  0.00  0.00    +0.121 C 
ATOM      5  C   UNL     1      -2.905   0.602   2.842  0.00  0.00    +0.100 C 
ATOM      6  C   UNL     1      -4.048   0.036   1.982  0.00  0.00    -0.004 C 
ATOM      7  C   UNL     1      -3.382  -0.951   1.013  0.00  0.00    +0.115 C 
ATOM      8  C   UNL     1      -4.727   1.157   1.201  0.00  0.00    -0.010 C 
ATOM      9  C   UNL     1      -5.896   0.578   0.399  0.00  0.00    -0.082 C 
ATOM     10  N   UNL     1      -6.853  -0.057   1.313  0.00  0.00    +0.379 N 
ATOM     11  C   UNL     1      -6.218  -1.193   1.992  0.00  0.00    -0.082 C 
ATOM     12  C   UNL     1      -5.062  -0.690   2.862  0.00  0.00    -0.010 C 
ATOM     13  H   UNL     1      -7.157   0.616   2.000  0.00  0.00    -0.086 HD
ATOM     14  H   UNL     1      -7.651  -0.384   0.789  0.00  0.00    -0.086 HD
ENDROOT
BRANCH   5  15
ATOM     15  C   UNL     1      -3.127   0.274   4.296  0.00  0.00    +0.218 C 
ATOM     16  O   UNL     1      -2.776  -0.800   4.736  0.00  0.00    -0.275 OA
ATOM     17  N   UNL     1      -3.717   1.174   5.107  0.00  0.00    -0.310 N 
ATOM     18  H   UNL     1      -3.998   2.033   4.755  0.00  0.00    +0.149 HD
BRANCH  17  19
ATOM     19  C   UNL     1      -3.933   0.855   6.521  0.00  0.00    +0.102 C 
ATOM     20  C   UNL     1      -5.273   0.119   6.697  0.00  0.00    +0.025 C 
ATOM     21  C   UNL     1      -6.139   0.997   7.623  0.00  0.00    +0.004 C 
ATOM     22  C   UNL     1      -5.112   1.846   8.413  0.00  0.00    +0.033 C 
ATOM     23  C   UNL     1      -4.031   2.155   7.347  0.00  0.00    +0.139 C 
BRANCH  23  24
ATOM     24  O   UNL     1      -2.780   2.446   7.972  0.00  0.00    -0.370 OA
BRANCH  24  25
ATOM     25  C   UNL     1      -2.537   3.841   8.164  0.00  0.00    +0.195 C 
BRANCH  25  26
ATOM     26  C   UNL     1      -1.197   4.030   8.827  0.00  0.00    -0.022 A 
ATOM     27  C   UNL     1      -1.105   4.055  10.206  0.00  0.00    +0.006 A 
ATOM     28  C   UNL     1       0.124   4.229  10.815  0.00  0.00    +0.000 A 
ATOM     29  C   UNL     1       1.262   4.378  10.044  0.00  0.00    +0.000 A 
ATOM     30  C   UNL     1       1.170   4.353   8.665  0.00  0.00    +0.000 A 
ATOM     31  C   UNL     1      -0.058   4.175   8.056  0.00  0.00    +0.006 A 
ENDBRANCH  25  26
ENDBRANCH  24  25
ENDBRANCH  23  24
ENDBRANCH  17  19
ENDBRANCH   5  15
BRANCH   1  33
ATOM     32  C   UNL     1       0.125   1.613   0.192  0.00  0.00    +0.062 C 
ATOM     33  C   UNL     1       0.214   0.106  -0.052  0.00  0.00    +0.256 C 
BRANCH  33  34
ATOM     34  O   UNL     1       0.921  -0.139  -1.270  0.00  0.00    -0.480 OA
BRANCH  34  35
ATOM     35  C   UNL     1       2.278  -0.178  -1.198  0.00  0.00    +0.122 A 
ATOM     36  C   UNL     1       2.919   0.113  -0.003  0.00  0.00    +0.045 A 
ATOM     37  C   UNL     1       4.298   0.072   0.067  0.00  0.00    +0.004 A 
ATOM     38  C   UNL     1       5.039  -0.258  -1.053  0.00  0.00    +0.000 A 
ATOM     39  C   UNL     1       4.402  -0.548  -2.245  0.00  0.00    +0.004 A 
ATOM     40  C   UNL     1       3.023  -0.515  -2.319  0.00  0.00    +0.045 A 
ENDBRANCH  34  35
ENDBRANCH  33  34
ENDBRANCH   1  33
TORSDOF 8
