REMARK  Name = ZINC35991257
REMARK  14 active torsions:
REMARK  status: ('A' for Active; 'I' for Inactive)
REMARK    1  A    between atoms: C_1  and  C_2
REMARK    2  A    between atoms: C_2  and  N_3
REMARK    3  A    between atoms: C_4  and  C_25
REMARK    4  A    between atoms: C_5  and  C_20
REMARK    5  A    between atoms: C_6  and  C_11
REMARK    6  A    between atoms: C_14  and  C_17
REMARK    7  A    between atoms: C_17  and  C_18
REMARK    8  A    between atoms: C_17  and  C_19
REMARK    9  A    between atoms: C_20  and  O_22
REMARK   10  A    between atoms: O_22  and  C_23
REMARK   11  A    between atoms: C_23  and  C_24
REMARK   12  A    between atoms: C_25  and  N_26
REMARK   13  A    between atoms: N_26  and  C_27
REMARK   14  A    between atoms: N_26  and  C_28
REMARK                            x       y       z     vdW  Elec       q    Type
REMARK                         _______ _______ _______ _____ _____    ______ ____
ROOT
ATOM      1  N   UNL     1      -1.317  -0.516   0.093  0.00  0.00    -0.261 N 
ATOM      2  C   UNL     1      -1.726  -0.974   1.312  0.00  0.00    +0.010 C 
ATOM      3  C   UNL     1      -2.865  -1.687   1.443  0.00  0.00    +0.076 C 
ATOM      4  C   UNL     1      -3.674  -1.960   0.191  0.00  0.00    +0.143 C 
ATOM      5  N   UNL     1      -3.147  -1.422  -1.074  0.00  0.00    -0.288 N 
ATOM      6  C   UNL     1      -1.994  -0.724  -1.044  0.00  0.00    +0.307 C 
ATOM      7  O   UNL     1      -1.553  -0.272  -2.082  0.00  0.00    -0.252 OA
ATOM      8  H   UNL     1      -3.619  -1.564  -1.909  0.00  0.00    +0.151 HD
ENDROOT
BRANCH   4   9
ATOM      9  C   UNL     1      -5.055  -1.393   0.397  0.00  0.00    -0.022 A 
ATOM     10  C   UNL     1      -5.280  -0.040   0.222  0.00  0.00    +0.006 A 
ATOM     11  C   UNL     1      -6.546   0.480   0.410  0.00  0.00    +0.004 A 
ATOM     12  C   UNL     1      -7.588  -0.352   0.773  0.00  0.00    -0.045 A 
ATOM     13  C   UNL     1      -7.364  -1.705   0.948  0.00  0.00    +0.004 A 
ATOM     14  C   UNL     1      -6.098  -2.226   0.755  0.00  0.00    +0.006 A 
BRANCH  12  15
ATOM     15  C   UNL     1      -8.969   0.215   0.980  0.00  0.00    +0.013 C 
ATOM     16  C   UNL     1      -9.944  -0.449   0.006  0.00  0.00    +0.012 C 
ATOM     17  C   UNL     1      -9.421  -0.053   2.417  0.00  0.00    +0.012 C 
ENDBRANCH  12  15
ENDBRANCH   4   9
BRANCH   1  19
ATOM     18  C   UNL     1      -0.379   1.741   0.183  0.00  0.00    +0.025 C 
ATOM     19  C   UNL     1      -0.071   0.251   0.024  0.00  0.00    +0.111 C 
ENDBRANCH   1  19
BRANCH   3  20
ATOM     20  C   UNL     1      -3.290  -2.162   2.706  0.00  0.00    +0.339 C 
ATOM     21  O   UNL     1      -2.677  -1.852   3.710  0.00  0.00    -0.245 OA
BRANCH  20  22
ATOM     22  O   UNL     1      -4.374  -2.960   2.797  0.00  0.00    -0.462 OA
BRANCH  22  23
ATOM     23  C   UNL     1      -4.746  -3.404   4.104  0.00  0.00    +0.229 C 
ATOM     24  C   UNL     1      -5.988  -4.291   4.007  0.00  0.00    +0.048 C 
ENDBRANCH  22  23
ENDBRANCH  20  22
ENDBRANCH   3  20
BRANCH   2  25
ATOM     25  C   UNL     1      -0.892  -0.679   2.533  0.00  0.00    -0.026 C 
BRANCH  25  26
ATOM     26  N   UNL     1      -0.079  -1.857   2.866  0.00  0.00    +0.383 N 
ATOM     27  C   UNL     1       0.855  -2.135   1.767  0.00  0.00    -0.095 C 
ATOM     28  H   UNL     1      -0.683  -2.654   3.004  0.00  0.00    -0.081 HD
BRANCH  26  29
ATOM     29  C   UNL     1       0.677  -1.597   4.098  0.00  0.00    -0.068 C 
ATOM     30  C   UNL     1       1.523  -2.823   4.446  0.00  0.00    -0.015 C 
ATOM     31  C   UNL     1       2.312  -2.552   5.729  0.00  0.00    -0.002 C 
ATOM     32  C   UNL     1       1.339  -2.263   6.873  0.00  0.00    -0.000 C 
ATOM     33  C   UNL     1       0.492  -1.036   6.526  0.00  0.00    -0.002 C 
ATOM     34  C   UNL     1      -0.296  -1.307   5.243  0.00  0.00    -0.015 C 
ENDBRANCH  26  29
ENDBRANCH  25  26
ENDBRANCH   2  25
TORSDOF 9
