REMARK  Name = ZINC06195690
REMARK  10 active torsions:
REMARK  status: ('A' for Active; 'I' for Inactive)
REMARK    1  A    between atoms: C_1  and  C_2
REMARK    2  A    between atoms: C_5  and  C_41
REMARK    3  A    between atoms: C_6  and  N_8
REMARK    4  A    between atoms: C_13  and  C_15
REMARK    5  A    between atoms: C_13  and  C_29
REMARK    6  A    between atoms: C_13  and  N_75
REMARK    7  A    between atoms: C_19  and  C_28
REMARK    8  A    between atoms: C_21  and  C_27
REMARK    9  A    between atoms: N_33  and  C_34
REMARK   10  A    between atoms: C_34  and  C_35
REMARK                            x       y       z     vdW  Elec       q    Type
REMARK                         _______ _______ _______ _____ _____    ______ ____
ROOT
ATOM      1  C   UNL     1       1.926   6.393  -1.845  0.00  0.00    +0.039 C 
ENDROOT
BRANCH   1   2
ATOM      2  C   UNL     1       0.630   6.073  -2.545  0.00  0.00    +0.011 A 
ATOM      3  C   UNL     1       0.391   4.812  -2.981  0.00  0.00    +0.017 A 
ATOM      4  C   UNL     1      -0.880   4.533  -3.653  0.00  0.00    -0.001 A 
ATOM      5  C   UNL     1      -1.185   3.251  -4.121  0.00  0.00    +0.013 A 
ATOM      6  C   UNL     1      -2.377   3.025  -4.750  0.00  0.00    -0.050 A 
ATOM      7  C   UNL     1      -3.288   4.057  -4.928  0.00  0.00    +0.008 A 
ATOM      8  C   UNL     1      -3.009   5.328  -4.475  0.00  0.00    -0.026 A 
ATOM      9  C   UNL     1      -1.801   5.582  -3.832  0.00  0.00    +0.052 A 
ATOM     10  N   UNL     1      -1.495   6.844  -3.370  0.00  0.00    -0.322 N 
ATOM     11  H   UNL     1      -2.132   7.566  -3.494  0.00  0.00    +0.169 HD
ATOM     12  C   UNL     1      -0.328   7.089  -2.749  0.00  0.00    +0.251 A 
ATOM     13  O   UNL     1      -0.091   8.217  -2.353  0.00  0.00    -0.268 OA
ATOM     14  C   UNL     1      -4.007   6.439  -4.675  0.00  0.00    +0.046 C 
ATOM     15  C   UNL     1      -2.705   1.643  -5.253  0.00  0.00    +0.044 C 
ENDBRANCH   1   2
BRANCH   1  21
ATOM     16  N   UNL     1       4.830   8.445  -4.125  0.00  0.00    -0.333 N 
ATOM     17  C   UNL     1       4.619   8.870  -2.735  0.00  0.00    +0.086 C 
ATOM     18  C   UNL     1       3.931   7.745  -1.958  0.00  0.00    -0.058 C 
ATOM     19  C   UNL     1       2.864   6.992  -3.996  0.00  0.00    -0.058 C 
ATOM     20  C   UNL     1       3.552   8.117  -4.772  0.00  0.00    +0.086 C 
ATOM     21  N   UNL     1       2.638   7.441  -2.606  0.00  0.00    +0.391 N 
ATOM     22  H   UNL     1       2.063   8.292  -2.620  0.00  0.00    -0.080 HD
BRANCH  16  28
ATOM     23  C   UNL     1       5.089  13.036  -5.859  0.00  0.00    +0.044 C 
ATOM     24  C   UNL     1       5.671  11.654  -5.705  0.00  0.00    -0.049 A 
ATOM     25  C   UNL     1       6.892  11.351  -6.279  0.00  0.00    +0.004 A 
ATOM     26  C   UNL     1       7.430  10.085  -6.139  0.00  0.00    +0.005 A 
ATOM     27  C   UNL     1       6.751   9.120  -5.421  0.00  0.00    -0.029 A 
ATOM     28  C   UNL     1       5.522   9.419  -4.848  0.00  0.00    +0.033 A 
ATOM     29  C   UNL     1       4.984  10.693  -4.990  0.00  0.00    +0.026 A 
ATOM     30  C   UNL     1       7.340   7.742  -5.265  0.00  0.00    +0.045 C 
ENDBRANCH  16  28
ENDBRANCH   1  21
BRANCH   1  31
ATOM     31  C   UNL     1       2.767   5.146  -1.752  0.00  0.00    +0.143 A 
ATOM     32  N   UNL     1       3.388   4.545  -2.737  0.00  0.00    -0.115 NA
ATOM     33  N   UNL     1       3.996   3.516  -2.256  0.00  0.00    -0.023 NA
ATOM     34  N   UNL     1       3.784   3.448  -0.988  0.00  0.00    -0.044 NA
ATOM     35  N   UNL     1       3.025   4.432  -0.640  0.00  0.00    -0.226 N 
BRANCH  35  36
ATOM     36  C   UNL     1       2.542   4.722   0.712  0.00  0.00    +0.182 C 
BRANCH  36  37
ATOM     37  C   UNL     1       1.291   3.926   0.980  0.00  0.00    -0.026 A 
ATOM     38  C   UNL     1       1.384   2.622   1.431  0.00  0.00    +0.005 A 
ATOM     39  C   UNL     1       0.237   1.892   1.676  0.00  0.00    +0.000 A 
ATOM     40  C   UNL     1      -1.004   2.463   1.466  0.00  0.00    +0.000 A 
ATOM     41  C   UNL     1      -1.098   3.768   1.020  0.00  0.00    +0.000 A 
ATOM     42  C   UNL     1       0.050   4.499   0.775  0.00  0.00    +0.005 A 
ENDBRANCH  36  37
ENDBRANCH  35  36
ENDBRANCH   1  31
TORSDOF 6
