REMARK  Name = ZINC14919002
REMARK  6 active torsions:
REMARK  status: ('A' for Active; 'I' for Inactive)
REMARK    1  A    between atoms: C_1  and  C_2
REMARK    2  A    between atoms: C_2  and  C_4
REMARK    3  A    between atoms: C_2  and  N_55
REMARK    4  A    between atoms: N_6  and  C_7
REMARK    5  A    between atoms: N_17  and  S_20
REMARK    6  A    between atoms: S_20  and  C_23
REMARK                            x       y       z     vdW  Elec       q    Type
REMARK                         _______ _______ _______ _____ _____    ______ ____
ROOT
ATOM      1  C   UNL     1      -2.623  -2.795  -1.501  0.00  0.00    -0.060 C 
ATOM      2  C   UNL     1      -2.197  -4.266  -1.480  0.00  0.00    +0.091 C 
ATOM      3  N   UNL     1      -3.400  -5.098  -1.323  0.00  0.00    -0.180 NA
ATOM      4  C   UNL     1      -4.329  -4.779  -0.228  0.00  0.00    +0.091 C 
ATOM      5  C   UNL     1      -4.670  -3.287  -0.299  0.00  0.00    -0.060 C 
ATOM      6  N   UNL     1      -3.411  -2.511  -0.283  0.00  0.00    +0.389 N 
ATOM      7  H   UNL     1      -2.862  -2.784   0.540  0.00  0.00    -0.081 HD
ENDROOT
BRANCH   3   8
ATOM      8  S   UNL     1      -3.700  -6.361  -2.352  0.00  0.00    +0.061 S 
ATOM      9  O   UNL     1      -2.445  -6.756  -2.888  0.00  0.00    -0.153 OA
ATOM     10  O   UNL     1      -4.548  -7.262  -1.653  0.00  0.00    -0.153 OA
BRANCH   8  11
ATOM     11  C   UNL     1      -4.644  -5.724  -3.697  0.00  0.00    +0.106 A 
ATOM     12  C   UNL     1      -6.036  -5.727  -3.622  0.00  0.00    +0.029 A 
ATOM     13  C   UNL     1      -6.794  -5.237  -4.640  0.00  0.00    +0.010 A 
ATOM     14  C   UNL     1      -6.167  -4.731  -5.792  0.00  0.00    -0.018 A 
ATOM     15  C   UNL     1      -6.917  -4.223  -6.867  0.00  0.00    +0.008 A 
ATOM     16  C   UNL     1      -6.276  -3.740  -7.966  0.00  0.00    +0.001 A 
ATOM     17  C   UNL     1      -4.885  -3.741  -8.044  0.00  0.00    +0.001 A 
ATOM     18  C   UNL     1      -4.126  -4.225  -7.022  0.00  0.00    +0.008 A 
ATOM     19  C   UNL     1      -4.752  -4.732  -5.871  0.00  0.00    -0.016 A 
ATOM     20  C   UNL     1      -4.003  -5.240  -4.796  0.00  0.00    +0.037 A 
ENDBRANCH   8  11
ENDBRANCH   3   8
BRANCH   6  22
ATOM     21  C   UNL     1      -4.469  -0.602  -1.446  0.00  0.00    -0.004 C 
ATOM     22  C   UNL     1      -3.711  -1.066  -0.201  0.00  0.00    +0.017 C 
BRANCH  22  23
ATOM     23  C   UNL     1      -2.414  -0.305  -0.090  0.00  0.00    +0.203 C 
ATOM     24  O   UNL     1      -1.359  -0.902  -0.098  0.00  0.00    -0.277 OA
ATOM     25  N   UNL     1      -2.429   1.038   0.019  0.00  0.00    -0.285 N 
ATOM     26  H   UNL     1      -3.273   1.510   0.091  0.00  0.00    +0.155 HD
BRANCH  25  27
ATOM     27  C   UNL     1      -1.223   1.753   0.029  0.00  0.00    +0.069 A 
ATOM     28  C   UNL     1      -0.096   1.206   0.625  0.00  0.00    +0.029 A 
ATOM     29  C   UNL     1       1.093   1.909   0.629  0.00  0.00    +0.040 A 
ATOM     30  C   UNL     1       1.160   3.162   0.043  0.00  0.00    +0.126 A 
ATOM     31  C   UNL     1       0.036   3.713  -0.548  0.00  0.00    +0.078 A 
ATOM     32  C   UNL     1      -1.156   3.013  -0.555  0.00  0.00    +0.147 A 
ATOM     33  F   UNL     1      -2.253   3.550  -1.132  0.00  0.00    -0.203 F 
ATOM     34  F   UNL     1       2.324   3.848   0.048  0.00  0.00    -0.205 F 
ENDBRANCH  25  27
ENDBRANCH  22  23
ENDBRANCH   6  22
TORSDOF 5
