REMARK  Name = ZINC37283727
REMARK  2 active torsions:
REMARK  status: ('A' for Active; 'I' for Inactive)
REMARK    1  A    between atoms: C_3  and  N_8
REMARK    2  A    between atoms: N_8  and  C_9
REMARK                            x       y       z     vdW  Elec       q    Type
REMARK                         _______ _______ _______ _____ _____    ______ ____
ROOT
ATOM      1  C   UNL     1       3.657   3.461  -0.015  0.00  0.00    +0.108 C 
ATOM      2  C   UNL     1       4.988   3.920   0.586  0.00  0.00    +0.068 C 
ATOM      3  C   UNL     1       5.147   5.421   0.315  0.00  0.00    +0.231 C 
ATOM      4  O   UNL     1       5.249   5.615  -1.097  0.00  0.00    -0.490 OA
ATOM      5  C   UNL     1       4.324   5.013  -1.889  0.00  0.00    +0.144 A 
ATOM      6  C   UNL     1       3.535   3.974  -1.428  0.00  0.00    +0.017 A 
ATOM      7  C   UNL     1       2.608   3.386  -2.272  0.00  0.00    +0.029 A 
ATOM      8  C   UNL     1       2.467   3.833  -3.573  0.00  0.00    +0.043 A 
ATOM      9  C   UNL     1       3.253   4.873  -4.036  0.00  0.00    +0.043 A 
ATOM     10  C   UNL     1       4.177   5.462  -3.198  0.00  0.00    +0.084 A 
ATOM     11 CL   UNL     1       5.163   6.767  -3.780  0.00  0.00    -0.080 Cl
ATOM     12 CL   UNL     1       1.303   3.090  -4.625  0.00  0.00    -0.083 Cl
ENDROOT
BRANCH   1  13
ATOM     13  N   UNL     1       3.604   1.997  -0.022  0.00  0.00    -0.334 N 
ATOM     14  H   UNL     1       4.426   1.482  -0.033  0.00  0.00    +0.147 HD
BRANCH  13  17
ATOM     15  C   UNL     1      -0.017   1.377   0.010  0.00  0.00    +0.022 A 
ATOM     16  C   UNL     1       1.183   2.071   0.002  0.00  0.00    +0.027 A 
ATOM     17  C   UNL     1       2.369   1.343  -0.013  0.00  0.00    +0.065 A 
ATOM     18  C   UNL     1       2.306  -0.047  -0.020  0.00  0.00    +0.150 A 
ATOM     19  N   UNL     1       1.143  -0.667  -0.012  0.00  0.00    -0.242 NA
ATOM     20  C   UNL     1       0.002  -0.004   0.002  0.00  0.00    +0.112 A 
ATOM     21 CL   UNL     1       3.774  -0.973  -0.040  0.00  0.00    -0.060 Cl
ENDBRANCH  13  17
ENDBRANCH   1  13
TORSDOF 2
