REMARK  Name = ZINC11615862
REMARK  6 active torsions:
REMARK  status: ('A' for Active; 'I' for Inactive)
REMARK    1  A    between atoms: C_1  and  S_2
REMARK    2  A    between atoms: S_2  and  N_5
REMARK    3  A    between atoms: N_5  and  C_6
REMARK    4  A    between atoms: C_9  and  O_23
REMARK    5  A    between atoms: C_10  and  C_12
REMARK    6  A    between atoms: C_21  and  O_22
REMARK                            x       y       z     vdW  Elec       q    Type
REMARK                         _______ _______ _______ _____ _____    ______ ____
ROOT
ATOM      1  C   UNL     1      -0.064   2.303   2.651  0.00  0.00    +0.048 A 
ATOM      2  C   UNL     1       0.660   1.157   2.962  0.00  0.00    +0.028 A 
ATOM      3  C   UNL     1       1.335   1.066   4.165  0.00  0.00    +0.048 A 
ATOM      4  C   UNL     1       1.285   2.111   5.072  0.00  0.00    +0.125 A 
ATOM      5  C   UNL     1       0.554   3.264   4.768  0.00  0.00    +0.029 A 
ATOM      6  C   UNL     1      -0.121   3.355   3.551  0.00  0.00    +0.036 A 
ENDROOT
BRANCH   5   7
ATOM      7  C   UNL     1       0.498   4.385   5.734  0.00  0.00    +0.035 A 
ATOM      8  C   UNL     1      -0.521   4.434   6.714  0.00  0.00    -0.007 A 
ATOM      9  C   UNL     1      -1.497   3.430   6.798  0.00  0.00    +0.009 A 
ATOM     10  C   UNL     1      -2.465   3.509   7.754  0.00  0.00    +0.001 A 
ATOM     11  C   UNL     1      -2.498   4.572   8.653  0.00  0.00    +0.001 A 
ATOM     12  C   UNL     1      -1.566   5.563   8.601  0.00  0.00    +0.008 A 
ATOM     13  C   UNL     1      -0.554   5.516   7.627  0.00  0.00    -0.017 A 
ATOM     14  C   UNL     1       0.424   6.523   7.546  0.00  0.00    +0.012 A 
ATOM     15  C   UNL     1       1.396   6.457   6.596  0.00  0.00    +0.046 A 
ATOM     16  C   UNL     1       1.448   5.397   5.691  0.00  0.00    +0.125 A 
BRANCH  16  17
ATOM     17  O   UNL     1       2.434   5.356   4.757  0.00  0.00    -0.506 OA
ATOM     18  H   UNL     1       2.209   5.800   3.928  0.00  0.00    +0.292 HD
ENDBRANCH  16  17
ENDBRANCH   5   7
BRANCH   1  19
ATOM     19  N   UNL     1      -0.742   2.391   1.430  0.00  0.00    -0.221 N 
ATOM     20  H   UNL     1      -1.706   2.289   1.401  0.00  0.00    +0.173 HD
BRANCH  19  22
ATOM     21  C   UNL     1       0.837   4.312   0.250  0.00  0.00    +0.218 C 
ATOM     22  S   UNL     1       0.103   2.668   0.033  0.00  0.00    +0.040 S 
ATOM     23  O   UNL     1      -0.885   2.704  -0.988  0.00  0.00    -0.155 OA
ATOM     24  O   UNL     1       1.120   1.676   0.021  0.00  0.00    -0.155 OA
ENDBRANCH  19  22
ENDBRANCH   1  19
BRANCH   4  25
ATOM     25  O   UNL     1       1.946   2.017   6.256  0.00  0.00    -0.506 OA
ATOM     26  H   UNL     1       1.420   1.633   6.971  0.00  0.00    +0.292 HD
ENDBRANCH   4  25
TORSDOF 5
