REMARK  Name = ZINC35744120
REMARK  17 active torsions:
REMARK  status: ('A' for Active; 'I' for Inactive)
REMARK    1  A    between atoms: C_1  and  C_2
REMARK    2  A    between atoms: C_2  and  C_3
REMARK    3  A    between atoms: C_2  and  C_4
REMARK    4  A    between atoms: C_4  and  O_5
REMARK    5  A    between atoms: O_5  and  C_6
REMARK    6  A    between atoms: C_6  and  C_7
REMARK    7  A    between atoms: C_7  and  C_9
REMARK    8  A    between atoms: C_7  and  O_38
REMARK    9  A    between atoms: C_9  and  N_10
REMARK   10  A    between atoms: N_10  and  C_11
REMARK   11  A    between atoms: N_10  and  C_15
REMARK   12  A    between atoms: C_11  and  C_12
REMARK   13  A    between atoms: C_12  and  O_13
REMARK   14  A    between atoms: O_13  and  C_14
REMARK   15  A    between atoms: C_15  and  C_16
REMARK   16  A    between atoms: N_28  and  C_31
REMARK   17  A    between atoms: C_31  and  C_32
REMARK                            x       y       z     vdW  Elec       q    Type
REMARK                         _______ _______ _______ _____ _____    ______ ____
ROOT
ATOM      1  C   UNL     1      -4.369  -8.478  -0.965  0.00  0.00    +0.094 A 
ATOM      2  N   UNL     1      -5.321  -9.426  -1.159  0.00  0.00    -0.312 N 
ATOM      3  H   UNL     1      -6.253  -9.200  -1.014  0.00  0.00    +0.170 HD
ATOM      4  C   UNL     1      -4.999 -10.674  -1.547  0.00  0.00    +0.260 A 
ATOM      5  O   UNL     1      -5.866 -11.513  -1.717  0.00  0.00    -0.267 OA
ATOM      6  C   UNL     1      -3.619 -11.000  -1.757  0.00  0.00    +0.075 A 
ATOM      7  C   UNL     1      -3.038 -12.273  -2.174  0.00  0.00    -0.020 A 
ATOM      8  C   UNL     1      -1.693 -12.323  -2.301  0.00  0.00    +0.010 A 
ATOM      9  S   UNL     1      -1.133 -10.697  -1.881  0.00  0.00    -0.072 S 
ATOM     10  C   UNL     1      -2.708  -9.955  -1.533  0.00  0.00    +0.116 A 
ATOM     11  N   UNL     1      -3.103  -8.743  -1.154  0.00  0.00    -0.229 NA
ATOM     12  C   UNL     1      -0.879 -13.511  -2.709  0.00  0.00    +0.127 C 
ATOM     13  N   UNL     1      -1.730 -14.711  -2.607  0.00  0.00    -0.293 NA
ATOM     14  C   UNL     1      -3.019 -14.490  -3.277  0.00  0.00    +0.090 C 
ATOM     15  C   UNL     1      -3.875 -13.516  -2.463  0.00  0.00    +0.052 C 
ENDROOT
BRANCH   1  16
ATOM     16  C   UNL     1      -4.779  -7.095  -0.530  0.00  0.00    -0.003 C 
BRANCH  16  17
ATOM     17  N   UNL     1      -3.604  -6.213  -0.531  0.00  0.00    +0.388 N 
ATOM     18  H   UNL     1      -2.871  -6.628   0.024  0.00  0.00    -0.081 HD
BRANCH  17  19
ATOM     19  C   UNL     1      -3.130  -6.030  -1.910  0.00  0.00    -0.044 C 
BRANCH  19  20
ATOM     20  C   UNL     1      -1.804  -5.268  -1.897  0.00  0.00    +0.124 C 
BRANCH  20  21
ATOM     21  O   UNL     1      -2.030  -3.924  -1.466  0.00  0.00    -0.391 OA
ATOM     22  H   UNL     1      -2.639  -3.428  -2.029  0.00  0.00    +0.210 HD
ENDBRANCH  20  21
BRANCH  20  23
ATOM     23  C   UNL     1      -1.208  -5.257  -3.306  0.00  0.00    +0.189 C 
BRANCH  23  24
ATOM     24  O   UNL     1       0.085  -4.648  -3.272  0.00  0.00    -0.377 OA
BRANCH  24  25
ATOM     25  C   UNL     1       0.733  -4.588  -4.544  0.00  0.00    +0.163 C 
BRANCH  25  27
ATOM     26  C   UNL     1       2.845  -3.967  -5.724  0.00  0.00    +0.009 C 
ATOM     27  C   UNL     1       2.100  -3.920  -4.388  0.00  0.00    +0.009 C 
ATOM     28  C   UNL     1       1.911  -2.463  -3.961  0.00  0.00    +0.009 C 
ENDBRANCH  25  27
ENDBRANCH  24  25
ENDBRANCH  23  24
ENDBRANCH  20  23
ENDBRANCH  19  20
ENDBRANCH  17  19
BRANCH  17  29
ATOM     29  C   UNL     1      -3.970  -4.909   0.038  0.00  0.00    -0.050 C 
BRANCH  29  30
ATOM     30  C   UNL     1      -4.396  -5.091   1.496  0.00  0.00    +0.141 C 
BRANCH  30  31
ATOM     31  O   UNL     1      -3.280  -5.541   2.266  0.00  0.00    -0.385 OA
ATOM     32  C   UNL     1      -3.598  -5.851   3.624  0.00  0.00    +0.193 C 
ENDBRANCH  30  31
ENDBRANCH  29  30
ENDBRANCH  17  29
ENDBRANCH  16  17
ENDBRANCH   1  16
BRANCH  13  33
ATOM     33  C   UNL     1      -1.047 -15.890  -3.156  0.00  0.00    +0.120 C 
BRANCH  33  34
ATOM     34  C   UNL     1       0.147 -16.223  -2.299  0.00  0.00    -0.033 A 
ATOM     35  C   UNL     1       1.378 -15.660  -2.579  0.00  0.00    +0.005 A 
ATOM     36  C   UNL     1       2.473 -15.965  -1.792  0.00  0.00    +0.000 A 
ATOM     37  C   UNL     1       2.337 -16.834  -0.726  0.00  0.00    +0.000 A 
ATOM     38  C   UNL     1       1.106 -17.397  -0.445  0.00  0.00    +0.000 A 
ATOM     39  C   UNL     1       0.010 -17.088  -1.229  0.00  0.00    +0.005 A 
ENDBRANCH  33  34
ENDBRANCH  13  33
TORSDOF 14
