REMARK  Name = ZINC13065075
REMARK  14 active torsions:
REMARK  status: ('A' for Active; 'I' for Inactive)
REMARK    1  A    between atoms: C_1  and  C_2
REMARK    2  A    between atoms: C_2  and  C_3
REMARK    3  A    between atoms: C_3  and  C_5
REMARK    4  A    between atoms: C_3  and  N_73
REMARK    5  A    between atoms: N_9  and  C_10
REMARK    6  A    between atoms: C_10  and  C_11
REMARK    7  A    between atoms: C_14  and  O_17
REMARK    8  A    between atoms: O_17  and  C_18
REMARK    9  A    between atoms: C_19  and  C_20
REMARK   10  A    between atoms: C_19  and  N_73
REMARK   11  A    between atoms: C_26  and  C_27
REMARK   12  A    between atoms: C_26  and  N_73
REMARK   13  A    between atoms: C_32  and  C_40
REMARK   14  A    between atoms: C_33  and  C_39
REMARK                            x       y       z     vdW  Elec       q    Type
REMARK                         _______ _______ _______ _____ _____    ______ ____
ROOT
ATOM      1  N   UNL     1       1.054   1.621  -0.051  0.00  0.00    +0.392 N 
ATOM      2  H   UNL     1       1.304   1.435   0.928  0.00  0.00    -0.080 HD
ENDROOT
BRANCH   1   3
ATOM      3  C   UNL     1      -0.242   0.976  -0.347  0.00  0.00    +0.003 C 
BRANCH   3   4
ATOM      4  C   UNL     1      -0.306  -0.336   0.392  0.00  0.00    +0.138 A 
ATOM      5  N   UNL     1       0.636  -1.244   0.458  0.00  0.00    -0.115 NA
ATOM      6  N   UNL     1       0.202  -2.217   1.183  0.00  0.00    -0.023 NA
ATOM      7  N   UNL     1      -0.996  -1.955   1.576  0.00  0.00    -0.044 NA
ATOM      8  N   UNL     1      -1.345  -0.804   1.108  0.00  0.00    -0.226 N 
BRANCH   8   9
ATOM      9  C   UNL     1      -2.630  -0.133   1.318  0.00  0.00    +0.182 C 
BRANCH   9  10
ATOM     10  C   UNL     1      -3.590  -0.533   0.227  0.00  0.00    -0.026 A 
ATOM     11  C   UNL     1      -3.660   0.210  -0.937  0.00  0.00    +0.009 A 
ATOM     12  C   UNL     1      -4.534  -0.158  -1.942  0.00  0.00    +0.046 A 
ATOM     13  C   UNL     1      -5.350  -1.267  -1.777  0.00  0.00    +0.120 A 
ATOM     14  C   UNL     1      -5.282  -2.008  -0.606  0.00  0.00    +0.046 A 
ATOM     15  C   UNL     1      -4.402  -1.640   0.393  0.00  0.00    +0.009 A 
BRANCH  13  16
ATOM     16  O   UNL     1      -6.215  -1.628  -2.761  0.00  0.00    -0.495 OA
ATOM     17  C   UNL     1      -6.231  -0.819  -3.939  0.00  0.00    +0.277 C 
ENDBRANCH  13  16
ENDBRANCH   9  10
ENDBRANCH   8   9
ENDBRANCH   3   4
BRANCH   3  19
ATOM     18  C   UNL     1      -0.462   2.059  -2.588  0.00  0.00    +0.002 C 
ATOM     19  C   UNL     1      -0.381   0.722  -1.850  0.00  0.00    -0.011 C 
ENDBRANCH   3  19
ENDBRANCH   1   3
BRANCH   1  20
ATOM     20  C   UNL     1       2.107   1.068  -0.928  0.00  0.00    -0.042 C 
BRANCH  20  21
ATOM     21  C   UNL     1       3.454   1.447  -0.367  0.00  0.00    -0.064 A 
ATOM     22  C   UNL     1       4.054   2.631  -0.750  0.00  0.00    +0.002 A 
ATOM     23  C   UNL     1       5.286   2.981  -0.231  0.00  0.00    +0.000 A 
ATOM     24  C   UNL     1       5.924   2.141   0.662  0.00  0.00    +0.000 A 
ATOM     25  C   UNL     1       5.326   0.954   1.041  0.00  0.00    +0.000 A 
ATOM     26  C   UNL     1       4.091   0.607   0.527  0.00  0.00    +0.002 A 
ENDBRANCH  20  21
ENDBRANCH   1  20
BRANCH   1  27
ATOM     27  C   UNL     1       0.948   3.082  -0.249  0.00  0.00    -0.036 C 
BRANCH  27  28
ATOM     28  C   UNL     1       0.298   3.688   0.969  0.00  0.00    +0.001 A 
ATOM     29  C   UNL     1       1.066   4.131   1.994  0.00  0.00    +0.017 A 
ATOM     30  C   UNL     1       0.404   4.718   3.161  0.00  0.00    -0.001 A 
ATOM     31  C   UNL     1       1.143   5.198   4.247  0.00  0.00    +0.010 A 
ATOM     32  C   UNL     1       0.495   5.736   5.323  0.00  0.00    +0.004 A 
ATOM     33  C   UNL     1      -0.891   5.810   5.347  0.00  0.00    -0.046 A 
ATOM     34  C   UNL     1      -1.639   5.344   4.288  0.00  0.00    -0.024 A 
ATOM     35  C   UNL     1      -1.001   4.792   3.182  0.00  0.00    +0.052 A 
ATOM     36  N   UNL     1      -1.725   4.319   2.108  0.00  0.00    -0.322 N 
ATOM     37  H   UNL     1      -2.694   4.371   2.125  0.00  0.00    +0.169 HD
ATOM     38  C   UNL     1      -1.108   3.786   1.039  0.00  0.00    +0.251 A 
ATOM     39  O   UNL     1      -1.780   3.377   0.108  0.00  0.00    -0.268 OA
ATOM     40  C   UNL     1      -3.143   5.432   4.328  0.00  0.00    +0.046 C 
ATOM     41  C   UNL     1      -1.584   6.407   6.545  0.00  0.00    +0.044 C 
ENDBRANCH  27  28
ENDBRANCH   1  27
TORSDOF 10
