REMARK  Name = ZINC25147241
REMARK  7 active torsions:
REMARK  status: ('A' for Active; 'I' for Inactive)
REMARK    1  A    between atoms: C_4  and  C_7
REMARK    2  A    between atoms: C_7  and  C_9
REMARK    3  A    between atoms: C_7  and  N_19
REMARK    4  A    between atoms: C_12  and  O_15
REMARK    5  A    between atoms: O_15  and  C_16
REMARK    6  A    between atoms: N_19  and  S_20
REMARK    7  A    between atoms: S_20  and  C_23
REMARK                            x       y       z     vdW  Elec       q    Type
REMARK                         _______ _______ _______ _____ _____    ______ ____
ROOT
ATOM      1  N   UNL     1      -0.897   1.885  -1.312  0.00  0.00    -0.178 NA
ATOM      2  H   UNL     1      -1.442   1.126  -1.892  0.00  0.00    +0.149 HD
ENDROOT
BRANCH   1   3
ATOM      3  S   UNL     1      -0.017   1.417   0.010  0.00  0.00    +0.059 S 
ATOM      4  O   UNL     1       0.002  -0.004   0.002  0.00  0.00    -0.153 OA
ATOM      5  O   UNL     1       1.172   2.195   0.003  0.00  0.00    -0.153 OA
BRANCH   3   6
ATOM      6  C   UNL     1      -0.927   1.900   1.439  0.00  0.00    +0.107 A 
ATOM      7  C   UNL     1      -0.715   3.147   2.003  0.00  0.00    +0.030 A 
ATOM      8  C   UNL     1      -1.426   3.536   3.119  0.00  0.00    +0.030 A 
ATOM      9  C   UNL     1      -2.353   2.670   3.690  0.00  0.00    +0.066 A 
ATOM     10  C   UNL     1      -2.563   1.411   3.125  0.00  0.00    +0.068 A 
ATOM     11  C   UNL     1      -1.843   1.033   1.997  0.00  0.00    +0.056 A 
ATOM     12  N   UNL     1      -3.486   0.530   3.682  0.00  0.00    -0.316 N 
ATOM     13  H   UNL     1      -3.643  -0.460   3.229  0.00  0.00    +0.169 HD
ATOM     14  C   UNL     1      -4.189   0.889   4.775  0.00  0.00    +0.314 A 
ATOM     15  O   UNL     1      -4.995   0.124   5.265  0.00  0.00    -0.262 OA
ATOM     16  C   UNL     1      -3.965   2.234   5.378  0.00  0.00    +0.314 A 
ATOM     17  O   UNL     1      -4.587   2.576   6.364  0.00  0.00    -0.262 OA
ATOM     18  N   UNL     1      -3.064   3.067   4.819  0.00  0.00    -0.316 N 
ATOM     19  H   UNL     1      -2.891   4.062   5.256  0.00  0.00    +0.169 HD
ENDBRANCH   3   6
ENDBRANCH   1   3
BRANCH   1  20
ATOM     20  C   UNL     1      -1.125   3.309  -1.574  0.00  0.00    +0.136 C 
BRANCH  20  24
ATOM     21  C   UNL     1      -4.889   4.476   0.074  0.00  0.00    +0.000 A 
ATOM     22  C   UNL     1      -3.800   5.321   0.173  0.00  0.00    +0.000 A 
ATOM     23  C   UNL     1      -2.581   4.943  -0.360  0.00  0.00    +0.005 A 
ATOM     24  C   UNL     1      -2.453   3.721  -0.993  0.00  0.00    -0.025 A 
ATOM     25  C   UNL     1      -3.544   2.878  -1.096  0.00  0.00    +0.005 A 
ATOM     26  C   UNL     1      -4.761   3.254  -0.559  0.00  0.00    +0.000 A 
ENDBRANCH  20  24
BRANCH  20  27
ATOM     27  C   UNL     1      -1.130   3.552  -3.061  0.00  0.00    -0.024 A 
ATOM     28  C   UNL     1      -1.738   2.642  -3.907  0.00  0.00    +0.009 A 
ATOM     29  C   UNL     1      -1.750   2.865  -5.270  0.00  0.00    +0.046 A 
ATOM     30  C   UNL     1      -1.141   3.997  -5.791  0.00  0.00    +0.127 A 
ATOM     31  C   UNL     1      -0.526   4.905  -4.941  0.00  0.00    +0.046 A 
ATOM     32  C   UNL     1      -0.523   4.681  -3.578  0.00  0.00    +0.009 A 
BRANCH  30  33
ATOM     33  O   UNL     1      -1.145   4.216  -7.133  0.00  0.00    -0.434 OA
BRANCH  33  34
ATOM     34  C   UNL     1      -1.796   3.238  -7.947  0.00  0.00    +0.541 C 
ATOM     35  F   UNL     1      -1.176   1.996  -7.771  0.00  0.00    -0.166 F 
ATOM     36  F   UNL     1      -3.142   3.144  -7.577  0.00  0.00    -0.166 F 
ENDBRANCH  33  34
ENDBRANCH  30  33
ENDBRANCH  20  27
ENDBRANCH   1  20
TORSDOF 7
