REMARK  Name = ZINC39487247
REMARK  6 active torsions:
REMARK  status: ('A' for Active; 'I' for Inactive)
REMARK    1  A    between atoms: C_1  and  C_2
REMARK    2  A    between atoms: C_2  and  C_3
REMARK    3  A    between atoms: C_3  and  C_24
REMARK    4  A    between atoms: N_8  and  C_9
REMARK    5  A    between atoms: C_9  and  C_10
REMARK    6  A    between atoms: C_10  and  C_17
REMARK                            x       y       z     vdW  Elec       q    Type
REMARK                         _______ _______ _______ _____ _____    ______ ____
ROOT
ATOM      1  C   UNL     1       0.427  -3.277  -0.624  0.00  0.00    -0.008 C 
ATOM      2  C   UNL     1       1.143  -1.996  -0.188  0.00  0.00    +0.025 C 
ATOM      3  C   UNL     1       0.400  -1.381   1.000  0.00  0.00    +0.096 C 
ATOM      4  N   UNL     1       0.365  -2.345   2.108  0.00  0.00    -0.247 NA
ATOM      5  C   UNL     1      -0.359  -3.564   1.728  0.00  0.00    +0.096 C 
ATOM      6  C   UNL     1       0.361  -4.244   0.561  0.00  0.00    +0.025 C 
ATOM      7  I   UNL     1      -0.449  -1.501   3.790  0.00  0.00    +0.021 I 
ENDROOT
BRANCH   1   8
ATOM      8  C   UNL     1       1.198  -3.929  -1.774  0.00  0.00    -0.003 C 
ATOM      9  C   UNL     1       0.618  -5.317  -2.054  0.00  0.00    +0.004 C 
ATOM     10  C   UNL     1       1.389  -5.969  -3.204  0.00  0.00    +0.000 C 
ATOM     11  C   UNL     1       2.864  -6.101  -2.818  0.00  0.00    +0.000 C 
ATOM     12  C   UNL     1       3.444  -4.713  -2.538  0.00  0.00    +0.000 C 
ATOM     13  C   UNL     1       2.673  -4.061  -1.388  0.00  0.00    +0.004 C 
ENDBRANCH   1   8
BRANCH   1  14
ATOM     14  C   UNL     1      -0.992  -2.938  -1.087  0.00  0.00    +0.117 C 
BRANCH  14  20
ATOM     15  C   UNL     1      -1.187  -2.159  -3.569  0.00  0.00    +0.054 C 
ATOM     16  C   UNL     1      -0.992  -0.774  -4.214  0.00  0.00    +0.172 C 
ATOM     17  N   UNL     1      -0.647   0.097  -3.080  0.00  0.00    -0.120 N 
ATOM     18  C   UNL     1      -0.636  -0.629  -1.955  0.00  0.00    +0.332 C 
ATOM     19  O   UNL     1      -0.380  -0.157  -0.864  0.00  0.00    -0.250 OA
ATOM     20  N   UNL     1      -0.932  -1.922  -2.140  0.00  0.00    -0.276 N 
ATOM     21  F   UNL     1      -0.394   1.370  -3.158  0.00  0.00    -0.105 F 
ATOM     22  C   UNL     1      -2.618  -2.658  -3.783  0.00  0.00    +0.033 C 
BRANCH  15  24
ATOM     23  C   UNL     1      -0.534  -3.474  -5.590  0.00  0.00    +0.006 C 
ATOM     24  C   UNL     1      -0.180  -3.162  -4.135  0.00  0.00    +0.024 C 
ENDBRANCH  15  24
ENDBRANCH  14  20
ENDBRANCH   1  14
TORSDOF 4
