REMARK  Name = ZINC53629565
REMARK  9 active torsions:
REMARK  status: ('A' for Active; 'I' for Inactive)
REMARK    1  A    between atoms: C_1  and  C_2
REMARK    2  A    between atoms: C_2  and  C_3
REMARK    3  A    between atoms: C_2  and  C_4
REMARK    4  A    between atoms: C_7  and  C_10
REMARK    5  A    between atoms: C_14  and  C_24
REMARK    6  A    between atoms: C_18  and  C_20
REMARK    7  A    between atoms: N_26  and  C_27
REMARK    8  A    between atoms: C_27  and  C_28
REMARK    9  A    between atoms: C_28  and  C_29
REMARK                            x       y       z     vdW  Elec       q    Type
REMARK                         _______ _______ _______ _____ _____    ______ ____
ROOT
ATOM      1  C   UNL     1      -5.399  -1.997   0.043  0.00  0.00    +0.050 C 
ATOM      2  N   UNL     1      -5.823  -2.762  -0.940  0.00  0.00    -0.342 N 
ATOM      3  C   UNL     1      -7.091  -3.244  -0.952  0.00  0.00    +0.116 C 
ATOM      4  C   UNL     1      -7.694  -4.033  -1.865  0.00  0.00    +0.045 C 
ATOM      5  C   UNL     1      -9.107  -4.262  -1.379  0.00  0.00    +0.185 C 
ATOM      6  N   UNL     1      -9.186  -3.511  -0.114  0.00  0.00    -0.218 NA
ATOM      7  N   UNL     1      -7.962  -2.932   0.082  0.00  0.00    -0.215 N 
ATOM      8  C   UNL     1      -7.530  -2.132   1.115  0.00  0.00    +0.133 C 
ATOM      9  C   UNL     1      -6.265  -1.667   1.114  0.00  0.00    +0.055 C 
ATOM     10  H   UNL     1      -9.425  -4.120   0.654  0.00  0.00    +0.146 HD
ATOM     11  H   UNL     1      -5.220  -2.985  -1.667  0.00  0.00    +0.167 HD
ENDROOT
BRANCH   1  15
ATOM     12  C   UNL     1      -1.412  -0.526   0.013  0.00  0.00    -0.045 A 
ATOM     13  C   UNL     1      -2.257  -0.202   1.059  0.00  0.00    +0.004 A 
ATOM     14  C   UNL     1      -3.553  -0.677   1.074  0.00  0.00    +0.010 A 
ATOM     15  C   UNL     1      -4.010  -1.484   0.032  0.00  0.00    -0.002 A 
ATOM     16  C   UNL     1      -3.152  -1.806  -1.020  0.00  0.00    +0.010 A 
ATOM     17  C   UNL     1      -1.860  -1.321  -1.026  0.00  0.00    +0.004 A 
BRANCH  12  19
ATOM     18  C   UNL     1      -0.019   1.526   0.010  0.00  0.00    +0.012 C 
ATOM     19  C   UNL     1       0.002  -0.004   0.002  0.00  0.00    +0.013 C 
ATOM     20  C   UNL     1       0.742  -0.511   1.242  0.00  0.00    +0.012 C 
ENDBRANCH  12  19
ENDBRANCH   1  15
BRANCH   8  21
ATOM     21  C   UNL     1      -8.465  -1.785   2.245  0.00  0.00    +0.432 C 
ATOM     22  F   UNL     1      -7.800  -0.967   3.165  0.00  0.00    -0.165 F 
ATOM     23  F   UNL     1      -9.578  -1.106   1.737  0.00  0.00    -0.165 F 
ATOM     24  F   UNL     1      -8.884  -2.958   2.881  0.00  0.00    -0.165 F 
ENDBRANCH   8  21
BRANCH   5  25
ATOM     25  C   UNL     1      -9.349  -5.730  -1.139  0.00  0.00    +0.236 C 
ATOM     26  O   UNL     1      -9.632  -6.124  -0.027  0.00  0.00    -0.274 OA
ATOM     27  N   UNL     1      -9.251  -6.605  -2.159  0.00  0.00    -0.313 N 
ATOM     28  H   UNL     1      -9.025  -6.290  -3.048  0.00  0.00    +0.149 HD
BRANCH  27  29
ATOM     29  C   UNL     1      -9.487  -8.032  -1.925  0.00  0.00    +0.110 C 
BRANCH  29  30
ATOM     30  C   UNL     1      -9.314  -8.799  -3.238  0.00  0.00    +0.073 C 
BRANCH  30  31
ATOM     31  C   UNL     1      -9.557 -10.267  -2.998  0.00  0.00    +0.035 A 
ATOM     32  H   UNL     1     -11.189 -12.906  -2.679  0.00  0.00    +0.166 HD
ATOM     33  C   UNL     1     -10.755 -10.881  -3.000  0.00  0.00    +0.105 A 
ATOM     34  N   UNL     1     -10.521 -12.205  -2.742  0.00  0.00    -0.352 N 
ATOM     35  C   UNL     1      -9.188 -12.353  -2.591  0.00  0.00    +0.171 A 
ATOM     36  N   UNL     1      -8.617 -11.191  -2.751  0.00  0.00    -0.350 N 
ATOM     37  H   UNL     1      -7.663 -11.021  -2.697  0.00  0.00    +0.166 HD
ENDBRANCH  30  31
ENDBRANCH  29  30
ENDBRANCH  27  29
ENDBRANCH   5  25
TORSDOF 7
