REMARK  Name = ZINC38581339
REMARK  6 active torsions:
REMARK  status: ('A' for Active; 'I' for Inactive)
REMARK    1  A    between atoms: C_1  and  C_2
REMARK    2  A    between atoms: C_6  and  N_8
REMARK    3  A    between atoms: C_13  and  C_16
REMARK    4  A    between atoms: C_16  and  N_18
REMARK    5  A    between atoms: C_25  and  S_29
REMARK    6  A    between atoms: S_29  and  C_32
REMARK                            x       y       z     vdW  Elec       q    Type
REMARK                         _______ _______ _______ _____ _____    ______ ____
ROOT
ATOM      1  C   UNL     1      -2.348  -4.401   2.467  0.00  0.00    +0.265 C 
ATOM      2  O   UNL     1      -2.336  -3.819   1.399  0.00  0.00    -0.271 OA
ENDROOT
BRANCH   1   3
ATOM      3  N   UNL     1      -3.503  -4.780   3.004  0.00  0.00    -0.155 NA
ATOM      4  C   UNL     1      -4.647  -4.522   2.374  0.00  0.00    +0.164 A 
ATOM      5  N   UNL     1      -5.906  -4.829   2.776  0.00  0.00    -0.335 N 
ATOM      6  H   UNL     1      -6.049  -5.292   3.616  0.00  0.00    +0.168 HD
ATOM      7  C   UNL     1      -6.985  -4.480   1.985  0.00  0.00    +0.055 A 
ATOM      8  C   UNL     1      -8.352  -4.697   2.206  0.00  0.00    +0.028 A 
ATOM      9  C   UNL     1      -9.286  -4.271   1.290  0.00  0.00    +0.029 A 
ATOM     10  C   UNL     1      -8.905  -3.619   0.129  0.00  0.00    +0.089 A 
ATOM     11  C   UNL     1      -7.562  -3.392  -0.113  0.00  0.00    +0.044 A 
ATOM     12  C   UNL     1      -6.628  -3.817   0.802  0.00  0.00    +0.040 A 
ATOM     13  S   UNL     1      -4.859  -3.737   0.903  0.00  0.00    -0.052 S 
BRANCH  10  14
ATOM     14  S   UNL     1     -10.120  -3.084  -1.030  0.00  0.00    -0.006 S 
ATOM     15  O   UNL     1      -9.442  -3.049  -2.277  0.00  0.00    -0.170 OA
ATOM     16  O   UNL     1     -11.223  -3.958  -0.829  0.00  0.00    -0.170 OA
ATOM     17  C   UNL     1     -10.554  -1.401  -0.507  0.00  0.00    +0.200 C 
ENDBRANCH  10  14
ENDBRANCH   1   3
BRANCH   1  23
ATOM     18  N   UNL     1       0.051  -2.797   2.391  0.00  0.00    -0.242 N 
ATOM     19  C   UNL     1       0.042  -2.134   3.587  0.00  0.00    +0.097 C 
ATOM     20  C   UNL     1      -0.506  -2.741   4.672  0.00  0.00    +0.065 C 
ATOM     21  C   UNL     1      -1.061  -4.024   4.534  0.00  0.00    +0.185 C 
ATOM     22  O   UNL     1      -1.543  -4.590   5.496  0.00  0.00    -0.290 OA
ATOM     23  C   UNL     1      -1.054  -4.692   3.181  0.00  0.00    +0.231 C 
ATOM     24  N   UNL     1       0.069  -4.167   2.394  0.00  0.00    -0.217 NA
ATOM     25  H   UNL     1       0.948  -4.516   2.746  0.00  0.00    +0.146 HD
BRANCH  18  31
ATOM     26  C   UNL     1      -0.018   1.503   0.010  0.00  0.00    +0.044 C 
ATOM     27  C   UNL     1       0.002  -0.004   0.002  0.00  0.00    -0.049 A 
ATOM     28  C   UNL     1       0.006  -0.688  -1.200  0.00  0.00    +0.003 A 
ATOM     29  C   UNL     1       0.024  -2.071  -1.212  0.00  0.00    +0.002 A 
ATOM     30  C   UNL     1       0.040  -2.773  -0.023  0.00  0.00    +0.025 A 
ATOM     31  C   UNL     1       0.036  -2.089   1.186  0.00  0.00    +0.050 A 
ATOM     32  C   UNL     1       0.023  -0.700   1.194  0.00  0.00    +0.028 A 
ENDBRANCH  18  31
ENDBRANCH   1  23
TORSDOF 4
