REMARK  Name = ZINC02251847
REMARK  8 active torsions:
REMARK  status: ('A' for Active; 'I' for Inactive)
REMARK    1  A    between atoms: C_1  and  O_2
REMARK    2  A    between atoms: O_2  and  C_3
REMARK    3  A    between atoms: C_6  and  C_9
REMARK    4  A    between atoms: C_20  and  C_22
REMARK    5  A    between atoms: C_25  and  O_28
REMARK    6  A    between atoms: O_28  and  C_29
REMARK    7  A    between atoms: C_34  and  S_36
REMARK    8  A    between atoms: S_36  and  C_37
REMARK                            x       y       z     vdW  Elec       q    Type
REMARK                         _______ _______ _______ _____ _____    ______ ____
ROOT
ATOM      1  C   UNL     1       2.505  -2.503  -4.381  0.00  0.00    +0.159 C 
ATOM      2  C   UNL     1       1.436  -2.874  -5.386  0.00  0.00    +0.025 C 
ATOM      3  C   UNL     1       1.316  -4.171  -5.736  0.00  0.00    +0.058 C 
ATOM      4  C   UNL     1       0.269  -4.518  -6.731  0.00  0.00    +0.040 A 
ATOM      5  C   UNL     1      -0.147  -5.829  -6.917  0.00  0.00    +0.013 A 
ATOM      6  C   UNL     1      -1.125  -6.107  -7.853  0.00  0.00    +0.001 A 
ATOM      7  C   UNL     1      -1.686  -5.085  -8.600  0.00  0.00    +0.004 A 
ATOM      8  C   UNL     1      -1.276  -3.777  -8.420  0.00  0.00    +0.046 A 
ATOM      9  C   UNL     1      -0.296  -3.484  -7.487  0.00  0.00    +0.131 A 
ATOM     10  O   UNL     1       0.131  -2.210  -7.296  0.00  0.00    -0.479 OA
ATOM     11  C   UNL     1       0.526  -1.836  -5.974  0.00  0.00    +0.234 C 
ATOM     12  N   UNL     1       2.118  -5.126  -5.205  0.00  0.00    -0.326 N 
ATOM     13  C   UNL     1       3.070  -4.891  -4.327  0.00  0.00    +0.216 C 
ATOM     14  N   UNL     1       3.318  -3.615  -3.872  0.00  0.00    -0.209 N 
ATOM     15  N   UNL     1       4.374  -3.708  -2.963  0.00  0.00    -0.239 N 
ATOM     16  C   UNL     1       4.715  -5.034  -2.903  0.00  0.00    +0.174 C 
ATOM     17  N   UNL     1       3.941  -5.712  -3.712  0.00  0.00    -0.192 NA
ATOM     18  H   UNL     1       1.981  -6.043  -5.491  0.00  0.00    +0.169 HD
ATOM     19  H   UNL     1       4.785  -2.980  -2.471  0.00  0.00    +0.172 HD
ENDROOT
BRANCH   1  23
ATOM     20  C   UNL     1       0.606  -0.607  -1.056  0.00  0.00    +0.120 A 
ATOM     21  C   UNL     1       1.173   0.161  -2.062  0.00  0.00    +0.046 A 
ATOM     22  C   UNL     1       1.786  -0.455  -3.136  0.00  0.00    +0.009 A 
ATOM     23  C   UNL     1       1.835  -1.835  -3.209  0.00  0.00    -0.021 A 
ATOM     24  C   UNL     1       1.270  -2.602  -2.207  0.00  0.00    +0.009 A 
ATOM     25  C   UNL     1       0.661  -1.992  -1.128  0.00  0.00    +0.046 A 
BRANCH  20  27
ATOM     26  C   UNL     1      -0.017   1.425   0.010  0.00  0.00    +0.277 C 
ATOM     27  O   UNL     1       0.002  -0.004   0.002  0.00  0.00    -0.495 OA
ENDBRANCH  20  27
ENDBRANCH   1  23
BRANCH  11  28
ATOM     28  C   UNL     1      -0.700  -1.700  -5.108  0.00  0.00    -0.003 A 
ATOM     29  C   UNL     1      -1.726  -2.621  -5.213  0.00  0.00    +0.011 A 
ATOM     30  C   UNL     1      -2.850  -2.498  -4.420  0.00  0.00    +0.046 A 
ATOM     31  C   UNL     1      -2.949  -1.449  -3.517  0.00  0.00    +0.120 A 
ATOM     32  C   UNL     1      -1.919  -0.526  -3.413  0.00  0.00    +0.046 A 
ATOM     33  C   UNL     1      -0.794  -0.657  -4.205  0.00  0.00    +0.011 A 
BRANCH  31  34
ATOM     34  O   UNL     1      -4.055  -1.325  -2.736  0.00  0.00    -0.495 OA
ATOM     35  C   UNL     1      -4.088  -0.222  -1.830  0.00  0.00    +0.277 C 
ENDBRANCH  31  34
ENDBRANCH  11  28
BRANCH  16  36
ATOM     36  S   UNL     1       5.994  -5.718  -1.903  0.00  0.00    -0.092 S 
ATOM     37  C   UNL     1       5.939  -7.493  -2.272  0.00  0.00    +0.093 C 
ENDBRANCH  16  36
TORSDOF 5
