REMARK  Name = ZINC66909033
REMARK  8 active torsions:
REMARK  status: ('A' for Active; 'I' for Inactive)
REMARK    1  A    between atoms: C_1  and  C_2
REMARK    2  A    between atoms: N_8  and  C_9
REMARK    3  A    between atoms: C_9  and  C_11
REMARK    4  A    between atoms: C_9  and  C_12
REMARK    5  A    between atoms: C_12  and  N_13
REMARK    6  A    between atoms: C_19  and  N_22
REMARK    7  A    between atoms: C_23  and  C_25
REMARK    8  A    between atoms: C_25  and  C_26
REMARK                            x       y       z     vdW  Elec       q    Type
REMARK                         _______ _______ _______ _____ _____    ______ ____
ROOT
ATOM      1  N   UNL     1      -0.783   1.937   0.766  0.00  0.00    -0.301 N 
ATOM      2  C   UNL     1      -1.054   3.210   0.417  0.00  0.00    +0.302 C 
ATOM      3  O   UNL     1      -0.596   4.129   1.069  0.00  0.00    -0.253 OA
ATOM      4  N   UNL     1      -1.831   3.465  -0.654  0.00  0.00    -0.286 N 
ATOM      5  C   UNL     1      -2.481   2.369  -1.385  0.00  0.00    +0.111 C 
ATOM      6  C   UNL     1      -3.983   2.659  -1.474  0.00  0.00    +0.041 C 
ATOM      7  C   UNL     1      -4.195   4.041  -2.095  0.00  0.00    +0.076 C 
ATOM      8  C   UNL     1      -3.550   5.106  -1.206  0.00  0.00    +0.041 C 
ATOM      9  C   UNL     1      -2.048   4.845  -1.109  0.00  0.00    +0.111 C 
ATOM     10  H   UNL     1      -1.088   1.205   0.206  0.00  0.00    +0.150 HD
ENDROOT
BRANCH   7  11
ATOM     11  N   UNL     1      -5.631   4.308  -2.212  0.00  0.00    -0.312 N 
ATOM     12  C   UNL     1      -6.082   5.174  -3.142  0.00  0.00    +0.214 C 
ATOM     13  O   UNL     1      -5.299   5.733  -3.881  0.00  0.00    -0.276 OA
ATOM     14  H   UNL     1      -6.257   3.862  -1.621  0.00  0.00    +0.149 HD
BRANCH  12  15
ATOM     15  C   UNL     1      -7.559   5.449  -3.262  0.00  0.00    +0.099 C 
BRANCH  15  16
ATOM     16  C   UNL     1      -7.799   6.460  -4.385  0.00  0.00    -0.002 C 
ATOM     17  C   UNL     1      -7.229   7.837  -3.986  0.00  0.00    +0.004 C 
ATOM     18  C   UNL     1      -8.247   8.851  -4.565  0.00  0.00    +0.000 C 
ATOM     19  C   UNL     1      -9.605   8.145  -4.330  0.00  0.00    +0.000 C 
ATOM     20  C   UNL     1      -9.310   6.656  -4.603  0.00  0.00    +0.004 C 
ENDBRANCH  15  16
ENDBRANCH  12  15
ENDBRANCH   7  11
BRANCH   1  21
ATOM     21  C   UNL     1      -0.030   1.657   1.991  0.00  0.00    +0.090 C 
BRANCH  21  22
ATOM     22  C   UNL     1       0.035   0.144   2.215  0.00  0.00    -0.054 C 
ATOM     23  C   UNL     1       0.877  -0.151   3.458  0.00  0.00    -0.012 C 
BRANCH  22  30
ATOM     24  C   UNL     1      -0.828  -2.413   1.440  0.00  0.00    -0.013 C 
ATOM     25  C   UNL     1       0.616  -1.956   1.218  0.00  0.00    -0.071 C 
ATOM     26  C   UNL     1       1.177  -2.633  -0.034  0.00  0.00    -0.016 C 
ATOM     27  C   UNL     1       2.622  -2.173  -0.252  0.00  0.00    -0.003 C 
ATOM     28  C   UNL     1       2.651  -0.646  -0.356  0.00  0.00    -0.019 C 
ATOM     29  C   UNL     1       2.034  -0.042   0.908  0.00  0.00    -0.078 C 
ATOM     30  N   UNL     1       0.646  -0.499   1.045  0.00  0.00    +0.384 N 
ATOM     31  H   UNL     1       0.127  -0.249   0.217  0.00  0.00    -0.081 HD
ENDBRANCH  22  30
ENDBRANCH  21  22
ENDBRANCH   1  21
TORSDOF 6
