REMARK  Name = ZINC08845801
REMARK  12 active torsions:
REMARK  status: ('A' for Active; 'I' for Inactive)
REMARK    1  A    between atoms: C_1  and  C_2
REMARK    2  A    between atoms: C_8  and  C_28
REMARK    3  A    between atoms: C_10  and  C_15
REMARK    4  A    between atoms: C_11  and  O_14
REMARK    5  A    between atoms: C_15  and  C_17
REMARK    6  A    between atoms: C_24  and  C_27
REMARK    7  A    between atoms: C_32  and  O_34
REMARK    8  A    between atoms: O_34  and  C_35
REMARK    9  A    between atoms: C_35  and  C_36
REMARK   10  A    between atoms: C_36  and  C_37
REMARK   11  A    between atoms: C_37  and  C_38
REMARK   12  A    between atoms: C_37  and  C_39
REMARK                            x       y       z     vdW  Elec       q    Type
REMARK                         _______ _______ _______ _____ _____    ______ ____
ROOT
ATOM      1  C   UNL     1       4.021   1.691   1.192  0.00  0.00    +0.075 C 
ATOM      2  C   UNL     1       2.890   0.708   1.032  0.00  0.00    +0.101 A 
ATOM      3  N   UNL     1       2.872  -0.598   1.209  0.00  0.00    -0.145 NA
ATOM      4  N   UNL     1       1.829  -1.285   1.030  0.00  0.00    -0.125 NA
ATOM      5  C   UNL     1       0.684  -0.733   0.653  0.00  0.00    +0.191 A 
ATOM      6  S   UNL     1       1.188   0.982   0.548  0.00  0.00    -0.035 S 
ATOM      7  N   UNL     1      -0.552  -1.317   0.410  0.00  0.00    -0.230 N 
ATOM      8  C   UNL     1      -0.870  -2.745   0.524  0.00  0.00    +0.152 C 
ATOM      9  C   UNL     1      -2.330  -2.882   0.162  0.00  0.00    +0.071 C 
ATOM     10  C   UNL     1      -2.779  -1.638  -0.128  0.00  0.00    +0.189 C 
ATOM     11  C   UNL     1      -1.672  -0.673   0.034  0.00  0.00    +0.288 C 
ATOM     12  O   UNL     1      -1.759   0.525  -0.149  0.00  0.00    -0.266 OA
ENDROOT
BRANCH   8  13
ATOM     13  C   UNL     1      -0.639  -3.216   1.937  0.00  0.00    -0.019 A 
ATOM     14  C   UNL     1      -1.057  -2.438   3.002  0.00  0.00    +0.006 A 
ATOM     15  C   UNL     1      -0.847  -2.867   4.299  0.00  0.00    +0.004 A 
ATOM     16  C   UNL     1      -0.219  -4.075   4.535  0.00  0.00    +0.045 A 
ATOM     17  C   UNL     1       0.201  -4.857   3.470  0.00  0.00    +0.121 A 
ATOM     18  C   UNL     1      -0.016  -4.427   2.168  0.00  0.00    +0.051 A 
BRANCH  17  19
ATOM     19  O   UNL     1       0.819  -6.045   3.699  0.00  0.00    -0.492 OA
BRANCH  19  20
ATOM     20  C   UNL     1       1.004  -6.427   5.064  0.00  0.00    +0.229 C 
BRANCH  20  21
ATOM     21  C   UNL     1       1.712  -7.782   5.123  0.00  0.00    +0.044 C 
BRANCH  21  22
ATOM     22  C   UNL     1       1.911  -8.190   6.584  0.00  0.00    -0.014 C 
ATOM     23  C   UNL     1       0.547  -8.417   7.240  0.00  0.00    +0.007 C 
ATOM     24  C   UNL     1       2.727  -9.483   6.646  0.00  0.00    +0.007 C 
ENDBRANCH  21  22
ENDBRANCH  20  21
ENDBRANCH  19  20
ENDBRANCH  17  19
ENDBRANCH   8  13
BRANCH  10  25
ATOM     25  O   UNL     1      -4.042  -1.326  -0.500  0.00  0.00    -0.502 OA
ATOM     26  H   UNL     1      -4.110  -0.341  -0.655  0.00  0.00    +0.292 HD
ENDBRANCH  10  25
BRANCH   9  27
ATOM     27  C   UNL     1      -3.111  -4.122   0.129  0.00  0.00    +0.195 C 
ATOM     28  O   UNL     1      -4.049  -4.271   0.891  0.00  0.00    -0.287 OA
BRANCH  27  29
ATOM     29  C   UNL     1      -2.760  -5.191  -0.827  0.00  0.00    +0.023 A 
ATOM     30  C   UNL     1      -1.764  -4.979  -1.786  0.00  0.00    +0.015 A 
ATOM     31  C   UNL     1      -1.433  -5.978  -2.670  0.00  0.00    +0.046 A 
ATOM     32  C   UNL     1      -2.093  -7.208  -2.627  0.00  0.00    +0.124 A 
ATOM     33  C   UNL     1      -3.091  -7.409  -1.678  0.00  0.00    -0.002 A 
ATOM     34  C   UNL     1      -3.424  -6.421  -0.784  0.00  0.00    +0.019 A 
ATOM     35  C   UNL     1      -3.631  -8.810  -1.891  0.00  0.00    +0.083 C 
ATOM     36  C   UNL     1      -3.081  -9.153  -3.296  0.00  0.00    +0.175 C 
ATOM     37  O   UNL     1      -1.917  -8.316  -3.396  0.00  0.00    -0.488 OA
ATOM     38  C   UNL     1      -2.694 -10.631  -3.380  0.00  0.00    +0.052 C 
ENDBRANCH  27  29
ENDBRANCH   9  27
TORSDOF 8
