REMARK  Name = ZINC34923284
REMARK  14 active torsions:
REMARK  status: ('A' for Active; 'I' for Inactive)
REMARK    1  A    between atoms: C_1  and  C_2
REMARK    2  A    between atoms: C_2  and  C_3
REMARK    3  A    between atoms: C_4  and  C_34
REMARK    4  A    between atoms: C_5  and  C_26
REMARK    5  A    between atoms: C_8  and  C_13
REMARK    6  A    between atoms: C_14  and  N_16
REMARK    7  A    between atoms: N_16  and  C_17
REMARK    8  A    between atoms: C_17  and  C_18
REMARK    9  A    between atoms: C_18  and  C_19
REMARK   10  A    between atoms: N_24  and  C_25
REMARK   11  A    between atoms: C_29  and  C_33
REMARK   12  A    between atoms: C_31  and  C_32
REMARK   13  A    between atoms: C_34  and  O_36
REMARK   14  A    between atoms: O_36  and  C_37
REMARK                            x       y       z     vdW  Elec       q    Type
REMARK                         _______ _______ _______ _____ _____    ______ ____
ROOT
ATOM      1  C   UNL     1       0.663  -0.748   1.663  0.00  0.00    +0.056 C 
ATOM      2  C   UNL     1       0.121  -1.019   2.905  0.00  0.00    +0.083 C 
ATOM      3  C   UNL     1       1.059  -1.475   4.000  0.00  0.00    +0.150 C 
ATOM      4  N   UNL     1       2.500  -1.596   3.650  0.00  0.00    -0.267 N 
ATOM      5  C   UNL     1       3.527  -1.992   4.483  0.00  0.00    +0.048 C 
ATOM      6  C   UNL     1       4.774  -2.035   3.964  0.00  0.00    +0.072 C 
ATOM      7  S   UNL     1       4.492  -1.513   2.284  0.00  0.00    -0.060 S 
ATOM      8  C   UNL     1       2.832  -1.280   2.362  0.00  0.00    +0.166 C 
ATOM      9  N   UNL     1       1.962  -0.893   1.453  0.00  0.00    -0.229 NA
ENDROOT
BRANCH   3  10
ATOM     10  C   UNL     1       0.941  -0.504   5.146  0.00  0.00    -0.019 A 
ATOM     11  C   UNL     1       1.779   0.593   5.212  0.00  0.00    +0.006 A 
ATOM     12  C   UNL     1       1.671   1.484   6.263  0.00  0.00    +0.004 A 
ATOM     13  C   UNL     1       0.724   1.277   7.249  0.00  0.00    -0.050 A 
ATOM     14  C   UNL     1      -0.114   0.180   7.183  0.00  0.00    +0.007 A 
ATOM     15  C   UNL     1      -0.009  -0.708   6.129  0.00  0.00    -0.045 A 
ATOM     16  C   UNL     1      -0.926  -1.901   6.055  0.00  0.00    +0.044 C 
ATOM     17  C   UNL     1       0.606   2.248   8.396  0.00  0.00    +0.044 C 
ENDBRANCH   3  10
BRANCH   5  18
ATOM     18  C   UNL     1       3.273  -2.352   5.886  0.00  0.00    +0.091 C 
ATOM     19  C   UNL     1       4.267  -2.860   6.641  0.00  0.00    +0.239 C 
ATOM     20  O   UNL     1       5.526  -2.931   6.145  0.00  0.00    -0.271 OA
BRANCH  19  21
ATOM     21  N   UNL     1       4.001  -3.308   7.923  0.00  0.00    -0.312 N 
ATOM     22  H   UNL     1       3.089  -3.326   8.252  0.00  0.00    +0.149 HD
BRANCH  21  23
ATOM     23  C   UNL     1       5.098  -3.757   8.784  0.00  0.00    +0.103 C 
BRANCH  23  24
ATOM     24  C   UNL     1       4.527  -4.313  10.090  0.00  0.00    +0.003 C 
BRANCH  24  25
ATOM     25  C   UNL     1       5.673  -4.782  10.989  0.00  0.00    -0.068 C 
ATOM     26  C   UNL     1       5.121  -5.302  12.340  0.00  0.00    -0.017 C 
ATOM     27  C   UNL     1       6.255  -6.258  12.795  0.00  0.00    -0.020 C 
ATOM     28  C   UNL     1       6.745  -6.872  11.466  0.00  0.00    -0.079 C 
ATOM     29  N   UNL     1       6.359  -5.944  10.386  0.00  0.00    +0.380 N 
ATOM     30  C   UNL     1       7.557  -5.493   9.666  0.00  0.00    -0.096 C 
ATOM     31  H   UNL     1       5.735  -6.411   9.745  0.00  0.00    -0.082 HD
ENDBRANCH  24  25
ENDBRANCH  23  24
ENDBRANCH  21  23
ENDBRANCH  19  21
ENDBRANCH   5  18
BRANCH   1  33
ATOM     32  C   UNL     1      -0.302   1.237   0.533  0.00  0.00    +0.010 C 
ATOM     33  C   UNL     1      -0.231  -0.291   0.539  0.00  0.00    +0.053 C 
ENDBRANCH   1  33
BRANCH   2  34
ATOM     34  C   UNL     1      -1.252  -0.876   3.142  0.00  0.00    +0.339 C 
ATOM     35  O   UNL     1      -1.678   0.143   3.656  0.00  0.00    -0.245 OA
BRANCH  34  36
ATOM     36  O   UNL     1      -2.103  -1.868   2.800  0.00  0.00    -0.465 OA
ATOM     37  C   UNL     1      -3.490  -1.654   3.070  0.00  0.00    +0.280 C 
ENDBRANCH  34  36
ENDBRANCH   2  34
TORSDOF 9
