REMARK  Name = ZINC43138644
REMARK  6 active torsions:
REMARK  status: ('A' for Active; 'I' for Inactive)
REMARK    1  A    between atoms: C_1  and  C_2
REMARK    2  A    between atoms: C_2  and  N_9
REMARK    3  A    between atoms: N_9  and  N_10
REMARK    4  A    between atoms: N_13  and  C_14
REMARK    5  A    between atoms: C_14  and  C_15
REMARK    6  A    between atoms: C_15  and  N_21
REMARK                            x       y       z     vdW  Elec       q    Type
REMARK                         _______ _______ _______ _____ _____    ______ ____
ROOT
ATOM      1  N   UNL     1      -7.444   1.531  -1.229  0.00  0.00    -0.234 N 
ATOM      2  C   UNL     1      -6.591   0.491  -1.304  0.00  0.00    +0.313 C 
ATOM      3  O   UNL     1      -5.920   0.326  -2.305  0.00  0.00    -0.252 OA
ATOM      4  N   UNL     1      -6.482  -0.368  -0.271  0.00  0.00    -0.297 N 
ATOM      5  H   UNL     1      -7.523   2.149  -1.972  0.00  0.00    +0.171 HD
ATOM      6  H   UNL     1      -7.017  -0.237   0.527  0.00  0.00    +0.150 HD
ENDROOT
BRANCH   1   7
ATOM      7  N   UNL     1      -8.198   1.716  -0.105  0.00  0.00    -0.232 NA
ATOM      8  H   UNL     1      -7.615   1.779   0.716  0.00  0.00    +0.145 HD
BRANCH   7  10
ATOM      9  C   UNL     1      -9.970   2.715  -1.445  0.00  0.00    +0.031 C 
ATOM     10  C   UNL     1      -9.054   2.903  -0.234  0.00  0.00    +0.054 C 
ATOM     11  C   UNL     1      -8.164   4.120  -0.478  0.00  0.00    +0.047 C 
ATOM     12  C   UNL     1      -8.848   5.406   0.065  0.00  0.00    +0.168 C 
ATOM     13  S   UNL     1      -9.577   4.731   1.622  0.00  0.00    -0.029 S 
ATOM     14  O   UNL     1     -10.806   5.394   1.888  0.00  0.00    -0.174 OA
ATOM     15  O   UNL     1      -8.572   4.683   2.626  0.00  0.00    -0.174 OA
ATOM     16  C   UNL     1      -9.926   3.023   1.031  0.00  0.00    +0.189 C 
ENDBRANCH   7  10
ENDBRANCH   1   7
BRANCH   4  17
ATOM     17  C   UNL     1      -5.554  -1.499  -0.353  0.00  0.00    +0.128 C 
BRANCH  17  18
ATOM     18  C   UNL     1      -5.714  -2.381   0.887  0.00  0.00    +0.038 C 
ATOM     19  C   UNL     1      -4.656  -3.486   0.867  0.00  0.00    +0.024 C 
ATOM     20  C   UNL     1      -4.833  -4.338  -0.392  0.00  0.00    +0.002 C 
ATOM     21  C   UNL     1      -6.228  -4.967  -0.390  0.00  0.00    +0.000 C 
ATOM     22  C   UNL     1      -7.285  -3.862  -0.370  0.00  0.00    +0.002 C 
ATOM     23  C   UNL     1      -7.109  -3.010   0.889  0.00  0.00    +0.024 C 
BRANCH  18  24
ATOM     24  N   UNL     1      -5.545  -1.562   2.095  0.00  0.00    -0.291 NA
ATOM     25  C   UNL     1      -4.233  -0.898   2.101  0.00  0.00    +0.113 C 
ATOM     26  C   UNL     1      -4.123  -0.011   3.344  0.00  0.00    +0.175 C 
ATOM     27  O   UNL     1      -4.331  -0.809   4.513  0.00  0.00    -0.377 OA
ATOM     28  C   UNL     1      -5.599  -1.470   4.540  0.00  0.00    +0.175 C 
ATOM     29  C   UNL     1      -5.724  -2.372   3.309  0.00  0.00    +0.113 C 
ENDBRANCH  18  24
ENDBRANCH  17  18
ENDBRANCH   4  17
TORSDOF 5
