REMARK  Name = ZINC05839257
REMARK  9 active torsions:
REMARK  status: ('A' for Active; 'I' for Inactive)
REMARK    1  A    between atoms: C_1  and  O_2
REMARK    2  A    between atoms: O_2  and  C_3
REMARK    3  A    between atoms: C_6  and  C_9
REMARK    4  A    between atoms: C_11  and  O_29
REMARK    5  A    between atoms: C_17  and  C_19
REMARK    6  A    between atoms: C_22  and  O_27
REMARK    7  A    between atoms: C_23  and  O_25
REMARK    8  A    between atoms: O_25  and  C_26
REMARK    9  A    between atoms: O_27  and  C_28
REMARK                            x       y       z     vdW  Elec       q    Type
REMARK                         _______ _______ _______ _____ _____    ______ ____
ROOT
ATOM      1  C   UNL     1      -1.166   1.728   0.017  0.00  0.00    -0.032 C 
ATOM      2  C   UNL     1      -0.013   1.076   0.008  0.00  0.00    +0.028 C 
ATOM      3  C   UNL     1       1.266   1.845  -0.000  0.00  0.00    +0.140 C 
ATOM      4  C   UNL     1       2.421   1.219   0.783  0.00  0.00    +0.057 C 
ATOM      5  C   UNL     1       3.198   2.441   1.343  0.00  0.00    +0.020 C 
ATOM      6  C   UNL     1       2.372   3.678   0.896  0.00  0.00    +0.087 C 
ATOM      7  N   UNL     1       1.023   3.132   0.707  0.00  0.00    -0.271 NA
ATOM      8  C   UNL     1       0.073   3.911  -0.073  0.00  0.00    +0.100 C 
ATOM      9  C   UNL     1      -1.294   3.222   0.060  0.00  0.00    +0.064 C 
ENDROOT
BRANCH   1  13
ATOM     10  C   UNL     1      -4.741  -0.567  -0.068  0.00  0.00    +0.120 A 
ATOM     11  C   UNL     1      -3.891  -0.650   1.027  0.00  0.00    +0.046 A 
ATOM     12  C   UNL     1      -2.730   0.093   1.058  0.00  0.00    +0.012 A 
ATOM     13  C   UNL     1      -2.409   0.929  -0.013  0.00  0.00    -0.021 A 
ATOM     14  C   UNL     1      -3.269   1.014  -1.109  0.00  0.00    +0.012 A 
ATOM     15  C   UNL     1      -4.425   0.264  -1.135  0.00  0.00    +0.046 A 
BRANCH  10  17
ATOM     16  C   UNL     1      -6.713  -1.167  -1.252  0.00  0.00    +0.277 C 
ATOM     17  O   UNL     1      -5.884  -1.300  -0.095  0.00  0.00    -0.495 OA
ENDBRANCH  10  17
ENDBRANCH   1  13
BRANCH   9  18
ATOM     18  C   UNL     1      -1.923   3.627   1.368  0.00  0.00    -0.035 A 
ATOM     19  C   UNL     1      -1.281   3.345   2.559  0.00  0.00    +0.008 A 
ATOM     20  C   UNL     1      -1.854   3.715   3.762  0.00  0.00    +0.050 A 
ATOM     21  C   UNL     1      -3.075   4.370   3.775  0.00  0.00    +0.162 A 
ATOM     22  C   UNL     1      -3.721   4.654   2.576  0.00  0.00    +0.162 A 
ATOM     23  C   UNL     1      -3.139   4.285   1.374  0.00  0.00    +0.053 A 
BRANCH  22  24
ATOM     24  O   UNL     1      -4.920   5.297   2.584  0.00  0.00    -0.491 OA
ATOM     25  C   UNL     1      -5.526   5.556   1.316  0.00  0.00    +0.277 C 
ENDBRANCH  22  24
BRANCH  21  26
ATOM     26  O   UNL     1      -3.639   4.735   4.957  0.00  0.00    -0.491 OA
ATOM     27  C   UNL     1      -2.918   4.412   6.148  0.00  0.00    +0.277 C 
ENDBRANCH  21  26
ENDBRANCH   9  18
BRANCH   3  28
ATOM     28  O   UNL     1       1.670   2.100  -1.347  0.00  0.00    -0.371 OA
ATOM     29  H   UNL     1       1.807   1.301  -1.874  0.00  0.00    +0.212 HD
ENDBRANCH   3  28
TORSDOF 6
