REMARK  Name = ZINC25047046
REMARK  8 active torsions:
REMARK  status: ('A' for Active; 'I' for Inactive)
REMARK    1  A    between atoms: C_1  and  C_2
REMARK    2  A    between atoms: C_3  and  C_29
REMARK    3  A    between atoms: C_4  and  N_13
REMARK    4  A    between atoms: C_6  and  C_7
REMARK    5  A    between atoms: C_14  and  C_16
REMARK    6  A    between atoms: C_16  and  N_17
REMARK    7  A    between atoms: N_17  and  C_18
REMARK    8  A    between atoms: N_17  and  C_19
REMARK                            x       y       z     vdW  Elec       q    Type
REMARK                         _______ _______ _______ _____ _____    ______ ____
ROOT
ATOM      1  C   UNL     1       2.080  -1.503   1.093  0.00  0.00    +0.046 C 
ATOM      2  C   UNL     1       1.723  -0.051   0.906  0.00  0.00    -0.022 A 
ATOM      3  C   UNL     1       0.394   0.371   0.899  0.00  0.00    +0.069 A 
ATOM      4  C   UNL     1       0.147   1.730   0.721  0.00  0.00    +0.085 A 
ATOM      5  S   UNL     1       1.740   2.395   0.566  0.00  0.00    -0.072 S 
ATOM      6  C   UNL     1       2.687   0.894   0.737  0.00  0.00    +0.025 A 
ENDROOT
BRANCH   3   7
ATOM      7  C   UNL     1      -0.707  -0.584   1.075  0.00  0.00    +0.249 C 
ATOM      8  O   UNL     1      -1.204  -1.124   0.104  0.00  0.00    -0.270 OA
ATOM      9  N   UNL     1      -1.167  -0.862   2.310  0.00  0.00    -0.293 N 
ATOM     10  C   UNL     1      -0.577  -0.227   3.499  0.00  0.00    +0.136 C 
ATOM     11  C   UNL     1      -1.719   0.362   4.343  0.00  0.00    +0.179 C 
ATOM     12  O   UNL     1      -2.695  -0.654   4.585  0.00  0.00    -0.377 OA
ATOM     13  C   UNL     1      -3.325  -1.154   3.404  0.00  0.00    +0.179 C 
ATOM     14  C   UNL     1      -2.269  -1.816   2.511  0.00  0.00    +0.136 C 
ENDBRANCH   3   7
BRANCH   6  15
ATOM     15  C   UNL     1       4.155   0.720   0.704  0.00  0.00    -0.011 A 
ATOM     16  C   UNL     1       4.978   1.564   1.452  0.00  0.00    +0.009 A 
ATOM     17  C   UNL     1       6.346   1.393   1.420  0.00  0.00    +0.001 A 
ATOM     18  C   UNL     1       6.904   0.395   0.641  0.00  0.00    +0.000 A 
ATOM     19  C   UNL     1       6.094  -0.442  -0.107  0.00  0.00    +0.001 A 
ATOM     20  C   UNL     1       4.724  -0.284  -0.081  0.00  0.00    +0.009 A 
ENDBRANCH   6  15
BRANCH   4  21
ATOM     21  N   UNL     1      -1.071   2.388   0.672  0.00  0.00    -0.281 N 
ATOM     22  C   UNL     1      -1.109   3.722   0.489  0.00  0.00    +0.201 C 
ATOM     23  O   UNL     1      -0.077   4.348   0.367  0.00  0.00    -0.278 OA
ATOM     24  H   UNL     1      -2.007   1.820   0.783  0.00  0.00    +0.155 HD
BRANCH  22  25
ATOM     25  C   UNL     1      -2.435   4.438   0.437  0.00  0.00    +0.019 C 
BRANCH  25  26
ATOM     26  N   UNL     1      -2.208   5.874   0.231  0.00  0.00    +0.388 N 
ATOM     27  C   UNL     1      -1.849   6.156  -1.165  0.00  0.00    -0.095 C 
ATOM     28  H   UNL     1      -1.362   6.177   0.865  0.00  0.00    -0.081 HD
BRANCH  26  29
ATOM     29  C   UNL     1      -3.382   6.657   0.641  0.00  0.00    -0.037 C 
ATOM     30  C   UNL     1      -4.653   6.115  -0.047  0.00  0.00    -0.006 C 
ATOM     31  C   UNL     1      -5.732   6.327   1.037  0.00  0.00    +0.034 C 
ATOM     32  C   UNL     1      -4.983   6.301   2.352  0.00  0.00    -0.046 A 
ATOM     33  C   UNL     1      -3.632   6.490   2.124  0.00  0.00    -0.058 A 
ATOM     34  C   UNL     1      -2.749   6.503   3.191  0.00  0.00    +0.002 A 
ATOM     35  C   UNL     1      -3.213   6.327   4.480  0.00  0.00    +0.000 A 
ATOM     36  C   UNL     1      -4.563   6.138   4.707  0.00  0.00    +0.000 A 
ATOM     37  C   UNL     1      -5.446   6.125   3.645  0.00  0.00    +0.004 A 
ENDBRANCH  26  29
ENDBRANCH  25  26
ENDBRANCH  22  25
ENDBRANCH   4  21
TORSDOF 6
