REMARK  Name = ZINC20914886
REMARK  11 active torsions:
REMARK  status: ('A' for Active; 'I' for Inactive)
REMARK    1  A    between atoms: C_2  and  C_3
REMARK    2  A    between atoms: C_3  and  S_4
REMARK    3  A    between atoms: S_4  and  C_5
REMARK    4  A    between atoms: C_10  and  N_14
REMARK    5  A    between atoms: C_15  and  C_17
REMARK    6  A    between atoms: C_17  and  S_18
REMARK    7  A    between atoms: S_18  and  C_19
REMARK    8  A    between atoms: N_23  and  N_24
REMARK    9  A    between atoms: N_25  and  N_26
REMARK   10  A    between atoms: C_27  and  C_28
REMARK   11  A    between atoms: C_32  and  O_34
REMARK                            x       y       z     vdW  Elec       q    Type
REMARK                         _______ _______ _______ _____ _____    ______ ____
ROOT
ATOM      1  C   UNL     1      -3.950   9.685  -0.267  0.00  0.00    +0.210 A 
ATOM      2  N   UNL     1      -4.565   8.536  -0.109  0.00  0.00    -0.119 NA
ATOM      3  N   UNL     1      -3.603   7.519  -0.166  0.00  0.00    -0.109 NA
ATOM      4  C   UNL     1      -2.432   8.080  -0.347  0.00  0.00    +0.254 A 
ATOM      5  N   UNL     1      -2.617   9.432  -0.418  0.00  0.00    -0.211 N 
ATOM      6  N   UNL     1      -1.218   7.416  -0.455  0.00  0.00    -0.204 N 
ATOM      7  H   UNL     1      -0.291   7.987  -0.612  0.00  0.00    +0.177 HD
ENDROOT
BRANCH   5   8
ATOM      8  N   UNL     1      -1.639  10.368  -0.607  0.00  0.00    -0.294 N 
ATOM      9  H   UNL     1      -0.591  10.053  -0.718  0.00  0.00    +0.163 HD
ATOM     10  H   UNL     1      -1.900  11.435  -0.648  0.00  0.00    +0.163 HD
ENDBRANCH   5   8
BRANCH   6  11
ATOM     11  N   UNL     1      -1.173   6.018  -0.363  0.00  0.00    -0.188 NA
ATOM     12  C   UNL     1      -0.037   5.397  -0.464  0.00  0.00    +0.138 C 
BRANCH  12  13
ATOM     13  C   UNL     1       0.010   3.927  -0.367  0.00  0.00    -0.002 A 
ATOM     14  C   UNL     1      -1.167   3.199  -0.168  0.00  0.00    +0.010 A 
ATOM     15  C   UNL     1      -1.119   1.823  -0.085  0.00  0.00    +0.004 A 
ATOM     16  C   UNL     1       0.091   1.161  -0.186  0.00  0.00    +0.045 A 
ATOM     17  C   UNL     1       1.265   1.875  -0.384  0.00  0.00    +0.117 A 
ATOM     18  C   UNL     1       1.229   3.256  -0.475  0.00  0.00    +0.054 A 
BRANCH  17  19
ATOM     19  O   UNL     1       2.450   1.218  -0.488  0.00  0.00    -0.507 OA
ATOM     20  H   UNL     1       3.381   1.783  -0.645  0.00  0.00    +0.292 HD
ENDBRANCH  17  19
ENDBRANCH  12  13
ENDBRANCH   6  11
BRANCH   1  21
ATOM     21  S   UNL     1      -4.712  11.273  -0.280  0.00  0.00    -0.075 S 
BRANCH  21  22
ATOM     22  C   UNL     1      -6.474  10.918  -0.032  0.00  0.00    +0.173 C 
BRANCH  22  24
ATOM     23  N   UNL     1      -8.587  12.190   0.147  0.00  0.00    -0.285 N 
ATOM     24  C   UNL     1      -7.250  12.209  -0.023  0.00  0.00    +0.227 C 
ATOM     25  O   UNL     1      -6.673  13.265  -0.170  0.00  0.00    -0.275 OA
ATOM     26  H   UNL     1      -9.122  11.230   0.193  0.00  0.00    +0.155 HD
BRANCH  23  32
ATOM     27  C   UNL     1     -10.671  18.013   1.259  0.00  0.00    +0.136 A 
ATOM     28  N   UNL     1     -11.304  17.021   0.674  0.00  0.00    -0.233 NA
ATOM     29  C   UNL     1     -10.739  15.806   0.494  0.00  0.00    +0.080 A 
ATOM     30  C   UNL     1     -11.307  14.663  -0.116  0.00  0.00    +0.031 A 
ATOM     31  C   UNL     1     -10.596  13.497  -0.220  0.00  0.00    +0.025 A 
ATOM     32  C   UNL     1      -9.295  13.393   0.266  0.00  0.00    +0.035 A 
ATOM     33  C   UNL     1      -8.711  14.496   0.876  0.00  0.00    +0.040 A 
ATOM     34  C   UNL     1      -9.419  15.667   0.977  0.00  0.00    +0.042 A 
ATOM     35  S   UNL     1      -9.089  17.279   1.648  0.00  0.00    -0.061 S 
BRANCH  27  36
ATOM     36  S   UNL     1     -11.238  19.650   1.579  0.00  0.00    -0.095 S 
BRANCH  36  37
ATOM     37  C   UNL     1     -12.903  19.549   0.877  0.00  0.00    +0.103 C 
BRANCH  37  39
ATOM     38  C   UNL     1     -13.926  21.579  -0.015  0.00  0.00    +0.005 C 
ATOM     39  C   UNL     1     -13.599  20.875   1.041  0.00  0.00    -0.023 C 
ENDBRANCH  37  39
ENDBRANCH  36  37
ENDBRANCH  27  36
ENDBRANCH  23  32
ENDBRANCH  22  24
ENDBRANCH  21  22
ENDBRANCH   1  21
TORSDOF 11
