REMARK  Name = ZINC01790388
REMARK  13 active torsions:
REMARK  status: ('A' for Active; 'I' for Inactive)
REMARK    1  A    between atoms: C_1  and  N_2
REMARK    2  A    between atoms: N_2  and  C_3
REMARK    3  A    between atoms: N_2  and  C_4
REMARK    4  A    between atoms: C_7  and  C_10
REMARK    5  A    between atoms: C_12  and  C_31
REMARK    6  A    between atoms: C_24  and  C_25
REMARK    7  A    between atoms: C_24  and  C_27
REMARK    8  A    between atoms: C_27  and  O_29
REMARK    9  A    between atoms: O_29  and  C_30
REMARK   10  A    between atoms: C_31  and  O_33
REMARK   11  A    between atoms: O_33  and  C_34
REMARK   12  A    between atoms: C_34  and  C_35
REMARK   13  A    between atoms: C_34  and  C_41
REMARK                            x       y       z     vdW  Elec       q    Type
REMARK                         _______ _______ _______ _____ _____    ______ ____
ROOT
ATOM      1  C   UNL     1      -0.934   1.405  -1.792  0.00  0.00    +0.082 C 
ATOM      2  C   UNL     1      -1.003   0.947  -0.310  0.00  0.00    +0.176 C 
ATOM      3  C   UNL     1       0.457   1.950   1.551  0.00  0.00    +0.054 C 
ATOM      4  C   UNL     1       1.289   3.006   1.655  0.00  0.00    +0.022 C 
ATOM      5  C   UNL     1       1.878   3.586   0.430  0.00  0.00    -0.019 A 
ATOM      6  C   UNL     1       2.436   4.865   0.458  0.00  0.00    +0.008 A 
ATOM      7  C   UNL     1       2.993   5.396  -0.687  0.00  0.00    +0.001 A 
ATOM      8  C   UNL     1       3.002   4.665  -1.863  0.00  0.00    +0.000 A 
ATOM      9  C   UNL     1       2.449   3.396  -1.900  0.00  0.00    +0.006 A 
ATOM     10  C   UNL     1       1.889   2.857  -0.765  0.00  0.00    -0.019 A 
ATOM     11  C   UNL     1       1.276   1.480  -0.779  0.00  0.00    +0.119 C 
ATOM     12  C   UNL     1       0.573   1.183  -2.113  0.00  0.00    +0.183 C 
ATOM     13  N   UNL     1       0.357   1.130   0.271  0.00  0.00    -0.381 NA
ATOM     14  H   UNL     1       0.646   0.189   0.563  0.00  0.00    +0.127 HD
ENDROOT
BRANCH   1  18
ATOM     15  C   UNL     1      -3.381  -1.067  -4.275  0.00  0.00    +0.029 A 
ATOM     16  C   UNL     1      -2.620  -1.635  -3.261  0.00  0.00    +0.023 A 
ATOM     17  C   UNL     1      -1.831  -0.833  -2.460  0.00  0.00    +0.006 A 
ATOM     18  C   UNL     1      -1.796   0.533  -2.667  0.00  0.00    -0.040 A 
ATOM     19  C   UNL     1      -2.557   1.103  -3.673  0.00  0.00    +0.006 A 
ATOM     20  C   UNL     1      -3.344   0.306  -4.480  0.00  0.00    +0.023 A 
BRANCH  15  22
ATOM     21  C   UNL     1      -4.309  -3.305  -4.796  0.00  0.00    +0.129 C 
ATOM     22  N   UNL     1      -4.181  -1.875  -5.086  0.00  0.00    -0.336 N 
ATOM     23  C   UNL     1      -4.891  -1.293  -6.227  0.00  0.00    +0.129 C 
ENDBRANCH  15  22
ENDBRANCH   1  18
BRANCH  12  24
ATOM     24  C   UNL     1       0.838  -0.201  -2.539  0.00  0.00    +0.084 C 
ATOM     25  N   UNL     1       1.042  -1.269  -2.868  0.00  0.00    -0.195 NA
ENDBRANCH  12  24
BRANCH  12  26
ATOM     26  C   UNL     1       1.016   2.158  -3.173  0.00  0.00    +0.330 C 
ATOM     27  O   UNL     1       0.562   3.277  -3.192  0.00  0.00    -0.249 OA
BRANCH  26  28
ATOM     28  O   UNL     1       1.915   1.783  -4.097  0.00  0.00    -0.467 OA
ATOM     29  C   UNL     1       2.204   2.730  -5.158  0.00  0.00    +0.280 C 
ENDBRANCH  26  28
ENDBRANCH  12  26
BRANCH   2  30
ATOM     30  C   UNL     1      -2.204   1.544   0.378  0.00  0.00    +0.328 C 
ATOM     31  O   UNL     1      -2.080   2.538   1.054  0.00  0.00    -0.249 OA
BRANCH  30  32
ATOM     32  O   UNL     1      -3.410   0.973   0.239  0.00  0.00    -0.450 OA
BRANCH  32  33
ATOM     33  C   UNL     1      -4.521   1.603   0.929  0.00  0.00    +0.237 C 
BRANCH  33  34
ATOM     34  C   UNL     1      -5.157   2.629   0.027  0.00  0.00    -0.003 A 
ATOM     35  C   UNL     1      -5.312   2.363  -1.321  0.00  0.00    +0.007 A 
ATOM     36  C   UNL     1      -5.899   3.302  -2.148  0.00  0.00    +0.000 A 
ATOM     37  C   UNL     1      -6.323   4.512  -1.629  0.00  0.00    +0.000 A 
ATOM     38  C   UNL     1      -6.163   4.780  -0.282  0.00  0.00    +0.000 A 
ATOM     39  C   UNL     1      -5.580   3.838   0.546  0.00  0.00    +0.007 A 
ENDBRANCH  33  34
BRANCH  33  40
ATOM     40  C   UNL     1      -5.542   0.557   1.298  0.00  0.00    -0.003 A 
ATOM     41  C   UNL     1      -5.771  -0.513   0.453  0.00  0.00    +0.007 A 
ATOM     42  C   UNL     1      -6.704  -1.475   0.793  0.00  0.00    +0.000 A 
ATOM     43  C   UNL     1      -7.415  -1.362   1.973  0.00  0.00    +0.000 A 
ATOM     44  C   UNL     1      -7.190  -0.289   2.815  0.00  0.00    +0.000 A 
ATOM     45  C   UNL     1      -6.254   0.671   2.477  0.00  0.00    +0.007 A 
ENDBRANCH  33  40
ENDBRANCH  32  33
ENDBRANCH  30  32
ENDBRANCH   2  30
TORSDOF 10
