REMARK  Name = ZINC67210207
REMARK  10 active torsions:
REMARK  status: ('A' for Active; 'I' for Inactive)
REMARK    1  A    between atoms: C_1  and  C_2
REMARK    2  A    between atoms: C_2  and  C_4
REMARK    3  A    between atoms: C_2  and  C_24
REMARK    4  A    between atoms: C_4  and  N_5
REMARK    5  A    between atoms: C_6  and  C_8
REMARK    6  A    between atoms: C_8  and  C_9
REMARK    7  A    between atoms: C_9  and  C_10
REMARK    8  A    between atoms: C_10  and  C_11
REMARK    9  A    between atoms: C_11  and  C_12
REMARK   10  A    between atoms: C_24  and  N_25
REMARK                            x       y       z     vdW  Elec       q    Type
REMARK                         _______ _______ _______ _____ _____    ______ ____
ROOT
ATOM      1  N   UNL     1      -0.008  -0.140   2.444  0.00  0.00    -0.315 N 
ATOM      2  C   UNL     1       0.457  -0.484   3.661  0.00  0.00    +0.213 C 
ATOM      3  O   UNL     1       1.496  -1.101   3.761  0.00  0.00    -0.276 OA
ATOM      4  H   UNL     1      -0.840   0.353   2.364  0.00  0.00    +0.149 HD
ENDROOT
BRANCH   1   5
ATOM      5  C   UNL     1       0.742  -0.511   1.242  0.00  0.00    +0.105 C 
BRANCH   5   7
ATOM      6  C   UNL     1      -0.019   1.526   0.010  0.00  0.00    +0.007 C 
ATOM      7  C   UNL     1       0.002  -0.004   0.002  0.00  0.00    -0.014 C 
BRANCH   7   8
ATOM      8  C   UNL     1       0.718  -0.497  -1.257  0.00  0.00    -0.074 C 
BRANCH   8   9
ATOM      9  N   UNL     1      -0.057  -0.113  -2.444  0.00  0.00    +0.380 N 
ATOM     10  C   UNL     1      -1.351  -0.805  -2.427  0.00  0.00    -0.079 C 
ATOM     11  C   UNL     1      -2.195  -0.346  -3.618  0.00  0.00    -0.019 C 
ATOM     12  C   UNL     1      -1.456  -0.676  -4.918  0.00  0.00    -0.004 C 
ATOM     13  C   UNL     1      -0.077  -0.009  -4.892  0.00  0.00    -0.019 C 
ATOM     14  C   UNL     1       0.688  -0.480  -3.654  0.00  0.00    -0.079 C 
ATOM     15  H   UNL     1      -0.211   0.884  -2.435  0.00  0.00    -0.082 HD
ENDBRANCH   8   9
ENDBRANCH   7   8
ENDBRANCH   5   7
ENDBRANCH   1   5
BRANCH   2  16
ATOM     16  C   UNL     1      -0.315  -0.103   4.898  0.00  0.00    +0.096 C 
BRANCH  16  17
ATOM     17  C   UNL     1       0.425  -0.610   6.138  0.00  0.00    +0.009 C 
BRANCH  17  18
ATOM     18  C   UNL     1      -0.359  -0.222   7.393  0.00  0.00    +0.002 C 
BRANCH  18  19
ATOM     19  C   UNL     1       0.381  -0.729   8.633  0.00  0.00    +0.016 C 
BRANCH  19  20
ATOM     20  C   UNL     1      -0.403  -0.342   9.889  0.00  0.00    +0.069 C 
ATOM     21  C   UNL     1       0.310  -0.795  11.137  0.00  0.00    +0.108 C 
ATOM     22  C   UNL     1      -0.747  -1.004  12.265  0.00  0.00    +0.105 C 
ATOM     23  C   UNL     1      -1.717  -2.051  11.723  0.00  0.00    +0.093 C 
ATOM     24  S   UNL     1      -1.976  -1.311  10.021  0.00  0.00    -0.154 S 
ATOM     25  N   UNL     1       0.142  -1.297  13.366  0.00  0.00    -0.294 N 
ATOM     26  C   UNL     1       1.271  -0.564  13.129  0.00  0.00    +0.300 C 
ATOM     27  O   UNL     1       2.134  -0.366  13.962  0.00  0.00    -0.253 OA
ATOM     28  N   UNL     1       1.312  -0.070  11.861  0.00  0.00    -0.294 N 
ATOM     29  H   UNL     1      -0.027  -1.889  14.116  0.00  0.00    +0.151 HD
ATOM     30  H   UNL     1       1.901   0.622  11.522  0.00  0.00    +0.151 HD
ENDBRANCH  19  20
ENDBRANCH  18  19
ENDBRANCH  17  18
ENDBRANCH  16  17
ENDBRANCH   2  16
TORSDOF 9
