REMARK  Name = ZINC24644059
REMARK  9 active torsions:
REMARK  status: ('A' for Active; 'I' for Inactive)
REMARK    1  A    between atoms: C_1  and  C_2
REMARK    2  A    between atoms: C_7  and  C_9
REMARK    3  A    between atoms: C_7  and  C_10
REMARK    4  A    between atoms: N_13  and  C_17
REMARK    5  A    between atoms: C_17  and  C_18
REMARK    6  A    between atoms: N_20  and  C_21
REMARK    7  A    between atoms: N_20  and  C_22
REMARK    8  A    between atoms: C_22  and  C_23
REMARK    9  A    between atoms: N_25  and  C_26
REMARK                            x       y       z     vdW  Elec       q    Type
REMARK                         _______ _______ _______ _____ _____    ______ ____
ROOT
ATOM      1  C   UNL     1       0.226  -2.614  -3.995  0.00  0.00    +0.213 C 
ENDROOT
BRANCH   1  13
ATOM      2  C   UNL     1       0.333   2.428   0.986  0.00  0.00    +0.007 C 
ATOM      3  C   UNL     1       0.115   0.923   0.820  0.00  0.00    -0.011 C 
ATOM      4  C   UNL     1       0.751   0.457  -0.493  0.00  0.00    +0.038 C 
ATOM      5  C   UNL     1       0.553  -1.047  -0.649  0.00  0.00    +0.113 C 
ATOM      6  C   UNL     1       1.176  -1.798   0.522  0.00  0.00    +0.041 C 
ATOM      7  C   UNL     1       0.538  -1.324   1.831  0.00  0.00    -0.032 C 
ATOM      8  C   UNL     1       0.763   0.181   1.991  0.00  0.00    +0.009 C 
ATOM      9  C   UNL     1      -0.964  -1.615   1.801  0.00  0.00    +0.011 C 
ATOM     10  C   UNL     1       1.178  -2.063   3.008  0.00  0.00    +0.011 C 
ATOM     11  C   UNL     1       1.144  -1.524  -1.956  0.00  0.00    +0.247 C 
ATOM     12  O   UNL     1       2.304  -1.462  -2.303  0.00  0.00    -0.273 OA
ATOM     13  N   UNL     1       0.108  -2.033  -2.655  0.00  0.00    -0.215 N 
ATOM     14  C   UNL     1      -1.039  -1.942  -1.972  0.00  0.00    +0.310 C 
ATOM     15  O   UNL     1      -2.110  -2.334  -2.394  0.00  0.00    -0.252 OA
ATOM     16  N   UNL     1      -0.875  -1.368  -0.765  0.00  0.00    -0.285 N 
ATOM     17  H   UNL     1      -1.564  -1.199  -0.103  0.00  0.00    +0.151 HD
ENDBRANCH   1  13
BRANCH   1  18
ATOM     18  C   UNL     1       0.506  -4.090  -3.880  0.00  0.00    +0.234 C 
ATOM     19  O   UNL     1       0.600  -4.606  -2.786  0.00  0.00    -0.274 OA
ATOM     20  N   UNL     1       0.654  -4.836  -4.992  0.00  0.00    -0.294 N 
ATOM     21  C   UNL     1       0.541  -4.213  -6.313  0.00  0.00    +0.132 C 
BRANCH  20  22
ATOM     22  C   UNL     1       0.927  -6.271  -4.880  0.00  0.00    +0.203 C 
BRANCH  22  23
ATOM     23  C   UNL     1      -0.375  -7.029  -4.849  0.00  0.00    +0.235 C 
ATOM     24  O   UNL     1      -1.427  -6.430  -4.913  0.00  0.00    -0.274 OA
ATOM     25  N   UNL     1      -0.370  -8.373  -4.749  0.00  0.00    -0.283 N 
ATOM     26  H   UNL     1       0.467  -8.847  -4.621  0.00  0.00    +0.155 HD
BRANCH  25  27
ATOM     27  C   UNL     1      -1.572  -9.086  -4.829  0.00  0.00    +0.052 A 
ATOM     28  C   UNL     1      -2.603  -8.622  -5.636  0.00  0.00    +0.025 A 
ATOM     29  C   UNL     1      -3.788  -9.327  -5.713  0.00  0.00    +0.002 A 
ATOM     30  C   UNL     1      -3.950 -10.494  -4.989  0.00  0.00    +0.002 A 
ATOM     31  C   UNL     1      -2.926 -10.959  -4.185  0.00  0.00    +0.022 A 
ATOM     32  C   UNL     1      -1.735 -10.261  -4.107  0.00  0.00    +0.062 A 
ATOM     33 CL   UNL     1      -0.447 -10.850  -3.103  0.00  0.00    -0.082 Cl
ENDBRANCH  25  27
ENDBRANCH  22  23
ENDBRANCH  20  22
ENDBRANCH   1  18
TORSDOF 5
