REMARK  Name = ZINC05714715
REMARK  12 active torsions:
REMARK  status: ('A' for Active; 'I' for Inactive)
REMARK    1  A    between atoms: C_1  and  C_2
REMARK    2  A    between atoms: C_2  and  C_3
REMARK    3  A    between atoms: C_2  and  C_4
REMARK    4  A    between atoms: C_2  and  C_5
REMARK    5  A    between atoms: C_7  and  C_16
REMARK    6  A    between atoms: C_8  and  O_15
REMARK    7  A    between atoms: C_9  and  C_11
REMARK    8  A    between atoms: C_11  and  C_12
REMARK    9  A    between atoms: C_11  and  C_13
REMARK   10  A    between atoms: C_11  and  C_14
REMARK   11  A    between atoms: C_16  and  C_18
REMARK   12  A    between atoms: C_16  and  N_66
REMARK                            x       y       z     vdW  Elec       q    Type
REMARK                         _______ _______ _______ _____ _____    ______ ____
ROOT
ATOM      1  C   UNL     1       3.710  -0.717  -0.035  0.00  0.00    -0.003 C 
ENDROOT
BRANCH   1   2
ATOM      2  C   UNL     1       4.233  -0.891   1.368  0.00  0.00    -0.053 A 
ATOM      3  C   UNL     1       3.777  -1.936   2.149  0.00  0.00    +0.006 A 
ATOM      4  C   UNL     1       4.254  -2.100   3.436  0.00  0.00    +0.050 A 
ATOM      5  C   UNL     1       5.190  -1.216   3.947  0.00  0.00    +0.166 A 
ATOM      6  C   UNL     1       5.649  -0.162   3.160  0.00  0.00    +0.166 A 
ATOM      7  C   UNL     1       5.171  -0.007   1.869  0.00  0.00    +0.052 A 
ATOM      8  O   UNL     1       6.556   0.559   3.881  0.00  0.00    -0.453 OA
ATOM      9  C   UNL     1       6.344   0.180   5.254  0.00  0.00    +0.466 C 
ATOM     10  O   UNL     1       5.810  -1.154   5.162  0.00  0.00    -0.453 OA
ENDBRANCH   1   2
BRANCH   1  16
ATOM     11  C   UNL     1       5.070  -2.621  -0.661  0.00  0.00    -0.049 C 
ATOM     12  C   UNL     1       5.035  -3.991  -1.344  0.00  0.00    +0.141 C 
ATOM     13  O   UNL     1       4.581  -3.834  -2.691  0.00  0.00    -0.383 OA
ATOM     14  C   UNL     1       3.283  -3.243  -2.796  0.00  0.00    +0.141 C 
ATOM     15  C   UNL     1       3.300  -1.866  -2.127  0.00  0.00    -0.049 C 
ATOM     16  N   UNL     1       3.717  -2.028  -0.719  0.00  0.00    +0.390 N 
ATOM     17  H   UNL     1       3.057  -2.656  -0.245  0.00  0.00    -0.080 HD
ENDBRANCH   1  16
BRANCH   1  20
ATOM     18  C   UNL     1      -0.064  -0.614   0.043  0.00  0.00    -0.041 A 
ATOM     19  C   UNL     1       1.235  -1.087  -0.005  0.00  0.00    +0.010 A 
ATOM     20  C   UNL     1       2.295  -0.201   0.017  0.00  0.00    -0.015 A 
ATOM     21  C   UNL     1       2.055   1.164   0.087  0.00  0.00    +0.122 A 
ATOM     22  C   UNL     1       0.752   1.635   0.136  0.00  0.00    -0.000 A 
ATOM     23  C   UNL     1      -0.305   0.745   0.114  0.00  0.00    +0.012 A 
BRANCH  18  25
ATOM     24  C   UNL     1      -2.097  -1.299  -1.200  0.00  0.00    +0.015 C 
ATOM     25  C   UNL     1      -1.218  -1.583   0.020  0.00  0.00    -0.013 C 
ATOM     26  C   UNL     1      -0.682  -3.013  -0.060  0.00  0.00    +0.015 C 
ATOM     27  C   UNL     1      -2.047  -1.419   1.295  0.00  0.00    +0.015 C 
ENDBRANCH  18  25
BRANCH  22  28
ATOM     28  C   UNL     1       0.488   3.117   0.212  0.00  0.00    -0.009 C 
ATOM     29  C   UNL     1      -1.021   3.365   0.254  0.00  0.00    +0.015 C 
ATOM     30  C   UNL     1       1.133   3.685   1.477  0.00  0.00    +0.015 C 
ATOM     31  C   UNL     1       1.084   3.805  -1.018  0.00  0.00    +0.015 C 
ENDBRANCH  22  28
BRANCH  21  32
ATOM     32  O   UNL     1       3.096   2.037   0.108  0.00  0.00    -0.506 OA
ATOM     33  H   UNL     1       3.380   2.332  -0.767  0.00  0.00    +0.292 HD
ENDBRANCH  21  32
ENDBRANCH   1  20
TORSDOF 6
