REMARK  Name = ZINC66139763
REMARK  5 active torsions:
REMARK  status: ('A' for Active; 'I' for Inactive)
REMARK    1  A    between atoms: C_3  and  C_6
REMARK    2  A    between atoms: C_8  and  C_12
REMARK    3  A    between atoms: C_12  and  O_13
REMARK    4  A    between atoms: O_13  and  C_14
REMARK    5  A    between atoms: C_17  and  N_20
REMARK                            x       y       z     vdW  Elec       q    Type
REMARK                         _______ _______ _______ _____ _____    ______ ____
ROOT
ATOM      1  C   UNL     1       3.570   0.618  -0.029  0.00  0.00    +0.101 A 
ATOM      2  C   UNL     1       4.362  -0.511  -0.048  0.00  0.00    +0.059 A 
ATOM      3  C   UNL     1       5.692  -0.093  -0.057  0.00  0.00    +0.101 A 
ATOM      4  N   UNL     1       5.722   1.215  -0.044  0.00  0.00    -0.175 NA
ATOM      5  N   UNL     1       4.407   1.696  -0.031  0.00  0.00    -0.274 N 
ATOM      6  H   UNL     1       4.139   2.628  -0.024  0.00  0.00    +0.189 HD
ENDROOT
BRANCH   1   9
ATOM      7  C   UNL     1      -0.016   1.343   0.009  0.00  0.00    +0.042 A 
ATOM      8  C   UNL     1       1.325   1.775  -0.001  0.00  0.00    +0.051 A 
ATOM      9  C   UNL     1       2.097   0.654  -0.015  0.00  0.00    +0.152 A 
ATOM     10  O   UNL     1       1.280  -0.418  -0.012  0.00  0.00    -0.461 OA
ATOM     11  C   UNL     1       0.002  -0.004   0.002  0.00  0.00    +0.196 A 
ENDBRANCH   1   9
BRANCH   3  12
ATOM     12  C   UNL     1       6.897  -0.999  -0.077  0.00  0.00    +0.286 C 
BRANCH  12  13
ATOM     13  O   UNL     1       6.468  -2.362  -0.086  0.00  0.00    -0.486 OA
BRANCH  13  14
ATOM     14  C   UNL     1       7.439  -3.314  -0.104  0.00  0.00    +0.121 A 
ATOM     15  C   UNL     1       8.775  -2.942  -0.108  0.00  0.00    +0.047 A 
ATOM     16  C   UNL     1       9.761  -3.909  -0.127  0.00  0.00    +0.026 A 
ATOM     17  C   UNL     1       9.415  -5.254  -0.142  0.00  0.00    +0.025 A 
ATOM     18  C   UNL     1       8.076  -5.625  -0.138  0.00  0.00    +0.026 A 
ATOM     19  C   UNL     1       7.092  -4.657  -0.114  0.00  0.00    +0.047 A 
BRANCH  17  20
ATOM     20  N   UNL     1      10.413  -6.234  -0.162  0.00  0.00    -0.358 N 
ATOM     21  H   UNL     1      11.348  -5.974  -0.165  0.00  0.00    +0.142 HD
ATOM     22  H   UNL     1      10.171  -7.173  -0.172  0.00  0.00    +0.142 HD
ENDBRANCH  17  20
ENDBRANCH  13  14
ENDBRANCH  12  13
ENDBRANCH   3  12
TORSDOF 5
