REMARK  Name = ZINC39446273
REMARK  6 active torsions:
REMARK  status: ('A' for Active; 'I' for Inactive)
REMARK    1  A    between atoms: C_1  and  C_2
REMARK    2  A    between atoms: C_4  and  C_14
REMARK    3  A    between atoms: C_7  and  C_13
REMARK    4  A    between atoms: C_8  and  C_9
REMARK    5  A    between atoms: C_9  and  O_11
REMARK    6  A    between atoms: O_11  and  C_12
REMARK                            x       y       z     vdW  Elec       q    Type
REMARK                         _______ _______ _______ _____ _____    ______ ____
ROOT
ATOM      1  C   UNL     1      -0.044   1.522  -0.154  0.00  0.00    +0.015 C 
ATOM      2  C   UNL     1      -0.013  -0.006  -0.095  0.00  0.00    +0.050 C 
ATOM      3  C   UNL     1      -1.420  -0.566   0.190  0.00  0.00    +0.127 C 
ATOM      4  N   UNL     1      -1.274  -1.279   1.467  0.00  0.00    -0.338 N 
ATOM      5  C   UNL     1       0.006  -1.181   1.905  0.00  0.00    +0.012 C 
ATOM      6  C   UNL     1       0.809  -0.476   1.085  0.00  0.00    +0.058 C 
ATOM      7  C   UNL     1       0.487  -1.805   3.190  0.00  0.00    +0.061 C 
ATOM      8  H   UNL     1      -1.986  -1.749   1.928  0.00  0.00    +0.146 HD
ENDROOT
BRANCH   3   9
ATOM      9  C   UNL     1      -2.418   0.556   0.322  0.00  0.00    +0.071 A 
ATOM     10  C   UNL     1      -3.037   1.082  -0.762  0.00  0.00    +0.073 A 
ATOM     11  S   UNL     1      -4.060   2.325   0.009  0.00  0.00    -0.061 S 
ATOM     12  C   UNL     1      -3.599   2.050   1.604  0.00  0.00    +0.156 A 
ATOM     13  N   UNL     1      -2.731   1.067   1.499  0.00  0.00    -0.228 NA
ATOM     14  N   UNL     1      -4.033   2.698   2.750  0.00  0.00    -0.338 N 
ATOM     15  H   UNL     1      -4.688   3.411   2.686  0.00  0.00    +0.144 HD
ATOM     16  H   UNL     1      -3.683   2.438   3.616  0.00  0.00    +0.144 HD
ENDBRANCH   3   9
BRANCH   6  17
ATOM     17  C   UNL     1       2.182  -0.218   1.290  0.00  0.00    +0.337 C 
ATOM     18  O   UNL     1       2.741  -0.649   2.281  0.00  0.00    -0.245 OA
BRANCH  17  19
ATOM     19  O   UNL     1       2.874   0.507   0.387  0.00  0.00    -0.465 OA
ATOM     20  C   UNL     1       4.260   0.730   0.658  0.00  0.00    +0.280 C 
ENDBRANCH  17  19
ENDBRANCH   6  17
TORSDOF 3
