REMARK  Name = ZINC63350019
REMARK  14 active torsions:
REMARK  status: ('A' for Active; 'I' for Inactive)
REMARK    1  A    between atoms: C_1  and  C_2
REMARK    2  A    between atoms: C_2  and  C_3
REMARK    3  A    between atoms: C_2  and  C_4
REMARK    4  A    between atoms: C_4  and  C_6
REMARK    5  A    between atoms: C_4  and  N_25
REMARK    6  A    between atoms: N_8  and  C_9
REMARK    7  A    between atoms: C_9  and  C_11
REMARK    8  A    between atoms: C_9  and  C_21
REMARK    9  A    between atoms: C_11  and  C_12
REMARK   10  A    between atoms: C_21  and  O_23
REMARK   11  A    between atoms: O_23  and  C_24
REMARK   12  A    between atoms: C_26  and  O_28
REMARK   13  A    between atoms: O_28  and  C_29
REMARK   14  A    between atoms: C_29  and  C_30
REMARK                            x       y       z     vdW  Elec       q    Type
REMARK                         _______ _______ _______ _____ _____    ______ ____
ROOT
ATOM      1  C   UNL     1      -2.318   0.416   1.310  0.00  0.00    +0.234 C 
ATOM      2  O   UNL     1      -3.388   0.982   1.394  0.00  0.00    -0.274 OA
ATOM      3  N   UNL     1      -1.625   0.115   2.426  0.00  0.00    -0.301 N 
ATOM      4  H   UNL     1      -0.803  -0.395   2.363  0.00  0.00    +0.150 HD
ENDROOT
BRANCH   1   5
ATOM      5  C   UNL     1      -1.764   0.051  -0.043  0.00  0.00    +0.165 C 
BRANCH   5   6
ATOM      6  N   UNL     1      -0.313  -0.128   0.056  0.00  0.00    -0.270 N 
ATOM      7  C   UNL     1       0.462   0.041  -1.033  0.00  0.00    +0.401 C 
ATOM      8  O   UNL     1      -0.042   0.342  -2.097  0.00  0.00    -0.226 OA
ATOM      9  H   UNL     1       0.089  -0.368   0.905  0.00  0.00    +0.153 HD
BRANCH   7  10
ATOM     10  O   UNL     1       1.796  -0.124  -0.942  0.00  0.00    -0.446 OA
BRANCH  10  11
ATOM     11  C   UNL     1       2.556   0.071  -2.136  0.00  0.00    +0.269 C 
BRANCH  11  12
ATOM     12  C   UNL     1       4.017  -0.154  -1.843  0.00  0.00    -0.010 A 
ATOM     13  C   UNL     1       4.811   0.902  -1.435  0.00  0.00    +0.007 A 
ATOM     14  C   UNL     1       6.151   0.695  -1.166  0.00  0.00    +0.000 A 
ATOM     15  C   UNL     1       6.697  -0.567  -1.306  0.00  0.00    +0.000 A 
ATOM     16  C   UNL     1       5.904  -1.623  -1.714  0.00  0.00    +0.000 A 
ATOM     17  C   UNL     1       4.562  -1.417  -1.978  0.00  0.00    +0.007 A 
ENDBRANCH  11  12
ENDBRANCH  10  11
ENDBRANCH   7  10
ENDBRANCH   5   6
BRANCH   5  19
ATOM     18  C   UNL     1      -2.128  -2.362   0.493  0.00  0.00    +0.009 C 
ATOM     19  C   UNL     1      -2.407  -1.252  -0.522  0.00  0.00    +0.012 C 
ATOM     20  C   UNL     1      -3.918  -1.055  -0.659  0.00  0.00    +0.009 C 
ENDBRANCH   5  19
ENDBRANCH   1   5
BRANCH   3  21
ATOM     21  C   UNL     1      -2.115   0.558   3.734  0.00  0.00    +0.186 C 
BRANCH  21  22
ATOM     22  C   UNL     1      -3.029  -0.492   4.311  0.00  0.00    +0.328 C 
ATOM     23  O   UNL     1      -3.249  -1.507   3.692  0.00  0.00    -0.249 OA
BRANCH  22  24
ATOM     24  O   UNL     1      -3.598  -0.300   5.511  0.00  0.00    -0.467 OA
ATOM     25  C   UNL     1      -4.453  -1.337   5.996  0.00  0.00    +0.280 C 
ENDBRANCH  22  24
ENDBRANCH  21  22
BRANCH  21  26
ATOM     26  C   UNL     1      -0.928   0.775   4.676  0.00  0.00    +0.067 C 
BRANCH  26  27
ATOM     27  C   UNL     1      -0.069   1.896   4.151  0.00  0.00    -0.039 C 
ATOM     28  C   UNL     1      -0.121   3.198   4.514  0.00  0.00    -0.001 A 
ATOM     29  C   UNL     1      -0.962   3.932   5.467  0.00  0.00    +0.010 A 
ATOM     30  C   UNL     1      -0.776   5.263   5.616  0.00  0.00    +0.001 A 
ATOM     31  C   UNL     1       0.197   5.958   4.884  0.00  0.00    +0.002 A 
ATOM     32  C   UNL     1       1.007   5.353   3.990  0.00  0.00    +0.026 A 
ATOM     33  C   UNL     1       0.899   3.955   3.753  0.00  0.00    +0.043 A 
ATOM     34  N   UNL     1       1.556   3.152   2.952  0.00  0.00    -0.380 N 
ATOM     35  C   UNL     1       1.031   1.792   3.118  0.00  0.00    +0.144 C 
ATOM     36  H   UNL     1       2.273   3.412   2.353  0.00  0.00    +0.160 HD
ENDBRANCH  26  27
ENDBRANCH  21  26
ENDBRANCH   3  21
TORSDOF 11
