REMARK  Name = ZINC40036162
REMARK  12 active torsions:
REMARK  status: ('A' for Active; 'I' for Inactive)
REMARK    1  A    between atoms: C_1  and  C_2
REMARK    2  A    between atoms: C_2  and  C_3
REMARK    3  A    between atoms: C_3  and  C_4
REMARK    4  A    between atoms: C_4  and  C_39
REMARK    5  A    between atoms: N_16  and  C_31
REMARK    6  A    between atoms: N_19  and  N_20
REMARK    7  A    between atoms: C_21  and  C_22
REMARK    8  A    between atoms: C_25  and  N_28
REMARK    9  A    between atoms: N_28  and  C_29
REMARK   10  A    between atoms: N_28  and  C_30
REMARK   11  A    between atoms: C_34  and  O_37
REMARK   12  A    between atoms: O_37  and  C_38
REMARK                            x       y       z     vdW  Elec       q    Type
REMARK                         _______ _______ _______ _____ _____    ______ ____
ROOT
ATOM      1  C   UNL     1       1.139  -1.240  -0.720  0.00  0.00    +0.004 C 
ATOM      2  C   UNL     1       1.462  -1.282  -2.211  0.00  0.00    +0.047 C 
ATOM      3  C   UNL     1       2.940  -1.464  -2.427  0.00  0.00    -0.037 A 
ATOM      4  C   UNL     1       3.573  -0.847  -3.487  0.00  0.00    +0.004 A 
ATOM      5  C   UNL     1       4.932  -1.023  -3.680  0.00  0.00    +0.000 A 
ATOM      6  C   UNL     1       5.666  -1.816  -2.817  0.00  0.00    +0.001 A 
ATOM      7  C   UNL     1       5.045  -2.438  -1.752  0.00  0.00    +0.010 A 
ATOM      8  C   UNL     1       3.678  -2.262  -1.552  0.00  0.00    +0.004 A 
ATOM      9  C   UNL     1       2.986  -2.908  -0.413  0.00  0.00    +0.084 A 
ATOM     10  C   UNL     1       1.753  -2.415  -0.012  0.00  0.00    +0.050 A 
ATOM     11  C   UNL     1       1.096  -3.032   1.060  0.00  0.00    +0.264 A 
ATOM     12  O   UNL     1       0.008  -2.629   1.439  0.00  0.00    -0.267 OA
ATOM     13  N   UNL     1       1.691  -4.083   1.664  0.00  0.00    -0.248 N 
ATOM     14  C   UNL     1       2.907  -4.524   1.234  0.00  0.00    +0.223 A 
ATOM     15  N   UNL     1       3.530  -3.949   0.225  0.00  0.00    -0.214 NA
ATOM     16  N   UNL     1       3.496  -5.589   1.865  0.00  0.00    -0.206 N 
ATOM     17  C   UNL     1      -0.379  -1.276  -0.532  0.00  0.00    +0.017 C 
ATOM     18  H   UNL     1       3.033  -6.039   2.590  0.00  0.00    +0.177 HD
ENDROOT
BRANCH  13  19
ATOM     19  C   UNL     1       1.056  -4.722   2.738  0.00  0.00    +0.053 A 
ATOM     20  C   UNL     1       0.200  -5.790   2.503  0.00  0.00    +0.030 A 
ATOM     21  C   UNL     1      -0.425  -6.420   3.561  0.00  0.00    +0.047 A 
ATOM     22  C   UNL     1      -0.199  -5.985   4.859  0.00  0.00    +0.120 A 
ATOM     23  C   UNL     1       0.655  -4.917   5.094  0.00  0.00    +0.047 A 
ATOM     24  C   UNL     1       1.286  -4.291   4.038  0.00  0.00    +0.030 A 
BRANCH  22  25
ATOM     25  O   UNL     1      -0.816  -6.604   5.900  0.00  0.00    -0.495 OA
ATOM     26  C   UNL     1      -0.538  -6.104   7.209  0.00  0.00    +0.277 C 
ENDBRANCH  22  25
ENDBRANCH  13  19
BRANCH  16  27
ATOM     27  N   UNL     1       4.765  -6.027   1.465  0.00  0.00    -0.188 NA
ATOM     28  C   UNL     1       5.322  -7.036   2.062  0.00  0.00    +0.138 C 
BRANCH  28  29
ATOM     29  C   UNL     1       6.657  -7.497   1.641  0.00  0.00    -0.005 A 
ATOM     30  C   UNL     1       7.327  -6.845   0.602  0.00  0.00    +0.011 A 
ATOM     31  C   UNL     1       8.575  -7.279   0.210  0.00  0.00    +0.024 A 
ATOM     32  C   UNL     1       9.167  -8.364   0.848  0.00  0.00    +0.029 A 
ATOM     33  C   UNL     1       8.503  -9.015   1.882  0.00  0.00    +0.024 A 
ATOM     34  C   UNL     1       7.258  -8.582   2.283  0.00  0.00    +0.011 A 
BRANCH  32  35
ATOM     35  N   UNL     1      10.431  -8.800   0.449  0.00  0.00    -0.336 N 
ATOM     36  C   UNL     1      11.131  -8.116  -0.641  0.00  0.00    +0.129 C 
ATOM     37  C   UNL     1      11.057  -9.943   1.119  0.00  0.00    +0.129 C 
ENDBRANCH  32  35
ENDBRANCH  28  29
ENDBRANCH  16  27
BRANCH   1  38
ATOM     38  C   UNL     1       1.691   0.054  -0.120  0.00  0.00    +0.011 C 
BRANCH  38  40
ATOM     39  C   UNL     1       1.897   1.409   1.969  0.00  0.00    +0.004 C 
ATOM     40  C   UNL     1       1.345   0.115   1.369  0.00  0.00    -0.003 C 
ENDBRANCH  38  40
ENDBRANCH   1  38
TORSDOF 7
