REMARK  Name = ZINC05690039
REMARK  7 active torsions:
REMARK  status: ('A' for Active; 'I' for Inactive)
REMARK    1  A    between atoms: C_1  and  C_2
REMARK    2  A    between atoms: C_2  and  C_3
REMARK    3  A    between atoms: C_2  and  N_4
REMARK    4  A    between atoms: C_5  and  C_7
REMARK    5  A    between atoms: C_7  and  C_22
REMARK    6  A    between atoms: C_8  and  C_9
REMARK    7  A    between atoms: C_12  and  C_14
REMARK                            x       y       z     vdW  Elec       q    Type
REMARK                         _______ _______ _______ _____ _____    ______ ____
ROOT
ATOM      1  C   UNL     1      -2.366  -4.448  -1.225  0.00  0.00    +0.130 A 
ATOM      2  C   UNL     1      -2.592  -5.654  -1.873  0.00  0.00    +0.050 A 
ATOM      3  C   UNL     1      -1.341  -6.197  -2.162  0.00  0.00    +0.050 A 
ATOM      4  C   UNL     1      -0.397  -5.311  -1.685  0.00  0.00    +0.137 A 
ATOM      5  O   UNL     1      -1.032  -4.264  -1.130  0.00  0.00    -0.455 OA
ENDROOT
BRANCH   4   6
ATOM      6  C   UNL     1       1.066  -5.482  -1.774  0.00  0.00    +0.037 A 
ATOM      7  C   UNL     1       1.658  -6.684  -1.376  0.00  0.00    +0.033 A 
ATOM      8  C   UNL     1       3.027  -6.837  -1.462  0.00  0.00    +0.042 A 
ATOM      9  C   UNL     1       3.814  -5.802  -1.940  0.00  0.00    +0.021 A 
ATOM     10  C   UNL     1       3.235  -4.609  -2.336  0.00  0.00    +0.022 A 
ATOM     11  C   UNL     1       1.866  -4.444  -2.261  0.00  0.00    +0.052 A 
ATOM     12 CL   UNL     1       1.141  -2.950  -2.765  0.00  0.00    -0.083 Cl
ATOM     13 CL   UNL     1       3.764  -8.329  -0.969  0.00  0.00    -0.084 Cl
ENDBRANCH   4   6
BRANCH   1  15
ATOM     14  C   UNL     1      -2.989  -2.377  -0.142  0.00  0.00    +0.117 C 
ATOM     15  C   UNL     1      -3.354  -3.569  -0.754  0.00  0.00    +0.070 C 
BRANCH  14  17
ATOM     16  N   UNL     1      -0.994  -2.619   1.240  0.00  0.00    -0.308 N 
ATOM     17  C   UNL     1      -1.575  -2.101   0.140  0.00  0.00    +0.255 C 
ATOM     18  O   UNL     1      -0.928  -1.404  -0.619  0.00  0.00    -0.269 OA
ATOM     19  H   UNL     1      -1.488  -3.233   1.806  0.00  0.00    +0.149 HD
BRANCH  16  21
ATOM     20  C   UNL     1       0.565  -2.314   3.100  0.00  0.00    +0.027 C 
ATOM     21  C   UNL     1       0.383  -2.256   1.582  0.00  0.00    +0.067 C 
ATOM     22  C   UNL     1       1.350  -3.236   0.914  0.00  0.00    +0.027 C 
ENDBRANCH  16  21
ENDBRANCH  14  17
BRANCH  14  23
ATOM     23  C   UNL     1      -3.991  -1.418   0.213  0.00  0.00    +0.104 C 
ATOM     24  N   UNL     1      -4.785  -0.657   0.495  0.00  0.00    -0.191 NA
ENDBRANCH  14  23
ENDBRANCH   1  15
TORSDOF 5
