REMARK  Name = ZINC20568384
REMARK  9 active torsions:
REMARK  status: ('A' for Active; 'I' for Inactive)
REMARK    1  A    between atoms: C_1  and  C_2
REMARK    2  A    between atoms: C_7  and  C_9
REMARK    3  A    between atoms: C_7  and  C_10
REMARK    4  A    between atoms: N_14  and  C_15
REMARK    5  A    between atoms: C_16  and  C_39
REMARK    6  A    between atoms: C_17  and  C_33
REMARK    7  A    between atoms: C_18  and  C_27
REMARK    8  A    between atoms: N_19  and  C_20
REMARK    9  A    between atoms: C_20  and  C_21
REMARK                            x       y       z     vdW  Elec       q    Type
REMARK                         _______ _______ _______ _____ _____    ______ ____
ROOT
ATOM      1  C   UNL     1      -4.717  -0.068   0.881  0.00  0.00    +0.123 A 
ATOM      2  C   UNL     1      -5.947  -0.700   1.005  0.00  0.00    +0.100 A 
ATOM      3  C   UNL     1      -6.793   0.202   1.804  0.00  0.00    +0.027 A 
ATOM      4  C   UNL     1      -6.013   1.302   2.098  0.00  0.00    +0.060 A 
ATOM      5  N   UNL     1      -4.769   1.119   1.540  0.00  0.00    -0.323 N 
ENDROOT
BRANCH   1  18
ATOM      6  C   UNL     1      -3.921  -3.922  -2.411  0.00  0.00    +0.034 C 
ATOM      7  C   UNL     1      -2.804  -2.884  -2.580  0.00  0.00    +0.040 C 
ATOM      8  C   UNL     1      -1.400  -3.544  -2.597  0.00  0.00    +0.033 C 
ATOM      9  C   UNL     1      -0.527  -2.304  -2.267  0.00  0.00    +0.011 C 
ATOM     10  C   UNL     1      -0.491  -1.408  -3.499  0.00  0.00    +0.011 C 
ATOM     11  C   UNL     1      -1.851  -1.054  -4.073  0.00  0.00    -0.032 C 
ATOM     12  C   UNL     1      -2.933  -2.104  -3.890  0.00  0.00    +0.034 C 
ATOM     13  C   UNL     1      -2.330   0.290  -3.506  0.00  0.00    +0.011 C 
ATOM     14  C   UNL     1      -1.667  -0.847  -5.597  0.00  0.00    +0.011 C 
ATOM     15  C   UNL     1      -1.359  -1.613  -1.162  0.00  0.00    +0.121 C 
ATOM     16  N   UNL     1      -2.766  -1.928  -1.456  0.00  0.00    -0.359 N 
ATOM     17  C   UNL     1      -3.794  -1.452  -0.831  0.00  0.00    +0.160 C 
ATOM     18  N   UNL     1      -3.619  -0.566   0.203  0.00  0.00    -0.292 N 
ATOM     19  H   UNL     1      -2.724  -0.289   0.458  0.00  0.00    +0.154 HD
ENDBRANCH   1  18
BRANCH   4  20
ATOM     20  C   UNL     1      -6.441   2.475   2.884  0.00  0.00    -0.001 A 
ATOM     21  C   UNL     1      -7.556   3.217   2.487  0.00  0.00    +0.010 A 
ATOM     22  C   UNL     1      -7.949   4.313   3.226  0.00  0.00    +0.001 A 
ATOM     23  C   UNL     1      -7.243   4.678   4.359  0.00  0.00    +0.000 A 
ATOM     24  C   UNL     1      -6.137   3.948   4.757  0.00  0.00    +0.001 A 
ATOM     25  C   UNL     1      -5.736   2.846   4.031  0.00  0.00    +0.010 A 
ENDBRANCH   4  20
BRANCH   3  26
ATOM     26  C   UNL     1      -8.199  -0.026   2.209  0.00  0.00    -0.015 A 
ATOM     27  C   UNL     1      -9.222   0.742   1.653  0.00  0.00    +0.008 A 
ATOM     28  C   UNL     1     -10.530   0.525   2.035  0.00  0.00    +0.001 A 
ATOM     29  C   UNL     1     -10.828  -0.451   2.969  0.00  0.00    +0.000 A 
ATOM     30  C   UNL     1      -9.818  -1.216   3.525  0.00  0.00    +0.001 A 
ATOM     31  C   UNL     1      -8.507  -1.013   3.146  0.00  0.00    +0.008 A 
ENDBRANCH   3  26
BRANCH   2  32
ATOM     32  C   UNL     1      -6.317  -1.974   0.466  0.00  0.00    +0.103 C 
ATOM     33  N   UNL     1      -6.611  -2.984   0.037  0.00  0.00    -0.191 NA
ENDBRANCH   2  32
BRANCH   5  34
ATOM     34  C   UNL     1      -3.660   2.070   1.639  0.00  0.00    +0.158 C 
BRANCH  34  35
ATOM     35  C   UNL     1      -3.784   3.103   0.549  0.00  0.00    -0.028 A 
ATOM     36  C   UNL     1      -3.292   2.836  -0.715  0.00  0.00    +0.005 A 
ATOM     37  C   UNL     1      -3.406   3.783  -1.715  0.00  0.00    +0.000 A 
ATOM     38  C   UNL     1      -4.012   4.997  -1.452  0.00  0.00    +0.000 A 
ATOM     39  C   UNL     1      -4.505   5.263  -0.188  0.00  0.00    +0.000 A 
ATOM     40  C   UNL     1      -4.395   4.314   0.811  0.00  0.00    +0.005 A 
ENDBRANCH  34  35
ENDBRANCH   5  34
TORSDOF 6
