REMARK  Name = ZINC06952908
REMARK  4 active torsions:
REMARK  status: ('A' for Active; 'I' for Inactive)
REMARK    1  A    between atoms: C_1  and  O_2
REMARK    2  A    between atoms: O_2  and  C_3
REMARK    3  A    between atoms: C_6  and  N_26
REMARK    4  A    between atoms: C_10  and  C_19
REMARK                            x       y       z     vdW  Elec       q    Type
REMARK                         _______ _______ _______ _____ _____    ______ ____
ROOT
ATOM      1  C   UNL     1       1.866  -2.869   1.392  0.00  0.00    +0.141 A 
ATOM      2  C   UNL     1       1.174  -3.706   0.477  0.00  0.00    +0.050 A 
ATOM      3  C   UNL     1       0.571  -3.159  -0.641  0.00  0.00    +0.037 A 
ATOM      4  C   UNL     1       0.647  -1.802  -0.872  0.00  0.00    +0.132 A 
ATOM      5  C   UNL     1       1.325  -0.967   0.009  0.00  0.00    +0.014 A 
ATOM      6  C   UNL     1       1.941  -1.495   1.144  0.00  0.00    +0.076 A 
ATOM      7  N   UNL     1       2.643  -0.701   2.055  0.00  0.00    -0.334 N 
ATOM      8  C   UNL     1       2.174   0.685   2.058  0.00  0.00    +0.105 C 
ATOM      9  C   UNL     1       2.306   1.269   0.649  0.00  0.00    +0.029 C 
ATOM     10  C   UNL     1       1.366   0.500  -0.302  0.00  0.00    +0.051 C 
ATOM     11  C   UNL     1       0.011   1.131  -0.074  0.00  0.00    -0.023 C 
ATOM     12  C   UNL     1       0.144   2.322   0.453  0.00  0.00    -0.030 C 
ATOM     13  C   UNL     1       1.610   2.659   0.644  0.00  0.00    +0.033 C 
ATOM     14  H   UNL     1       3.636  -0.746   1.883  0.00  0.00    +0.147 HD
ENDROOT
BRANCH   8  15
ATOM     15  C   UNL     1       0.729   0.726   2.485  0.00  0.00    -0.027 A 
ATOM     16  C   UNL     1       0.186   1.898   2.975  0.00  0.00    +0.006 A 
ATOM     17  C   UNL     1      -1.140   1.937   3.363  0.00  0.00    +0.015 A 
ATOM     18  C   UNL     1      -1.921   0.800   3.269  0.00  0.00    +0.018 A 
ATOM     19  C   UNL     1      -1.377  -0.375   2.783  0.00  0.00    +0.015 A 
ATOM     20  C   UNL     1      -0.052  -0.412   2.391  0.00  0.00    +0.006 A 
ATOM     21 BR   UNL     1      -3.734   0.851   3.805  0.00  0.00    -0.050 Br
ENDBRANCH   8  15
BRANCH   4  22
ATOM     22  N   UNL     1      -0.002  -1.227  -2.071  0.00  0.00    +0.057 N 
ATOM     23  O   UNL     1      -0.598  -1.952  -2.848  0.00  0.00    -0.126 OA
ATOM     24  O   UNL     1       0.060  -0.029  -2.282  0.00  0.00    -0.126 OA
ENDBRANCH   4  22
BRANCH   1  26
ATOM     25  C   UNL     1       2.352  -4.803   2.688  0.00  0.00    +0.277 C 
ATOM     26  O   UNL     1       2.466  -3.392   2.495  0.00  0.00    -0.493 OA
ENDBRANCH   1  26
TORSDOF 3
