REMARK  Name = ZINC17147086
REMARK  5 active torsions:
REMARK  status: ('A' for Active; 'I' for Inactive)
REMARK    1  A    between atoms: C_4  and  C_7
REMARK    2  A    between atoms: C_7  and  C_28
REMARK    3  A    between atoms: C_9  and  C_11
REMARK    4  A    between atoms: N_13  and  N_14
REMARK    5  A    between atoms: C_18  and  N_25
REMARK                            x       y       z     vdW  Elec       q    Type
REMARK                         _______ _______ _______ _____ _____    ______ ____
ROOT
ATOM      1  C   UNL     1       4.470  -2.298  -1.405  0.00  0.00    +0.236 C 
ATOM      2  O   UNL     1       5.238  -1.505  -1.906  0.00  0.00    -0.274 OA
ATOM      3  N   UNL     1       4.442  -3.575  -1.837  0.00  0.00    -0.206 N 
ATOM      4  H   UNL     1       3.827  -4.209  -1.437  0.00  0.00    +0.177 HD
ENDROOT
BRANCH   3   5
ATOM      5  N   UNL     1       5.300  -3.985  -2.866  0.00  0.00    -0.175 NA
ATOM      6  C   UNL     1       5.272  -5.226  -3.287  0.00  0.00    +0.153 C 
ATOM      7  C   UNL     1       6.102  -5.837  -4.351  0.00  0.00    +0.030 A 
ATOM      8  C   UNL     1       7.099  -5.340  -5.184  0.00  0.00    +0.044 A 
ATOM      9  C   UNL     1       7.704  -6.176  -6.101  0.00  0.00    +0.127 A 
ATOM     10  C   UNL     1       7.319  -7.503  -6.191  0.00  0.00    +0.034 A 
ATOM     11  C   UNL     1       6.330  -8.005  -5.369  0.00  0.00    +0.026 A 
ATOM     12  C   UNL     1       5.710  -7.178  -4.438  0.00  0.00    +0.043 A 
ATOM     13  N   UNL     1       4.706  -7.425  -3.508  0.00  0.00    -0.280 N 
ATOM     14  C   UNL     1       4.411  -6.322  -2.799  0.00  0.00    +0.269 C 
ATOM     15  O   UNL     1       3.579  -6.240  -1.915  0.00  0.00    -0.268 OA
ATOM     16  H   UNL     1       4.277  -8.286  -3.383  0.00  0.00    +0.155 HD
BRANCH   9  17
ATOM     17  N   UNL     1       8.765  -5.653  -6.990  0.00  0.00    +0.056 N 
ATOM     18  O   UNL     1       9.102  -4.494  -6.913  0.00  0.00    -0.126 OA
ATOM     19  O   UNL     1       9.296  -6.384  -7.794  0.00  0.00    -0.126 OA
ENDBRANCH   9  17
ENDBRANCH   3   5
BRANCH   1  22
ATOM     20  C   UNL     1       2.114  -1.482  -0.681  0.00  0.00    +0.033 C 
ATOM     21  C   UNL     1       3.111  -0.391  -0.285  0.00  0.00    +0.031 C 
ATOM     22  C   UNL     1       3.547  -1.857  -0.298  0.00  0.00    +0.093 C 
BRANCH  20  26
ATOM     23  C   UNL     1      -0.983  -2.432   2.104  0.00  0.00    +0.000 A 
ATOM     24  C   UNL     1      -1.280  -1.722   0.956  0.00  0.00    +0.000 A 
ATOM     25  C   UNL     1      -0.278  -1.414   0.054  0.00  0.00    +0.004 A 
ATOM     26  C   UNL     1       1.022  -1.817   0.302  0.00  0.00    -0.036 A 
ATOM     27  C   UNL     1       1.318  -2.526   1.451  0.00  0.00    +0.004 A 
ATOM     28  C   UNL     1       0.316  -2.834   2.351  0.00  0.00    +0.000 A 
ENDBRANCH  20  26
BRANCH  20  29
ATOM     29  C   UNL     1       1.733  -1.583  -2.135  0.00  0.00    -0.036 A 
ATOM     30  C   UNL     1       1.689  -0.445  -2.919  0.00  0.00    +0.004 A 
ATOM     31  C   UNL     1       1.340  -0.537  -4.253  0.00  0.00    +0.000 A 
ATOM     32  C   UNL     1       1.035  -1.768  -4.804  0.00  0.00    +0.000 A 
ATOM     33  C   UNL     1       1.079  -2.906  -4.021  0.00  0.00    +0.000 A 
ATOM     34  C   UNL     1       1.433  -2.814  -2.688  0.00  0.00    +0.004 A 
ENDBRANCH  20  29
ENDBRANCH   1  22
TORSDOF 5
