REMARK  Name = ZINC35345710
REMARK  4 active torsions:
REMARK  status: ('A' for Active; 'I' for Inactive)
REMARK    1  A    between atoms: C_5  and  O_8
REMARK    2  A    between atoms: C_6  and  N_7
REMARK    3  A    between atoms: O_8  and  C_9
REMARK    4  A    between atoms: C_9  and  C_10
REMARK                            x       y       z     vdW  Elec       q    Type
REMARK                         _______ _______ _______ _____ _____    ______ ____
ROOT
ATOM      1  C   UNL     1      -0.017   1.384   0.010  0.00  0.00    +0.032 A 
ATOM      2  C   UNL     1       1.168   2.087   0.002  0.00  0.00    -0.015 A 
ATOM      3  C   UNL     1       2.390   1.428  -0.013  0.00  0.00    +0.041 A 
ATOM      4  C   UNL     1       2.408   0.034  -0.021  0.00  0.00    +0.071 A 
ATOM      5  C   UNL     1       1.222  -0.677  -0.014  0.00  0.00    +0.143 A 
ATOM      6  C   UNL     1       0.002  -0.004   0.002  0.00  0.00    +0.067 A 
ATOM      7  N   UNL     1       3.438   2.353  -0.018  0.00  0.00    -0.285 N 
ATOM      8  C   UNL     1       2.995   3.621  -0.007  0.00  0.00    +0.222 C 
ATOM      9  O   UNL     1       3.679   4.623  -0.009  0.00  0.00    -0.275 OA
ATOM     10  C   UNL     1       1.482   3.566   0.007  0.00  0.00    +0.133 C 
ATOM     11  H   UNL     1       4.376   2.107  -0.028  0.00  0.00    +0.155 HD
ENDROOT
BRANCH   6  12
ATOM     12  N   UNL     1      -1.200  -0.725   0.009  0.00  0.00    -0.355 N 
ATOM     13  H   UNL     1      -2.048  -0.254   0.019  0.00  0.00    +0.142 HD
ATOM     14  H   UNL     1      -1.184  -1.695   0.004  0.00  0.00    +0.142 HD
ENDBRANCH   6  12
BRANCH   5  15
ATOM     15  O   UNL     1       1.247  -2.037  -0.022  0.00  0.00    -0.488 OA
BRANCH  15  16
ATOM     16  C   UNL     1       2.532  -2.662  -0.038  0.00  0.00    +0.260 C 
BRANCH  16  17
ATOM     17  C   UNL     1       2.358  -4.182  -0.046  0.00  0.00    +0.156 C 
ATOM     18  C   UNL     1       3.731  -4.853   0.062  0.00  0.00    +0.035 C 
ATOM     19  C   UNL     1       3.554  -6.373  -0.006  0.00  0.00    +0.005 C 
ATOM     20  C   UNL     1       2.832  -6.734  -1.308  0.00  0.00    +0.028 C 
ATOM     21  C   UNL     1       1.494  -5.990  -1.363  0.00  0.00    +0.160 C 
ATOM     22  O   UNL     1       1.728  -4.584  -1.263  0.00  0.00    -0.373 OA
ENDBRANCH  16  17
ENDBRANCH  15  16
ENDBRANCH   5  15
TORSDOF 4
