REMARK  Name = ZINC02449796
REMARK  10 active torsions:
REMARK  status: ('A' for Active; 'I' for Inactive)
REMARK    1  A    between atoms: C_1  and  C_2
REMARK    2  A    between atoms: C_2  and  O_3
REMARK    3  A    between atoms: O_3  and  C_4
REMARK    4  A    between atoms: C_9  and  C_10
REMARK    5  A    between atoms: C_27  and  C_29
REMARK    6  A    between atoms: C_32  and  O_37
REMARK    7  A    between atoms: C_33  and  O_35
REMARK    8  A    between atoms: O_35  and  C_36
REMARK    9  A    between atoms: O_37  and  C_38
REMARK   10  A    between atoms: C_38  and  C_39
REMARK                            x       y       z     vdW  Elec       q    Type
REMARK                         _______ _______ _______ _____ _____    ______ ____
ROOT
ATOM      1  C   UNL     1       2.503  -0.996   3.282  0.00  0.00    +0.238 C 
ATOM      2  C   UNL     1       3.856  -0.564   2.797  0.00  0.00    +0.027 C 
ATOM      3  C   UNL     1       4.955  -1.291   3.086  0.00  0.00    +0.083 C 
ATOM      4  C   UNL     1       4.768  -2.515   3.905  0.00  0.00    +0.042 A 
ATOM      5  C   UNL     1       5.752  -3.492   3.984  0.00  0.00    +0.013 A 
ATOM      6  C   UNL     1       5.535  -4.617   4.757  0.00  0.00    +0.001 A 
ATOM      7  C   UNL     1       4.345  -4.770   5.447  0.00  0.00    +0.004 A 
ATOM      8  C   UNL     1       3.361  -3.801   5.374  0.00  0.00    +0.046 A 
ATOM      9  C   UNL     1       3.565  -2.669   4.605  0.00  0.00    +0.131 A 
ATOM     10  O   UNL     1       2.622  -1.702   4.518  0.00  0.00    -0.479 OA
ATOM     11  N   UNL     1       6.184  -0.921   2.651  0.00  0.00    -0.213 NA
ATOM     12  C   UNL     1       6.424   0.151   1.934  0.00  0.00    +0.237 C 
ATOM     13  N   UNL     1       7.569   0.661   1.427  0.00  0.00    -0.205 NA
ATOM     14  C   UNL     1       7.325   1.763   0.773  0.00  0.00    +0.203 C 
ATOM     15  N   UNL     1       5.991   2.033   0.819  0.00  0.00    -0.251 N 
ATOM     16  N   UNL     1       5.405   1.004   1.559  0.00  0.00    -0.208 N 
ATOM     17  C   UNL     1       4.031   0.694   1.974  0.00  0.00    +0.159 C 
ATOM     18  H   UNL     1       5.538   2.790   0.416  0.00  0.00    +0.171 HD
ENDROOT
BRANCH   1  24
ATOM     19  C   UNL     1       0.493  -1.891   2.079  0.00  0.00    +0.127 A 
ATOM     20  C   UNL     1      -0.087  -2.716   1.127  0.00  0.00    +0.046 A 
ATOM     21  C   UNL     1       0.706  -3.545   0.357  0.00  0.00    +0.004 A 
ATOM     22  C   UNL     1       2.078  -3.552   0.535  0.00  0.00    +0.001 A 
ATOM     23  C   UNL     1       2.658  -2.730   1.484  0.00  0.00    +0.011 A 
ATOM     24  C   UNL     1       1.869  -1.895   2.252  0.00  0.00    +0.039 A 
BRANCH  19  25
ATOM     25  O   UNL     1      -0.285  -1.074   2.837  0.00  0.00    -0.492 OA
BRANCH  25  27
ATOM     26  C   UNL     1      -2.406  -0.231   3.633  0.00  0.00    +0.048 C 
ATOM     27  C   UNL     1      -1.700  -1.196   2.678  0.00  0.00    +0.225 C 
ENDBRANCH  25  27
ENDBRANCH  19  25
ENDBRANCH   1  24
BRANCH  17  28
ATOM     28  C   UNL     1       3.184   0.566   0.734  0.00  0.00    -0.017 A 
ATOM     29  C   UNL     1       3.610  -0.229  -0.314  0.00  0.00    +0.009 A 
ATOM     30  C   UNL     1       2.837  -0.350  -1.453  0.00  0.00    +0.050 A 
ATOM     31  C   UNL     1       1.630   0.326  -1.546  0.00  0.00    +0.162 A 
ATOM     32  C   UNL     1       1.201   1.125  -0.491  0.00  0.00    +0.162 A 
ATOM     33  C   UNL     1       1.979   1.238   0.650  0.00  0.00    +0.055 A 
BRANCH  32  34
ATOM     34  O   UNL     1       0.018   1.790  -0.578  0.00  0.00    -0.491 OA
ATOM     35  C   UNL     1      -0.305   2.682   0.492  0.00  0.00    +0.277 C 
ENDBRANCH  32  34
BRANCH  31  36
ATOM     36  O   UNL     1       0.868   0.209  -2.666  0.00  0.00    -0.489 OA
BRANCH  36  37
ATOM     37  C   UNL     1       1.372  -0.628  -3.709  0.00  0.00    +0.226 C 
ATOM     38  C   UNL     1       0.385  -0.636  -4.878  0.00  0.00    +0.048 C 
ENDBRANCH  36  37
ENDBRANCH  31  36
ENDBRANCH  17  28
TORSDOF 7
