REMARK  Name = ZINC11591537
REMARK  5 active torsions:
REMARK  status: ('A' for Active; 'I' for Inactive)
REMARK    1  A    between atoms: C_4  and  S_7
REMARK    2  A    between atoms: S_7  and  C_8
REMARK    3  A    between atoms: C_13  and  N_14
REMARK    4  A    between atoms: C_15  and  C_17
REMARK    5  A    between atoms: C_17  and  N_18
REMARK                            x       y       z     vdW  Elec       q    Type
REMARK                         _______ _______ _______ _____ _____    ______ ____
ROOT
ATOM      1  C   UNL     1      -0.717  10.862  -0.124  0.00  0.00    +0.214 C 
ENDROOT
BRANCH   1   2
ATOM      2  N   UNL     1      -1.399  12.158  -0.162  0.00  0.00    -0.215 N 
ATOM      3  C   UNL     1      -1.658  12.845  -1.294  0.00  0.00    +0.252 C 
ATOM      4  O   UNL     1      -1.383  12.521  -2.429  0.00  0.00    -0.272 OA
ATOM      5  C   UNL     1      -2.366  14.104  -0.848  0.00  0.00    +0.144 C 
ATOM      6  C   UNL     1      -1.558  15.335  -1.247  0.00  0.00    +0.081 C 
ATOM      7  C   UNL     1      -2.425  16.578  -1.008  0.00  0.00    +0.232 C 
ATOM      8  O   UNL     1      -3.560  16.512  -1.873  0.00  0.00    -0.492 OA
ATOM      9  C   UNL     1      -4.275  15.358  -1.904  0.00  0.00    +0.126 A 
ATOM     10  C   UNL     1      -3.751  14.166  -1.428  0.00  0.00    +0.027 A 
ATOM     11  C   UNL     1      -4.511  13.010  -1.485  0.00  0.00    +0.010 A 
ATOM     12  C   UNL     1      -5.789  13.040  -2.009  0.00  0.00    +0.001 A 
ATOM     13  C   UNL     1      -6.315  14.229  -2.480  0.00  0.00    +0.004 A 
ATOM     14  C   UNL     1      -5.562  15.384  -2.428  0.00  0.00    +0.046 A 
ATOM     15  N   UNL     1      -2.427  13.981   0.614  0.00  0.00    -0.281 N 
ATOM     16  C   UNL     1      -1.836  12.810   0.922  0.00  0.00    +0.310 C 
ATOM     17  O   UNL     1      -1.713  12.393   2.057  0.00  0.00    -0.252 OA
ATOM     18  H   UNL     1      -2.815  14.617   1.235  0.00  0.00    +0.152 HD
ENDBRANCH   1   2
BRANCH   1  20
ATOM     19  N   UNL     1      -1.337   8.469  -0.203  0.00  0.00    -0.283 N 
ATOM     20  C   UNL     1      -1.736   9.756  -0.219  0.00  0.00    +0.235 C 
ATOM     21  O   UNL     1      -2.916  10.024  -0.309  0.00  0.00    -0.274 OA
ATOM     22  H   UNL     1      -0.391   8.254  -0.212  0.00  0.00    +0.155 HD
BRANCH  19  28
ATOM     23  C   UNL     1      -1.967   6.176  -0.669  0.00  0.00    +0.034 A 
ATOM     24  C   UNL     1      -2.913   5.160  -0.631  0.00  0.00    +0.017 A 
ATOM     25  C   UNL     1      -4.169   5.405  -0.110  0.00  0.00    +0.001 A 
ATOM     26  C   UNL     1      -4.488   6.660   0.376  0.00  0.00    +0.002 A 
ATOM     27  C   UNL     1      -3.553   7.678   0.342  0.00  0.00    +0.024 A 
ATOM     28  C   UNL     1      -2.288   7.440  -0.174  0.00  0.00    +0.047 A 
BRANCH  23  29
ATOM     29  S   UNL     1      -0.365   5.867  -1.333  0.00  0.00    -0.088 S 
BRANCH  29  33
ATOM     30  C   UNL     1      -0.630   1.632  -2.915  0.00  0.00    +0.000 A 
ATOM     31  C   UNL     1      -0.137   1.864  -1.644  0.00  0.00    +0.001 A 
ATOM     32  C   UNL     1      -0.049   3.154  -1.160  0.00  0.00    +0.015 A 
ATOM     33  C   UNL     1      -0.468   4.220  -1.948  0.00  0.00    +0.013 A 
ATOM     34  C   UNL     1      -0.968   3.982  -3.223  0.00  0.00    +0.015 A 
ATOM     35  C   UNL     1      -1.047   2.690  -3.702  0.00  0.00    +0.001 A 
ENDBRANCH  29  33
ENDBRANCH  23  29
ENDBRANCH  19  28
ENDBRANCH   1  20
TORSDOF 5
