REMARK  Name = ZINC20323951
REMARK  3 active torsions:
REMARK  status: ('A' for Active; 'I' for Inactive)
REMARK    1  A    between atoms: C_1  and  C_2
REMARK    2  A    between atoms: C_12  and  C_16
REMARK    3  A    between atoms: N_17  and  C_18
REMARK                            x       y       z     vdW  Elec       q    Type
REMARK                         _______ _______ _______ _____ _____    ______ ____
ROOT
ATOM      1  C   UNL     1       5.026  -0.044   6.645  0.00  0.00    +0.088 C 
ATOM      2  C   UNL     1       4.032   0.361   5.586  0.00  0.00    +0.129 A 
ATOM      3  N   UNL     1       2.750   0.181   5.829  0.00  0.00    -0.217 NA
ATOM      4  C   UNL     1       1.779   0.498   4.975  0.00  0.00    +0.131 A 
ATOM      5  C   UNL     1       2.202   1.061   3.736  0.00  0.00    +0.051 A 
ATOM      6  C   UNL     1       1.357   1.492   2.634  0.00  0.00    -0.025 A 
ATOM      7  C   UNL     1       1.986   2.000   1.550  0.00  0.00    -0.004 A 
ATOM      8  S   UNL     1       3.717   1.930   1.939  0.00  0.00    -0.073 S 
ATOM      9  C   UNL     1       3.598   1.222   3.550  0.00  0.00    +0.114 A 
ATOM     10  N   UNL     1       4.494   0.879   4.454  0.00  0.00    -0.225 NA
ATOM     11  C   UNL     1       1.355   2.511   0.292  0.00  0.00    +0.046 C 
ATOM     12  C   UNL     1      -0.104   2.038   0.252  0.00  0.00    -0.009 C 
ATOM     13  C   UNL     1      -0.750   2.324   1.611  0.00  0.00    +0.008 C 
ATOM     14  C   UNL     1      -0.166   1.390   2.670  0.00  0.00    +0.037 C 
ATOM     15  C   UNL     1      -0.858   2.789  -0.847  0.00  0.00    +0.008 C 
ATOM     16  N   UNL     1       0.443   0.293   5.271  0.00  0.00    -0.326 N 
ATOM     17  H   UNL     1      -0.325   0.478   4.505  0.00  0.00    +0.148 HD
ENDROOT
BRANCH  16  18
ATOM     18  C   UNL     1       0.052  -0.171   6.604  0.00  0.00    +0.068 C 
ATOM     19  C   UNL     1       0.144  -1.699   6.662  0.00  0.00    +0.003 C 
ATOM     20  C   UNL     1      -0.326  -2.182   8.036  0.00  0.00    -0.081 C 
ATOM     21  N   UNL     1      -1.710  -1.747   8.264  0.00  0.00    +0.379 N 
ATOM     22  C   UNL     1      -1.813  -0.282   8.260  0.00  0.00    -0.081 C 
ATOM     23  C   UNL     1      -1.390   0.258   6.892  0.00  0.00    +0.003 C 
ATOM     24  H   UNL     1      -2.356  -2.146   7.467  0.00  0.00    -0.086 HD
ATOM     25  H   UNL     1      -2.056  -2.121   9.238  0.00  0.00    -0.086 HD
ENDBRANCH  16  18
TORSDOF 1
