REMARK  Name = ZINC35599875
REMARK  7 active torsions:
REMARK  status: ('A' for Active; 'I' for Inactive)
REMARK    1  A    between atoms: C_1  and  C_2
REMARK    2  A    between atoms: C_2  and  CA_3
REMARK    3  A    between atoms: CA_3  and  C_5
REMARK    4  A    between atoms: CA_3  and  N_7
REMARK    5  A    between atoms: C_5  and  O_6
REMARK    6  A    between atoms: N_7  and  C_8
REMARK    7  A    between atoms: C_13  and  N_14
REMARK                            x       y       z     vdW  Elec       q    Type
REMARK                         _______ _______ _______ _____ _____    ______ ____
ROOT
ATOM      1  C   UNL     1       0.585   0.033  -3.677  0.00  0.00    +0.050 A 
ATOM      2  C   UNL     1       1.947  -0.190  -3.780  0.00  0.00    +0.048 A 
ATOM      3  C   UNL     1       2.590  -0.044  -5.008  0.00  0.00    +0.039 A 
ATOM      4  C   UNL     1       1.845   0.326  -6.121  0.00  0.00    -0.016 A 
ATOM      5  C   UNL     1       0.488   0.548  -6.024  0.00  0.00    +0.030 A 
ATOM      6  C   UNL     1      -0.153   0.399  -4.803  0.00  0.00    +0.046 A 
ATOM      7  C   UNL     1       2.815   0.397  -7.278  0.00  0.00    +0.133 C 
ATOM      8  C   UNL     1       4.149   0.028  -6.664  0.00  0.00    +0.222 C 
ATOM      9  O   UNL     1       5.213  -0.040  -7.242  0.00  0.00    -0.275 OA
ATOM     10  N   UNL     1       3.932  -0.210  -5.360  0.00  0.00    -0.285 N 
ATOM     11  H   UNL     1       4.627  -0.468  -4.734  0.00  0.00    +0.155 HD
ENDROOT
BRANCH   6  12
ATOM     12  N   UNL     1      -1.534   0.619  -4.700  0.00  0.00    -0.357 N 
ATOM     13  H   UNL     1      -1.979   0.517  -3.844  0.00  0.00    +0.142 HD
ATOM     14  H   UNL     1      -2.044   0.872  -5.485  0.00  0.00    +0.142 HD
ENDBRANCH   6  12
BRANCH   1  15
ATOM     15  N   UNL     1      -0.055  -0.114  -2.441  0.00  0.00    -0.337 N 
ATOM     16  H   UNL     1      -1.010   0.038  -2.368  0.00  0.00    +0.146 HD
BRANCH  15  17
ATOM     17  CA  UNL     1       0.718  -0.497  -1.257  0.00  0.00    +0.095 C 
BRANCH  17  19
ATOM     18  C   UNL     1      -0.019   1.526   0.010  0.00  0.00    +0.006 C 
ATOM     19  C   UNL     1       0.002  -0.004   0.002  0.00  0.00    +0.021 C 
ENDBRANCH  17  19
BRANCH  17  20
ATOM     20  C   UNL     1       0.849  -2.021  -1.205  0.00  0.00    +0.178 C 
BRANCH  20  21
ATOM     21  O   UNL     1      -0.442  -2.604  -1.018  0.00  0.00    -0.393 OA
ATOM     22  H   UNL     1      -0.435  -3.570  -0.976  0.00  0.00    +0.209 HD
ENDBRANCH  20  21
ENDBRANCH  17  20
ENDBRANCH  15  17
ENDBRANCH   1  15
TORSDOF 6
