REMARK  Name = ZINC30961508
REMARK  14 active torsions:
REMARK  status: ('A' for Active; 'I' for Inactive)
REMARK    1  A    between atoms: C_1  and  C_2
REMARK    2  A    between atoms: C_2  and  N_3
REMARK    3  A    between atoms: N_3  and  C_4
REMARK    4  A    between atoms: N_3  and  C_6
REMARK    5  A    between atoms: C_4  and  C_5
REMARK    6  A    between atoms: C_9  and  C_15
REMARK    7  A    between atoms: C_11  and  N_12
REMARK    8  A    between atoms: N_16  and  N_17
REMARK    9  A    between atoms: C_18  and  C_20
REMARK   10  A    between atoms: C_20  and  C_22
REMARK   11  A    between atoms: C_20  and  N_25
REMARK   12  A    between atoms: C_22  and  C_23
REMARK   13  A    between atoms: C_22  and  C_24
REMARK   14  A    between atoms: C_26  and  C_28
REMARK                            x       y       z     vdW  Elec       q    Type
REMARK                         _______ _______ _______ _____ _____    ______ ____
ROOT
ATOM      1  N   UNL     1      -4.048  -3.218   1.171  0.00  0.00    -0.205 N 
ATOM      2  C   UNL     1      -3.118  -2.243   1.159  0.00  0.00    +0.253 C 
ATOM      3  O   UNL     1      -1.968  -2.498   1.447  0.00  0.00    -0.272 OA
ATOM      4  H   UNL     1      -5.109  -2.968   1.023  0.00  0.00    +0.177 HD
ENDROOT
BRANCH   1   6
ATOM      5  C   UNL     1      -4.554  -5.494   1.343  0.00  0.00    +0.138 C 
ATOM      6  N   UNL     1      -3.664  -4.550   1.372  0.00  0.00    -0.188 NA
BRANCH   5  10
ATOM      7  C   UNL     1      -8.321  -4.803  -0.489  0.00  0.00    +0.060 A 
ATOM      8  C   UNL     1      -7.313  -3.850  -0.595  0.00  0.00    +0.026 A 
ATOM      9  C   UNL     1      -6.091  -4.069   0.002  0.00  0.00    +0.011 A 
ATOM     10  C   UNL     1      -5.862  -5.254   0.707  0.00  0.00    -0.003 A 
ATOM     11  C   UNL     1      -6.877  -6.208   0.811  0.00  0.00    +0.044 A 
ATOM     12  C   UNL     1      -8.098  -5.981   0.216  0.00  0.00    +0.148 A 
BRANCH  12  13
ATOM     13  N   UNL     1      -9.175  -6.991   0.327  0.00  0.00    +0.058 N 
ATOM     14  O   UNL     1      -8.980  -8.023   0.944  0.00  0.00    -0.126 OA
ATOM     15  O   UNL     1     -10.255  -6.790  -0.199  0.00  0.00    -0.126 OA
ENDBRANCH  12  13
BRANCH   7  16
ATOM     16  N   UNL     1      -9.559  -4.575  -1.091  0.00  0.00    -0.329 N 
BRANCH  16  18
ATOM     17  C   UNL     1     -10.529  -3.574   0.922  0.00  0.00    +0.024 C 
ATOM     18  C   UNL     1     -10.190  -3.362  -0.555  0.00  0.00    +0.102 C 
ENDBRANCH  16  18
BRANCH  16  19
ATOM     19  C   UNL     1      -9.427  -4.499  -2.552  0.00  0.00    +0.102 C 
ATOM     20  C   UNL     1     -10.819  -4.454  -3.187  0.00  0.00    +0.024 C 
ENDBRANCH  16  19
ENDBRANCH   7  16
ENDBRANCH   5  10
ENDBRANCH   1   6
BRANCH   2  21
ATOM     21  C   UNL     1      -3.508  -0.835   0.786  0.00  0.00    +0.163 C 
BRANCH  21  22
ATOM     22  N   UNL     1      -2.609   0.112   1.452  0.00  0.00    -0.300 N 
ATOM     23  C   UNL     1      -3.021   1.372   1.698  0.00  0.00    +0.246 C 
ATOM     24  O   UNL     1      -4.137   1.722   1.368  0.00  0.00    -0.270 OA
ATOM     25  H   UNL     1      -1.599  -0.205   1.750  0.00  0.00    +0.150 HD
BRANCH  23  26
ATOM     26  C   UNL     1      -2.115   2.327   2.368  0.00  0.00    +0.055 A 
ATOM     27  C   UNL     1      -0.832   1.927   2.748  0.00  0.00    +0.016 A 
ATOM     28  C   UNL     1       0.011   2.825   3.369  0.00  0.00    +0.021 A 
ATOM     29  C   UNL     1      -0.414   4.119   3.621  0.00  0.00    +0.042 A 
ATOM     30  C   UNL     1      -1.686   4.521   3.252  0.00  0.00    +0.040 A 
ATOM     31  C   UNL     1      -2.540   3.632   2.629  0.00  0.00    +0.054 A 
ATOM     32 CL   UNL     1      -4.135   4.137   2.166  0.00  0.00    -0.083 Cl
ATOM     33 CL   UNL     1       0.654   5.242   4.404  0.00  0.00    -0.083 Cl
ENDBRANCH  23  26
ENDBRANCH  21  22
BRANCH  21  34
ATOM     34  C   UNL     1      -3.401  -0.660  -0.730  0.00  0.00    +0.012 C 
ATOM     35  C   UNL     1      -4.368  -1.622  -1.423  0.00  0.00    +0.009 C 
ATOM     36  C   UNL     1      -3.759   0.780  -1.104  0.00  0.00    +0.009 C 
ENDBRANCH  21  34
ENDBRANCH   2  21
TORSDOF 10
