REMARK  Name = ZINC39440844
REMARK  9 active torsions:
REMARK  status: ('A' for Active; 'I' for Inactive)
REMARK    1  A    between atoms: C_1  and  C_2
REMARK    2  A    between atoms: C_4  and  C_15
REMARK    3  A    between atoms: C_5  and  C_14
REMARK    4  A    between atoms: N_7  and  C_8
REMARK    5  A    between atoms: N_22  and  C_23
REMARK    6  A    between atoms: C_23  and  C_24
REMARK    7  A    between atoms: N_26  and  C_27
REMARK    8  A    between atoms: C_27  and  C_28
REMARK    9  A    between atoms: C_28  and  C_29
REMARK                            x       y       z     vdW  Elec       q    Type
REMARK                         _______ _______ _______ _____ _____    ______ ____
ROOT
ATOM      1  C   UNL     1      -2.565  -0.326  -0.748  0.00  0.00    +0.050 C 
ATOM      2  C   UNL     1      -2.335  -1.072  -2.032  0.00  0.00    +0.204 C 
ATOM      3  O   UNL     1      -1.876  -2.193  -1.979  0.00  0.00    -0.277 OA
ATOM      4  N   UNL     1      -2.616  -0.549  -3.231  0.00  0.00    -0.318 N 
ATOM      5  C   UNL     1      -3.146   0.802  -3.396  0.00  0.00    +0.085 C 
ATOM      6  C   UNL     1      -3.714   1.304  -2.067  0.00  0.00    -0.058 C 
ATOM      7  N   UNL     1      -2.701   1.110  -1.018  0.00  0.00    +0.397 N 
ATOM      8  H   UNL     1      -2.462  -1.089  -4.022  0.00  0.00    +0.149 HD
ATOM      9  H   UNL     1      -1.815   1.481  -1.329  0.00  0.00    -0.080 HD
ENDROOT
BRANCH   1  12
ATOM     10  C   UNL     1       0.169   1.342  -0.273  0.00  0.00    +0.034 C 
ATOM     11  C   UNL     1       0.042  -0.172  -0.090  0.00  0.00    +0.117 C 
ATOM     12  C   UNL     1      -1.397  -0.552   0.177  0.00  0.00    -0.035 C 
ATOM     13  C   UNL     1      -1.443  -1.117   1.365  0.00  0.00    +0.019 C 
ATOM     14  N   UNL     1      -0.197  -1.173   1.958  0.00  0.00    -0.268 N 
ATOM     15  N   UNL     1       0.772  -0.607   1.113  0.00  0.00    -0.247 N 
ATOM     16  C   UNL     1      -2.705  -1.638   2.003  0.00  0.00    +0.062 C 
ATOM     17  H   UNL     1      -0.015  -1.550   2.833  0.00  0.00    +0.170 HD
BRANCH  15  18
ATOM     18  C   UNL     1       2.141  -0.483   1.359  0.00  0.00    +0.048 A 
ATOM     19  C   UNL     1       2.968   0.111   0.414  0.00  0.00    +0.025 A 
ATOM     20  C   UNL     1       4.321   0.233   0.661  0.00  0.00    +0.002 A 
ATOM     21  C   UNL     1       4.854  -0.236   1.848  0.00  0.00    +0.000 A 
ATOM     22  C   UNL     1       4.034  -0.828   2.791  0.00  0.00    +0.002 A 
ATOM     23  C   UNL     1       2.679  -0.947   2.553  0.00  0.00    +0.025 A 
ENDBRANCH  15  18
ENDBRANCH   1  12
BRANCH   7  24
ATOM     24  C   UNL     1      -3.125   1.803   0.206  0.00  0.00    +0.020 C 
BRANCH  24  25
ATOM     25  C   UNL     1      -3.145   3.290  -0.040  0.00  0.00    +0.197 C 
ATOM     26  O   UNL     1      -2.837   3.729  -1.128  0.00  0.00    -0.278 OA
ATOM     27  N   UNL     1      -3.506   4.132   0.949  0.00  0.00    -0.317 N 
ATOM     28  H   UNL     1      -3.753   3.780   1.818  0.00  0.00    +0.149 HD
BRANCH  27  29
ATOM     29  C   UNL     1      -3.526   5.577   0.710  0.00  0.00    +0.109 C 
BRANCH  29  30
ATOM     30  C   UNL     1      -3.968   6.299   1.984  0.00  0.00    +0.056 C 
BRANCH  30  31
ATOM     31  C   UNL     1      -3.988   7.785   1.738  0.00  0.00    -0.021 A 
ATOM     32  C   UNL     1      -5.087   8.557   1.153  0.00  0.00    +0.003 A 
ATOM     33  C   UNL     1      -6.356   8.227   0.673  0.00  0.00    +0.010 A 
ATOM     34  C   UNL     1      -7.168   9.207   0.175  0.00  0.00    +0.001 A 
ATOM     35  C   UNL     1      -6.742  10.527   0.143  0.00  0.00    +0.002 A 
ATOM     36  C   UNL     1      -5.494  10.875   0.612  0.00  0.00    +0.026 A 
ATOM     37  C   UNL     1      -4.651   9.894   1.123  0.00  0.00    +0.047 A 
ATOM     38  N   UNL     1      -3.380   9.918   1.653  0.00  0.00    -0.360 N 
ATOM     39  C   UNL     1      -3.005   8.655   2.019  0.00  0.00    +0.087 A 
ATOM     40  H   UNL     1      -2.834  10.714   1.756  0.00  0.00    +0.165 HD
ENDBRANCH  30  31
ENDBRANCH  29  30
ENDBRANCH  27  29
ENDBRANCH  24  25
ENDBRANCH   7  24
TORSDOF 7
