REMARK  Name = ZINC36763817
REMARK  6 active torsions:
REMARK  status: ('A' for Active; 'I' for Inactive)
REMARK    1  A    between atoms: C_1  and  C_2
REMARK    2  A    between atoms: C_2  and  C_3
REMARK    3  A    between atoms: C_2  and  C_4
REMARK    4  A    between atoms: C_6  and  C_9
REMARK    5  A    between atoms: C_9  and  C_11
REMARK    6  A    between atoms: C_9  and  N_19
REMARK                            x       y       z     vdW  Elec       q    Type
REMARK                         _______ _______ _______ _____ _____    ______ ____
ROOT
ATOM      1  C   UNL     1      -4.169  -2.408  -1.382  0.00  0.00    +0.031 C 
ENDROOT
BRANCH   1   2
ATOM      2  C   UNL     1      -4.370  -3.854  -1.009  0.00  0.00    -0.018 A 
ATOM      3  C   UNL     1      -5.153  -4.184   0.083  0.00  0.00    +0.044 A 
ATOM      4  C   UNL     1      -5.338  -5.512   0.425  0.00  0.00    +0.020 A 
ATOM      5  C   UNL     1      -4.739  -6.509  -0.323  0.00  0.00    +0.003 A 
ATOM      6  C   UNL     1      -3.957  -6.179  -1.414  0.00  0.00    +0.020 A 
ATOM      7  C   UNL     1      -3.777  -4.852  -1.761  0.00  0.00    +0.044 A 
ATOM      8 CL   UNL     1      -2.800  -4.439  -3.135  0.00  0.00    -0.083 Cl
ATOM      9 CL   UNL     1      -5.904  -2.933   1.023  0.00  0.00    -0.083 Cl
ENDBRANCH   1   2
BRANCH   1  12
ATOM     10  C   UNL     1      -1.475  -0.881   0.489  0.00  0.00    +0.230 A 
ATOM     11  N   UNL     1      -1.974  -1.436  -0.580  0.00  0.00    -0.197 NA
ATOM     12  C   UNL     1      -3.258  -1.752  -0.377  0.00  0.00    +0.162 A 
ATOM     13  N   UNL     1      -3.593  -1.399   0.831  0.00  0.00    -0.063 NA
ATOM     14  O   UNL     1      -2.434  -0.829   1.422  0.00  0.00    -0.338 OA
BRANCH  10  16
ATOM     15  C   UNL     1      -0.074   1.110   0.962  0.00  0.00    +0.017 C 
ATOM     16  C   UNL     1      -0.060  -0.388   0.650  0.00  0.00    +0.072 C 
ATOM     17  C   UNL     1       0.616  -1.142   1.797  0.00  0.00    +0.017 C 
ENDBRANCH  10  16
ENDBRANCH   1  12
BRANCH   1  18
ATOM     18  N   UNL     1      -5.466  -1.719  -1.391  0.00  0.00    +0.388 N 
ATOM     19  H   UNL     1      -5.748  -1.522  -0.442  0.00  0.00    -0.089 HD
ATOM     20  H   UNL     1      -5.385  -0.855  -1.904  0.00  0.00    -0.089 HD
ATOM     21  H   UNL     1      -6.157  -2.308  -1.831  0.00  0.00    -0.089 HD
ENDBRANCH   1  18
TORSDOF 4
