REMARK  Name = ZINC01893133
REMARK  11 active torsions:
REMARK  status: ('A' for Active; 'I' for Inactive)
REMARK    1  A    between atoms: C_1  and  C_2
REMARK    2  A    between atoms: C_2  and  C_3
REMARK    3  A    between atoms: C_2  and  C_4
REMARK    4  A    between atoms: C_2  and  C_5
REMARK    5  A    between atoms: C_12  and  C_14
REMARK    6  A    between atoms: C_12  and  N_18
REMARK    7  A    between atoms: N_21  and  C_22
REMARK    8  A    between atoms: C_22  and  C_23
REMARK    9  A    between atoms: C_23  and  C_24
REMARK   10  A    between atoms: C_24  and  O_25
REMARK   11  A    between atoms: O_25  and  C_26
REMARK                            x       y       z     vdW  Elec       q    Type
REMARK                         _______ _______ _______ _____ _____    ______ ____
ROOT
ATOM      1  C   UNL     1      -1.012  -3.169   0.516  0.00  0.00    -0.038 A 
ATOM      2  C   UNL     1      -1.045  -3.117  -0.865  0.00  0.00    +0.008 A 
ATOM      3  C   UNL     1      -1.541  -1.997  -1.506  0.00  0.00    +0.050 A 
ATOM      4  C   UNL     1      -2.007  -0.923  -0.764  0.00  0.00    +0.169 A 
ATOM      5  C   UNL     1      -1.974  -0.976   0.627  0.00  0.00    +0.169 A 
ATOM      6  C   UNL     1      -1.476  -2.101   1.262  0.00  0.00    +0.053 A 
ATOM      7  O   UNL     1      -2.483   0.191   1.119  0.00  0.00    -0.426 OA
ATOM      8  C   UNL     1      -2.449   1.120   0.020  0.00  0.00    +0.436 C 
ATOM      9  O   UNL     1      -2.537   0.276  -1.144  0.00  0.00    -0.426 OA
ENDROOT
BRANCH   8  10
ATOM     10  N   UNL     1      -1.191   1.870   0.018  0.00  0.00    -0.220 N 
ATOM     11  C   UNL     1      -0.014   1.212   0.009  0.00  0.00    +0.305 C 
ATOM     12  O   UNL     1       0.002  -0.004   0.002  0.00  0.00    -0.253 OA
ATOM     13  N   UNL     1       1.143   1.901   0.001  0.00  0.00    -0.299 N 
ATOM     14  H   UNL     1      -1.204   2.840   0.023  0.00  0.00    +0.158 HD
ATOM     15  H   UNL     1       1.130   2.871   0.007  0.00  0.00    +0.150 HD
BRANCH  13  16
ATOM     16  C   UNL     1       2.422   1.186  -0.015  0.00  0.00    +0.108 C 
BRANCH  16  17
ATOM     17  C   UNL     1       3.571   2.196  -0.020  0.00  0.00    +0.047 C 
BRANCH  17  18
ATOM     18  C   UNL     1       4.907   1.449  -0.037  0.00  0.00    +0.161 C 
BRANCH  18  19
ATOM     19  O   UNL     1       5.980   2.393  -0.042  0.00  0.00    -0.383 OA
ATOM     20  C   UNL     1       7.278   1.796  -0.058  0.00  0.00    +0.193 C 
ENDBRANCH  18  19
ENDBRANCH  17  18
ENDBRANCH  16  17
ENDBRANCH  13  16
ENDBRANCH   8  10
BRANCH   1  22
ATOM     21  C   UNL     1      -0.028  -5.418   0.164  0.00  0.00    +0.015 C 
ATOM     22  C   UNL     1      -0.471  -4.392   1.210  0.00  0.00    -0.013 C 
ATOM     23  C   UNL     1       0.727  -3.999   2.077  0.00  0.00    +0.015 C 
ATOM     24  C   UNL     1      -1.561  -5.002   2.093  0.00  0.00    +0.015 C 
ENDBRANCH   1  22
BRANCH   8  25
ATOM     25  C   UNL     1      -3.642   2.076   0.082  0.00  0.00    +0.490 C 
ATOM     26  F   UNL     1      -3.620   2.923  -1.031  0.00  0.00    -0.162 F 
ATOM     27  F   UNL     1      -4.831   1.338   0.083  0.00  0.00    -0.162 F 
ATOM     28  F   UNL     1      -3.567   2.840   1.252  0.00  0.00    -0.162 F 
ENDBRANCH   8  25
TORSDOF 7
