REMARK  Name = ZINC63280084
REMARK  8 active torsions:
REMARK  status: ('A' for Active; 'I' for Inactive)
REMARK    1  A    between atoms: C_1  and  C_2
REMARK    2  A    between atoms: C_4  and  C_17
REMARK    3  A    between atoms: C_7  and  O_12
REMARK    4  A    between atoms: O_12  and  C_13
REMARK    5  A    between atoms: C_17  and  C_18
REMARK    6  A    between atoms: C_18  and  N_19
REMARK    7  A    between atoms: C_20  and  C_22
REMARK    8  A    between atoms: C_28  and  C_30
REMARK                            x       y       z     vdW  Elec       q    Type
REMARK                         _______ _______ _______ _____ _____    ______ ____
ROOT
ATOM      1  N   UNL     1      -5.457  -0.811   0.010  0.00  0.00    -0.315 N 
ATOM      2  C   UNL     1      -6.659  -1.390  -0.182  0.00  0.00    +0.216 C 
ATOM      3  O   UNL     1      -7.122  -2.123   0.666  0.00  0.00    -0.276 OA
ATOM      4  H   UNL     1      -5.087  -0.226  -0.669  0.00  0.00    +0.149 HD
ENDROOT
BRANCH   2   5
ATOM      5  C   UNL     1      -7.427  -1.127  -1.452  0.00  0.00    +0.078 C 
ATOM      6  C   UNL     1      -7.713   0.371  -1.573  0.00  0.00    +0.032 C 
ATOM      7  C   UNL     1      -8.464   0.639  -2.882  0.00  0.00    +0.109 C 
ATOM      8  N   UNL     1      -9.663  -0.210  -2.921  0.00  0.00    -0.297 N 
ATOM      9  C   UNL     1      -9.511  -1.658  -2.724  0.00  0.00    +0.109 C 
ATOM     10  C   UNL     1      -8.748  -1.900  -1.417  0.00  0.00    +0.032 C 
ATOM     11  C   UNL     1     -10.880   0.330  -3.133  0.00  0.00    +0.247 C 
ATOM     12  O   UNL     1     -11.855  -0.389  -3.232  0.00  0.00    -0.270 OA
BRANCH  11  13
ATOM     13  C   UNL     1     -11.028   1.796  -3.246  0.00  0.00    +0.037 A 
ATOM     14  C   UNL     1     -10.212   2.518  -4.119  0.00  0.00    +0.016 A 
ATOM     15  C   UNL     1     -10.354   3.885  -4.220  0.00  0.00    +0.039 A 
ATOM     16  C   UNL     1     -11.306   4.543  -3.456  0.00  0.00    +0.123 A 
ATOM     17  C   UNL     1     -12.120   3.831  -2.588  0.00  0.00    +0.039 A 
ATOM     18  C   UNL     1     -11.989   2.463  -2.484  0.00  0.00    +0.016 A 
ATOM     19  F   UNL     1     -11.441   5.884  -3.558  0.00  0.00    -0.205 F 
ENDBRANCH  11  13
ENDBRANCH   2   5
BRANCH   1  20
ATOM     20  C   UNL     1      -4.710  -1.067   1.244  0.00  0.00    +0.108 C 
BRANCH  20  21
ATOM     21  C   UNL     1      -3.389  -0.295   1.210  0.00  0.00    +0.052 C 
BRANCH  21  24
ATOM     22  C   UNL     1      -1.333   1.532   2.924  0.00  0.00    +0.035 C 
ATOM     23  C   UNL     1      -1.268   0.005   2.856  0.00  0.00    +0.103 C 
ATOM     24  C   UNL     1      -2.621  -0.558   2.479  0.00  0.00    -0.037 C 
ATOM     25  C   UNL     1      -3.001  -1.344   3.511  0.00  0.00    +0.003 A 
ATOM     26  C   UNL     1      -4.196  -2.159   3.754  0.00  0.00    +0.056 A 
ATOM     27  C   UNL     1      -4.304  -2.858   4.910  0.00  0.00    +0.131 A 
ATOM     28  C   UNL     1      -3.304  -2.833   5.898  0.00  0.00    +0.048 A 
ATOM     29  C   UNL     1      -2.169  -2.113   5.766  0.00  0.00    +0.029 A 
ATOM     30  C   UNL     1      -1.948  -1.319   4.553  0.00  0.00    +0.043 A 
ATOM     31  N   UNL     1      -0.956  -0.548   4.179  0.00  0.00    -0.378 N 
ATOM     32  H   UNL     1      -0.150  -0.372   4.690  0.00  0.00    +0.160 HD
BRANCH  27  33
ATOM     33  O   UNL     1      -5.417  -3.609   5.122  0.00  0.00    -0.406 OA
BRANCH  33  34
ATOM     34  C   UNL     1      -5.489  -4.329   6.354  0.00  0.00    +0.575 C 
ATOM     35  F   UNL     1      -5.433  -3.429   7.424  0.00  0.00    -0.133 F 
ATOM     36  F   UNL     1      -6.690  -5.043   6.407  0.00  0.00    -0.133 F 
ATOM     37  F   UNL     1      -4.413  -5.220   6.437  0.00  0.00    -0.133 F 
ENDBRANCH  33  34
ENDBRANCH  27  33
ENDBRANCH  21  24
ENDBRANCH  20  21
ENDBRANCH   1  20
TORSDOF 7
