REMARK  Name = ZINC38680869
REMARK  13 active torsions:
REMARK  status: ('A' for Active; 'I' for Inactive)
REMARK    1  A    between atoms: C_1  and  O_2
REMARK    2  A    between atoms: O_2  and  C_3
REMARK    3  A    between atoms: C_5  and  C_13
REMARK    4  A    between atoms: C_8  and  O_9
REMARK    5  A    between atoms: O_9  and  C_10
REMARK    6  A    between atoms: C_10  and  C_11
REMARK    7  A    between atoms: C_18  and  O_27
REMARK    8  A    between atoms: C_22  and  N_26
REMARK    9  A    between atoms: C_23  and  C_24
REMARK   10  A    between atoms: O_27  and  C_28
REMARK   11  A    between atoms: C_28  and  C_30
REMARK   12  A    between atoms: C_30  and  O_31
REMARK   13  A    between atoms: O_31  and  C_32
REMARK                            x       y       z     vdW  Elec       q    Type
REMARK                         _______ _______ _______ _____ _____    ______ ____
ROOT
ATOM      1  C   UNL     1       2.390   0.325  -4.264  0.00  0.00    +0.098 C 
ATOM      2  C   UNL     1       3.866   0.036  -4.344  0.00  0.00    +0.008 A 
ATOM      3  C   UNL     1       4.729   0.648  -3.453  0.00  0.00    +0.012 A 
ATOM      4  C   UNL     1       6.085   0.395  -3.511  0.00  0.00    +0.047 A 
ATOM      5  C   UNL     1       6.587  -0.477  -4.467  0.00  0.00    +0.135 A 
ATOM      6  C   UNL     1       5.726  -1.092  -5.361  0.00  0.00    +0.093 A 
ATOM      7  C   UNL     1       4.362  -0.837  -5.300  0.00  0.00    +0.138 A 
ATOM      8  O   UNL     1       3.532  -1.446  -6.182  0.00  0.00    -0.441 OA
ATOM      9  C   UNL     1       2.306  -0.944  -6.406  0.00  0.00    +0.199 C 
ATOM     10  C   UNL     1       1.711  -0.101  -5.534  0.00  0.00    +0.098 C 
ENDROOT
BRANCH   1  13
ATOM     11  C   UNL     1       0.636  -0.431  -1.004  0.00  0.00    +0.162 A 
ATOM     12  C   UNL     1       1.183   0.261  -2.073  0.00  0.00    +0.054 A 
ATOM     13  C   UNL     1       1.796  -0.429  -3.102  0.00  0.00    -0.031 A 
ATOM     14  C   UNL     1       1.865  -1.809  -3.068  0.00  0.00    +0.008 A 
ATOM     15  C   UNL     1       1.321  -2.506  -2.005  0.00  0.00    +0.050 A 
ATOM     16  C   UNL     1       0.711  -1.820  -0.968  0.00  0.00    +0.162 A 
BRANCH  11  18
ATOM     17  C   UNL     1      -0.007   1.671  -0.096  0.00  0.00    +0.277 C 
ATOM     18  O   UNL     1       0.033   0.246   0.009  0.00  0.00    -0.491 OA
ENDBRANCH  11  18
BRANCH  16  19
ATOM     19  O   UNL     1       0.180  -2.503   0.082  0.00  0.00    -0.484 OA
BRANCH  19  20
ATOM     20  C   UNL     1       0.294  -3.928   0.052  0.00  0.00    +0.256 C 
BRANCH  20  21
ATOM     21  C   UNL     1      -0.346  -4.508   1.288  0.00  0.00    +0.006 C 
ATOM     22  C   UNL     1      -1.138  -5.547   1.189  0.00  0.00    +0.007 C 
ENDBRANCH  20  21
ENDBRANCH  19  20
ENDBRANCH  16  19
ENDBRANCH   1  13
BRANCH   9  23
ATOM     23  N   UNL     1       1.640  -1.300  -7.552  0.00  0.00    -0.328 N 
ATOM     24  H   UNL     1       2.055  -1.905  -8.187  0.00  0.00    +0.145 HD
ATOM     25  H   UNL     1       0.754  -0.946  -7.728  0.00  0.00    +0.145 HD
ENDBRANCH   9  23
BRANCH  10  26
ATOM     26  C   UNL     1       0.401   0.397  -5.831  0.00  0.00    +0.101 C 
ATOM     27  N   UNL     1      -0.637   0.792  -6.066  0.00  0.00    -0.191 NA
ENDBRANCH  10  26
BRANCH   5  28
ATOM     28  O   UNL     1       7.922  -0.728  -4.527  0.00  0.00    -0.423 OA
BRANCH  28  29
ATOM     29  C   UNL     1       8.605  -0.258  -5.583  0.00  0.00    +0.350 C 
ATOM     30  O   UNL     1       8.055   0.453  -6.391  0.00  0.00    -0.247 OA
BRANCH  29  31
ATOM     31  C   UNL     1      10.057  -0.618  -5.762  0.00  0.00    +0.349 C 
BRANCH  31  32
ATOM     32  O   UNL     1      10.558  -0.002  -6.950  0.00  0.00    -0.481 OA
BRANCH  32  33
ATOM     33  C   UNL     1      11.862  -0.228  -7.259  0.00  0.00    +0.121 A 
ATOM     34  C   UNL     1      12.642  -1.030  -6.439  0.00  0.00    +0.047 A 
ATOM     35  C   UNL     1      13.967  -1.257  -6.755  0.00  0.00    +0.023 A 
ATOM     36  C   UNL     1      14.517  -0.686  -7.889  0.00  0.00    +0.041 A 
ATOM     37  C   UNL     1      13.741   0.115  -8.708  0.00  0.00    +0.023 A 
ATOM     38  C   UNL     1      12.414   0.339  -8.399  0.00  0.00    +0.047 A 
ATOM     39 CL   UNL     1      16.183  -0.973  -8.283  0.00  0.00    -0.084 Cl
ENDBRANCH  32  33
ENDBRANCH  31  32
ENDBRANCH  29  31
ENDBRANCH  28  29
ENDBRANCH   5  28
TORSDOF 12
