REMARK  Name = ZINC31964565
REMARK  7 active torsions:
REMARK  status: ('A' for Active; 'I' for Inactive)
REMARK    1  A    between atoms: C_1  and  C_2
REMARK    2  A    between atoms: C_2  and  C_4
REMARK    3  A    between atoms: C_2  and  N_25
REMARK    4  A    between atoms: C_4  and  N_5
REMARK    5  A    between atoms: C_6  and  C_8
REMARK    6  A    between atoms: C_12  and  S_14
REMARK    7  A    between atoms: S_14  and  N_17
REMARK                            x       y       z     vdW  Elec       q    Type
REMARK                         _______ _______ _______ _____ _____    ______ ____
ROOT
ATOM      1  N   UNL     1      -7.779   3.112  -0.014  0.00  0.00    -0.313 N 
ATOM      2  C   UNL     1      -6.742   3.560   0.722  0.00  0.00    +0.244 C 
ATOM      3  O   UNL     1      -6.886   3.769   1.911  0.00  0.00    -0.270 OA
ATOM      4  H   UNL     1      -7.649   2.923  -1.089  0.00  0.00    +0.149 HD
ENDROOT
BRANCH   2   5
ATOM      5  C   UNL     1      -5.431   3.796   0.083  0.00  0.00    +0.039 A 
ATOM      6  C   UNL     1      -5.263   3.556  -1.282  0.00  0.00    +0.014 A 
ATOM      7  C   UNL     1      -4.036   3.778  -1.873  0.00  0.00    +0.023 A 
ATOM      8  C   UNL     1      -2.972   4.237  -1.114  0.00  0.00    +0.067 A 
ATOM      9  C   UNL     1      -3.133   4.477   0.241  0.00  0.00    +0.124 A 
ATOM     10  C   UNL     1      -4.353   4.254   0.843  0.00  0.00    +0.043 A 
ATOM     11 CL   UNL     1      -1.431   4.514  -1.864  0.00  0.00    -0.082 Cl
BRANCH   9  12
ATOM     12  S   UNL     1      -1.773   5.061   1.198  0.00  0.00    +0.062 S 
ATOM     13  O   UNL     1      -2.248   5.211   2.529  0.00  0.00    -0.153 OA
ATOM     14  O   UNL     1      -1.196   6.135   0.469  0.00  0.00    -0.153 OA
BRANCH  12  15
ATOM     15  N   UNL     1      -0.643   3.851   1.232  0.00  0.00    -0.177 NA
ATOM     16  C   UNL     1       0.528   3.873   0.292  0.00  0.00    +0.109 C 
ATOM     17  C   UNL     1       1.724   4.153   1.082  0.00  0.00    +0.017 C 
ATOM     18  C   UNL     1       1.990   3.149   2.199  0.00  0.00    +0.001 C 
ATOM     19  C   UNL     1       1.255   3.677   3.397  0.00  0.00    +0.001 C 
ATOM     20  C   UNL     1      -0.119   2.980   3.551  0.00  0.00    +0.017 C 
ATOM     21  C   UNL     1      -0.766   2.764   2.160  0.00  0.00    +0.109 C 
ENDBRANCH  12  15
ENDBRANCH   9  12
ENDBRANCH   2   5
BRANCH   1  22
ATOM     22  C   UNL     1      -9.079   2.878   0.620  0.00  0.00    +0.089 C 
BRANCH  22  24
ATOM     23  C   UNL     1     -10.321   3.278  -1.511  0.00  0.00    -0.012 C 
ATOM     24  C   UNL     1     -10.040   2.264  -0.401  0.00  0.00    -0.054 C 
BRANCH  24  25
ATOM     25  N   UNL     1      -9.434   1.059  -0.981  0.00  0.00    +0.385 N 
ATOM     26  C   UNL     1     -10.376   0.374  -1.877  0.00  0.00    -0.073 C 
ATOM     27  C   UNL     1      -9.593  -0.612  -2.760  0.00  0.00    +0.024 C 
ATOM     28  C   UNL     1      -8.666  -1.379  -1.873  0.00  0.00    -0.011 A 
ATOM     29  C   UNL     1      -8.331  -1.074  -0.588  0.00  0.00    -0.054 A 
ATOM     30  C   UNL     1      -7.444  -1.941   0.046  0.00  0.00    +0.009 A 
ATOM     31  C   UNL     1      -6.962  -3.018  -0.615  0.00  0.00    +0.045 A 
ATOM     32  S   UNL     1      -7.756  -2.860  -2.208  0.00  0.00    -0.101 S 
ATOM     33  C   UNL     1      -8.925   0.168   0.070  0.00  0.00    -0.042 C 
ATOM     34  H   UNL     1      -8.571   1.365  -1.590  0.00  0.00    -0.081 HD
ENDBRANCH  24  25
ENDBRANCH  22  24
ENDBRANCH   1  22
TORSDOF 6
