REMARK  Name = ZINC35747567
REMARK  12 active torsions:
REMARK  status: ('A' for Active; 'I' for Inactive)
REMARK    1  A    between atoms: C_2  and  C_3
REMARK    2  A    between atoms: C_3  and  C_4
REMARK    3  A    between atoms: C_4  and  C_5
REMARK    4  A    between atoms: C_5  and  C_7
REMARK    5  A    between atoms: C_5  and  O_36
REMARK    6  A    between atoms: C_7  and  N_8
REMARK    7  A    between atoms: N_8  and  C_9
REMARK    8  A    between atoms: N_8  and  C_17
REMARK    9  A    between atoms: C_9  and  C_10
REMARK   10  A    between atoms: C_10  and  N_11
REMARK   11  A    between atoms: C_17  and  C_18
REMARK   12  A    between atoms: C_24  and  C_29
REMARK                            x       y       z     vdW  Elec       q    Type
REMARK                         _______ _______ _______ _____ _____    ______ ____
ROOT
ATOM      1  C   UNL     1      -3.873  -5.739  -2.911  0.00  0.00    -0.003 C 
ENDROOT
BRANCH   1   2
ATOM      2  C   UNL     1      -4.760  -6.716  -2.182  0.00  0.00    +0.094 A 
ATOM      3  N   UNL     1      -4.808  -8.008  -2.595  0.00  0.00    -0.312 N 
ATOM      4  H   UNL     1      -4.270  -8.286  -3.353  0.00  0.00    +0.170 HD
ATOM      5  C   UNL     1      -5.586  -8.912  -1.972  0.00  0.00    +0.260 A 
ATOM      6  O   UNL     1      -5.618 -10.070  -2.354  0.00  0.00    -0.267 OA
ATOM      7  C   UNL     1      -6.376  -8.495  -0.853  0.00  0.00    +0.080 A 
ATOM      8  C   UNL     1      -7.286  -9.275  -0.023  0.00  0.00    +0.004 A 
ATOM      9  C   UNL     1      -7.932  -8.656   0.994  0.00  0.00    +0.056 A 
ATOM     10  S   UNL     1      -7.349  -6.975   0.892  0.00  0.00    -0.076 S 
ATOM     11  C   UNL     1      -6.261  -7.140  -0.500  0.00  0.00    +0.116 A 
ATOM     12  N   UNL     1      -5.464  -6.306  -1.162  0.00  0.00    -0.229 NA
BRANCH   8  13
ATOM     13  C   UNL     1      -7.500 -10.718  -0.288  0.00  0.00    -0.015 A 
ATOM     14  C   UNL     1      -7.796 -11.156  -1.578  0.00  0.00    +0.008 A 
ATOM     15  C   UNL     1      -7.995 -12.500  -1.819  0.00  0.00    +0.002 A 
ATOM     16  C   UNL     1      -7.900 -13.413  -0.783  0.00  0.00    +0.020 A 
ATOM     17  C   UNL     1      -7.606 -12.984   0.499  0.00  0.00    +0.042 A 
ATOM     18  C   UNL     1      -7.399 -11.642   0.751  0.00  0.00    +0.028 A 
ATOM     19 CL   UNL     1      -7.490 -14.136   1.793  0.00  0.00    -0.084 Cl
ENDBRANCH   8  13
ENDBRANCH   1   2
BRANCH   1  20
ATOM     20  N   UNL     1      -4.035  -4.401  -2.326  0.00  0.00    +0.387 N 
ATOM     21  H   UNL     1      -3.883  -4.449  -1.330  0.00  0.00    -0.081 HD
BRANCH  20  22
ATOM     22  C   UNL     1      -3.058  -3.482  -2.927  0.00  0.00    -0.047 C 
BRANCH  22  23
ATOM     23  C   UNL     1      -3.132  -2.127  -2.222  0.00  0.00    +0.098 C 
BRANCH  23  24
ATOM     24  O   UNL     1      -4.385  -1.504  -2.516  0.00  0.00    -0.394 OA
ATOM     25  H   UNL     1      -4.533  -1.345  -3.458  0.00  0.00    +0.210 HD
ENDBRANCH  23  24
BRANCH  23  26
ATOM     26  C   UNL     1      -1.992  -1.233  -2.713  0.00  0.00    +0.033 C 
BRANCH  26  27
ATOM     27  C   UNL     1      -1.990   0.075  -1.919  0.00  0.00    +0.029 C 
BRANCH  27  29
ATOM     28  C   UNL     1      -1.118   2.174  -2.809  0.00  0.00    +0.004 C 
ATOM     29  C   UNL     1      -0.866   0.955  -2.403  0.00  0.00    -0.034 C 
ENDBRANCH  27  29
ENDBRANCH  26  27
ENDBRANCH  23  26
ENDBRANCH  22  23
ENDBRANCH  20  22
BRANCH  20  30
ATOM     30  C   UNL     1      -5.395  -3.912  -2.591  0.00  0.00    -0.063 C 
BRANCH  30  31
ATOM     31  C   UNL     1      -5.573  -3.691  -4.095  0.00  0.00    +0.066 C 
BRANCH  31  32
ATOM     32  N   UNL     1      -6.893  -3.099  -4.349  0.00  0.00    -0.300 NA
ATOM     33  C   UNL     1      -7.968  -4.044  -4.011  0.00  0.00    +0.112 C 
ATOM     34  C   UNL     1      -9.323  -3.368  -4.234  0.00  0.00    +0.175 C 
ATOM     35  O   UNL     1      -9.407  -2.914  -5.588  0.00  0.00    -0.377 OA
ATOM     36  C   UNL     1      -8.376  -1.992  -5.951  0.00  0.00    +0.175 C 
ATOM     37  C   UNL     1      -7.011  -2.654  -5.746  0.00  0.00    +0.112 C 
ENDBRANCH  31  32
ENDBRANCH  30  31
ENDBRANCH  20  30
ENDBRANCH   1  20
TORSDOF 12
