REMARK  Name = ZINC34724525
REMARK  7 active torsions:
REMARK  status: ('A' for Active; 'I' for Inactive)
REMARK    1  A    between atoms: C_1  and  C_2
REMARK    2  A    between atoms: C_2  and  C_3
REMARK    3  A    between atoms: C_3  and  N_4
REMARK    4  A    between atoms: N_12  and  C_15
REMARK    5  A    between atoms: C_15  and  C_16
REMARK    6  A    between atoms: C_24  and  C_27
REMARK    7  A    between atoms: C_25  and  C_26
REMARK                            x       y       z     vdW  Elec       q    Type
REMARK                         _______ _______ _______ _____ _____    ______ ____
ROOT
ATOM      1  N   UNL     1      -1.413  -1.998   0.005  0.00  0.00    -0.260 N 
ATOM      2  C   UNL     1      -1.410  -2.645  -1.175  0.00  0.00    +0.265 A 
ATOM      3  O   UNL     1      -1.423  -2.022  -2.220  0.00  0.00    -0.267 OA
ATOM      4  C   UNL     1      -1.390  -4.122  -1.185  0.00  0.00    +0.078 A 
ATOM      5  C   UNL     1      -1.384  -5.028  -2.354  0.00  0.00    +0.003 A 
ATOM      6  C   UNL     1      -1.365  -6.360  -2.081  0.00  0.00    +0.004 A 
ATOM      7  S   UNL     1      -1.355  -6.467  -0.312  0.00  0.00    -0.074 S 
ATOM      8  C   UNL     1      -1.376  -4.734   0.065  0.00  0.00    +0.098 A 
ATOM      9  N   UNL     1      -1.381  -4.004   1.220  0.00  0.00    -0.283 N 
ATOM     10  C   UNL     1      -1.393  -2.657   1.175  0.00  0.00    +0.333 A 
ATOM     11  O   UNL     1      -1.392  -2.026   2.215  0.00  0.00    -0.246 OA
ATOM     12  C   UNL     1      -1.362  -7.114  -3.376  0.00  0.00    +0.073 C 
ATOM     13  C   UNL     1      -1.381  -6.046  -4.446  0.00  0.00    -0.064 C 
ATOM     14  C   UNL     1      -1.393  -4.876  -3.837  0.00  0.00    -0.042 C 
ATOM     15  C   UNL     1      -1.415  -3.549  -4.552  0.00  0.00    +0.044 C 
ATOM     16  C   UNL     1      -1.386  -6.277  -5.936  0.00  0.00    +0.039 C 
ENDROOT
BRANCH   1  17
ATOM     17  C   UNL     1      -1.433  -0.534   0.013  0.00  0.00    +0.130 C 
BRANCH  17  19
ATOM     18  C   UNL     1      -0.019   1.526   0.010  0.00  0.00    +0.005 C 
ATOM     19  C   UNL     1       0.002  -0.004   0.002  0.00  0.00    +0.018 C 
ENDBRANCH  17  19
ENDBRANCH   1  17
BRANCH   9  20
ATOM     20  C   UNL     1      -1.365  -4.689   2.515  0.00  0.00    +0.162 C 
BRANCH  20  21
ATOM     21  C   UNL     1       0.061  -4.905   2.952  0.00  0.00    -0.028 A 
ATOM     22  C   UNL     1       0.729  -6.059   2.588  0.00  0.00    +0.006 A 
ATOM     23  C   UNL     1       2.037  -6.257   2.988  0.00  0.00    +0.015 A 
ATOM     24  C   UNL     1       2.678  -5.300   3.754  0.00  0.00    +0.018 A 
ATOM     25  C   UNL     1       2.009  -4.145   4.118  0.00  0.00    +0.015 A 
ATOM     26  C   UNL     1       0.703  -3.945   3.713  0.00  0.00    +0.006 A 
ATOM     27 BR   UNL     1       4.467  -5.570   4.303  0.00  0.00    -0.050 Br
ENDBRANCH  20  21
ENDBRANCH   9  20
TORSDOF 4
