REMARK  Name = ZINC17071118
REMARK  8 active torsions:
REMARK  status: ('A' for Active; 'I' for Inactive)
REMARK    1  A    between atoms: C_1  and  C_2
REMARK    2  A    between atoms: C_3  and  C_19
REMARK    3  A    between atoms: C_4  and  N_10
REMARK    4  A    between atoms: C_6  and  C_7
REMARK    5  A    between atoms: C_11  and  C_13
REMARK    6  A    between atoms: C_13  and  N_44
REMARK    7  A    between atoms: C_19  and  O_21
REMARK    8  A    between atoms: O_21  and  C_22
REMARK                            x       y       z     vdW  Elec       q    Type
REMARK                         _______ _______ _______ _____ _____    ______ ____
ROOT
ATOM      1  C   UNL     1      -4.003   2.837   0.038  0.00  0.00    +0.046 C 
ATOM      2  C   UNL     1      -3.726   1.355   0.027  0.00  0.00    -0.015 A 
ATOM      3  C   UNL     1      -4.761   0.432   0.026  0.00  0.00    +0.091 A 
ATOM      4  C   UNL     1      -4.422  -0.925   0.017  0.00  0.00    +0.087 A 
ATOM      5  S   UNL     1      -2.689  -0.891   0.002  0.00  0.00    -0.068 S 
ATOM      6  C   UNL     1      -2.445   0.874   0.018  0.00  0.00    +0.079 A 
ENDROOT
BRANCH   6   7
ATOM      7  C   UNL     1      -1.187   1.624   0.017  0.00  0.00    +0.248 C 
ATOM      8  O   UNL     1      -1.204   2.841   0.023  0.00  0.00    -0.270 OA
ATOM      9  N   UNL     1      -0.011   0.966   0.007  0.00  0.00    -0.325 N 
ATOM     10  H   UNL     1       0.002  -0.004   0.002  0.00  0.00    +0.145 HD
ATOM     11  H   UNL     1       0.822   1.462   0.002  0.00  0.00    +0.145 HD
ENDBRANCH   6   7
BRANCH   4  12
ATOM     12  N   UNL     1      -5.262  -2.022   0.014  0.00  0.00    -0.281 N 
ATOM     13  C   UNL     1      -4.745  -3.267   0.004  0.00  0.00    +0.201 C 
ATOM     14  O   UNL     1      -3.542  -3.423  -0.003  0.00  0.00    -0.278 OA
ATOM     15  H   UNL     1      -6.224  -1.897   0.019  0.00  0.00    +0.155 HD
BRANCH  13  16
ATOM     16  C   UNL     1      -5.661  -4.463   0.001  0.00  0.00    +0.019 C 
BRANCH  16  22
ATOM     17  C   UNL     1      -4.106  -5.820  -1.265  0.00  0.00    -0.078 C 
ATOM     18  C   UNL     1      -3.175  -7.032  -1.183  0.00  0.00    -0.019 C 
ATOM     19  C   UNL     1      -4.006  -8.293  -0.935  0.00  0.00    -0.004 C 
ATOM     20  C   UNL     1      -4.817  -8.116   0.351  0.00  0.00    -0.019 C 
ATOM     21  C   UNL     1      -5.701  -6.873   0.225  0.00  0.00    -0.078 C 
ATOM     22  N   UNL     1      -4.839  -5.691   0.012  0.00  0.00    +0.385 N 
ATOM     23  H   UNL     1      -4.161  -5.631   0.781  0.00  0.00    -0.081 HD
ENDBRANCH  16  22
ENDBRANCH  13  16
ENDBRANCH   4  12
BRANCH   3  24
ATOM     24  C   UNL     1      -6.163   0.864   0.036  0.00  0.00    +0.342 C 
ATOM     25  O   UNL     1      -6.749   1.050  -1.014  0.00  0.00    -0.245 OA
BRANCH  24  26
ATOM     26  O   UNL     1      -6.802   1.055   1.208  0.00  0.00    -0.464 OA
ATOM     27  C   UNL     1      -8.188   1.482   1.141  0.00  0.00    +0.280 C 
ENDBRANCH  24  26
ENDBRANCH   3  24
TORSDOF 6
