REMARK  Name = ZINC20573354
REMARK  10 active torsions:
REMARK  status: ('A' for Active; 'I' for Inactive)
REMARK    1  A    between atoms: C_1  and  C_2
REMARK    2  A    between atoms: C_2  and  C_3
REMARK    3  A    between atoms: C_3  and  C_5
REMARK    4  A    between atoms: C_3  and  N_30
REMARK    5  A    between atoms: C_7  and  C_21
REMARK    6  A    between atoms: C_21  and  S_22
REMARK    7  A    between atoms: S_22  and  C_23
REMARK    8  A    between atoms: N_30  and  C_31
REMARK    9  A    between atoms: C_31  and  C_32
REMARK   10  A    between atoms: C_32  and  C_33
REMARK                            x       y       z     vdW  Elec       q    Type
REMARK                         _______ _______ _______ _____ _____    ______ ____
ROOT
ATOM      1  C   UNL     1       0.765  -2.154  -1.146  0.00  0.00    +0.110 C 
ATOM      2  C   UNL     1       1.569  -2.180   0.137  0.00  0.00    +0.058 C 
ATOM      3  N   UNL     1       2.730  -2.623  -0.154  0.00  0.00    -0.178 NA
ATOM      4  N   UNL     1       2.876  -2.928  -1.504  0.00  0.00    -0.135 N 
ATOM      5  C   UNL     1       1.735  -2.678  -2.188  0.00  0.00    +0.248 C 
ATOM      6  O   UNL     1       1.531  -2.837  -3.373  0.00  0.00    -0.273 OA
ATOM      7  C   UNL     1       4.039  -3.424  -2.074  0.00  0.00    +0.189 A 
ATOM      8  N   UNL     1       4.274  -3.734  -3.328  0.00  0.00    -0.223 NA
ATOM      9  C   UNL     1       5.465  -4.212  -3.747  0.00  0.00    +0.080 A 
ATOM     10  C   UNL     1       5.845  -4.582  -5.058  0.00  0.00    +0.029 A 
ATOM     11  C   UNL     1       7.106  -5.054  -5.314  0.00  0.00    +0.002 A 
ATOM     12  C   UNL     1       8.049  -5.187  -4.305  0.00  0.00    +0.001 A 
ATOM     13  C   UNL     1       7.712  -4.835  -3.012  0.00  0.00    +0.017 A 
ATOM     14  C   UNL     1       6.451  -4.361  -2.745  0.00  0.00    +0.041 A 
ATOM     15  S   UNL     1       5.601  -3.798  -1.290  0.00  0.00    -0.050 S 
ENDROOT
BRANCH   1  16
ATOM     16  C   UNL     1       0.333  -0.726  -1.483  0.00  0.00    -0.054 C 
BRANCH  16  17
ATOM     17  N   UNL     1      -0.161  -0.676  -2.865  0.00  0.00    +0.382 N 
ATOM     18  H   UNL     1       0.535  -1.062  -3.485  0.00  0.00    -0.085 HD
ATOM     19  H   UNL     1      -1.011  -1.215  -2.938  0.00  0.00    -0.085 HD
BRANCH  17  20
ATOM     20  C   UNL     1      -0.431   0.718  -3.239  0.00  0.00    -0.076 C 
BRANCH  20  21
ATOM     21  C   UNL     1      -1.016   0.763  -4.652  0.00  0.00    +0.038 C 
BRANCH  21  22
ATOM     22  C   UNL     1      -1.293   2.194  -5.036  0.00  0.00    +0.057 A 
ATOM     23  C   UNL     1      -0.833   2.822  -6.135  0.00  0.00    +0.107 A 
ATOM     24  N   UNL     1      -1.322   4.100  -6.094  0.00  0.00    -0.351 N 
ATOM     25  H   UNL     1      -1.164   4.797  -6.750  0.00  0.00    +0.166 HD
ATOM     26  C   UNL     1      -2.064   4.208  -4.972  0.00  0.00    +0.196 A 
ATOM     27  N   UNL     1      -2.047   3.063  -4.346  0.00  0.00    -0.241 NA
ENDBRANCH  21  22
ENDBRANCH  20  21
ENDBRANCH  17  20
ENDBRANCH  16  17
BRANCH  16  29
ATOM     28  C   UNL     1      -1.912  -1.320  -0.561  0.00  0.00    +0.002 C 
ATOM     29  C   UNL     1      -0.780  -0.291  -0.527  0.00  0.00    -0.018 C 
ENDBRANCH  16  29
ENDBRANCH   1  16
BRANCH   2  30
ATOM     30  C   UNL     1       1.089  -1.760   1.502  0.00  0.00    +0.127 C 
BRANCH  30  31
ATOM     31  S   UNL     1       2.347  -2.177   2.741  0.00  0.00    -0.119 S 
BRANCH  31  32
ATOM     32  C   UNL     1       1.645  -1.631   4.262  0.00  0.00    +0.008 A 
ATOM     33  C   UNL     1       0.386  -1.043   4.277  0.00  0.00    +0.016 A 
ATOM     34  C   UNL     1      -0.161  -0.616   5.470  0.00  0.00    +0.021 A 
ATOM     35  C   UNL     1       0.543  -0.774   6.652  0.00  0.00    +0.041 A 
ATOM     36  C   UNL     1       1.797  -1.359   6.640  0.00  0.00    +0.021 A 
ATOM     37  C   UNL     1       2.347  -1.793   5.450  0.00  0.00    +0.016 A 
ATOM     38 CL   UNL     1      -0.148  -0.235   8.150  0.00  0.00    -0.084 Cl
ENDBRANCH  31  32
ENDBRANCH  30  31
ENDBRANCH   2  30
TORSDOF 9
