REMARK  Name = ZINC15773654
REMARK  13 active torsions:
REMARK  status: ('A' for Active; 'I' for Inactive)
REMARK    1  A    between atoms: C_1  and  C_2
REMARK    2  A    between atoms: C_2  and  C_3
REMARK    3  A    between atoms: C_2  and  C_4
REMARK    4  A    between atoms: C_2  and  C_5
REMARK    5  A    between atoms: C_7  and  C_16
REMARK    6  A    between atoms: C_9  and  C_12
REMARK    7  A    between atoms: C_10  and  O_11
REMARK    8  A    between atoms: C_12  and  C_13
REMARK    9  A    between atoms: C_12  and  C_14
REMARK   10  A    between atoms: C_12  and  C_15
REMARK   11  A    between atoms: N_17  and  C_18
REMARK   12  A    between atoms: N_26  and  C_27
REMARK   13  A    between atoms: C_27  and  C_28
REMARK                            x       y       z     vdW  Elec       q    Type
REMARK                         _______ _______ _______ _____ _____    ______ ____
ROOT
ATOM      1  C   UNL     1       2.412   0.928  -4.258  0.00  0.00    +0.122 C 
ATOM      2  N   UNL     1       3.023   0.503  -5.333  0.00  0.00    -0.220 NA
ENDROOT
BRANCH   2   3
ATOM      3  C   UNL     1       3.525   1.394  -6.227  0.00  0.00    +0.232 A 
ATOM      4  N   UNL     1       3.458   2.702  -6.111  0.00  0.00    -0.211 NA
ATOM      5  C   UNL     1       4.057   3.284  -7.177  0.00  0.00    +0.091 A 
ATOM      6  C   UNL     1       4.266   4.616  -7.552  0.00  0.00    +0.030 A 
ATOM      7  C   UNL     1       4.921   4.901  -8.716  0.00  0.00    +0.002 A 
ATOM      8  C   UNL     1       5.383   3.881  -9.536  0.00  0.00    +0.002 A 
ATOM      9  C   UNL     1       5.188   2.561  -9.188  0.00  0.00    +0.028 A 
ATOM     10  C   UNL     1       4.526   2.251  -8.009  0.00  0.00    +0.071 A 
ATOM     11  N   UNL     1       4.182   1.066  -7.385  0.00  0.00    -0.304 N 
BRANCH  11  12
ATOM     12  C   UNL     1       4.465  -0.286  -7.871  0.00  0.00    +0.160 C 
BRANCH  12  13
ATOM     13  C   UNL     1       3.326  -0.756  -8.739  0.00  0.00    -0.028 A 
ATOM     14  C   UNL     1       2.257  -1.427  -8.174  0.00  0.00    +0.005 A 
ATOM     15  C   UNL     1       1.213  -1.858  -8.970  0.00  0.00    +0.000 A 
ATOM     16  C   UNL     1       1.237  -1.618 -10.331  0.00  0.00    +0.000 A 
ATOM     17  C   UNL     1       2.305  -0.947 -10.896  0.00  0.00    +0.000 A 
ATOM     18  C   UNL     1       3.348  -0.512 -10.099  0.00  0.00    +0.005 A 
ENDBRANCH  12  13
ENDBRANCH  11  12
ENDBRANCH   2   3
BRANCH   1  21
ATOM     19  C   UNL     1       0.707  -0.490  -1.238  0.00  0.00    +0.000 A 
ATOM     20  C   UNL     1       1.214   0.417  -2.140  0.00  0.00    +0.017 A 
ATOM     21  C   UNL     1       1.869  -0.036  -3.292  0.00  0.00    -0.006 A 
ATOM     22  C   UNL     1       2.005  -1.411  -3.519  0.00  0.00    +0.017 A 
ATOM     23  C   UNL     1       1.495  -2.309  -2.610  0.00  0.00    +0.000 A 
ATOM     24  C   UNL     1       0.850  -1.854  -1.465  0.00  0.00    +0.124 A 
BRANCH  19  26
ATOM     25  C   UNL     1      -0.019   1.526   0.010  0.00  0.00    +0.015 C 
ATOM     26  C   UNL     1       0.002  -0.004   0.002  0.00  0.00    -0.009 C 
ATOM     27  C   UNL     1       0.742  -0.511   1.242  0.00  0.00    +0.015 C 
ATOM     28  C   UNL     1      -1.433  -0.534   0.013  0.00  0.00    +0.015 C 
ENDBRANCH  19  26
BRANCH  23  29
ATOM     29  C   UNL     1       1.640  -3.790  -2.853  0.00  0.00    -0.009 C 
ATOM     30  C   UNL     1       2.386  -4.019  -4.169  0.00  0.00    +0.015 C 
ATOM     31  C   UNL     1       2.427  -4.421  -1.703  0.00  0.00    +0.015 C 
ATOM     32  C   UNL     1       0.254  -4.431  -2.935  0.00  0.00    +0.015 C 
ENDBRANCH  23  29
BRANCH  24  33
ATOM     33  O   UNL     1       0.354  -2.745  -0.569  0.00  0.00    -0.506 OA
ATOM     34  H   UNL     1      -0.559  -3.011  -0.744  0.00  0.00    +0.292 HD
ENDBRANCH  24  33
ENDBRANCH   1  21
TORSDOF 7
