REMARK  Name = ZINC07749666
REMARK  6 active torsions:
REMARK  status: ('A' for Active; 'I' for Inactive)
REMARK    1  A    between atoms: C_1  and  C_2
REMARK    2  A    between atoms: C_15  and  C_17
REMARK    3  A    between atoms: C_17  and  N_51
REMARK    4  A    between atoms: C_18  and  C_20
REMARK    5  A    between atoms: C_18  and  C_26
REMARK    6  A    between atoms: C_18  and  N_51
REMARK                            x       y       z     vdW  Elec       q    Type
REMARK                         _______ _______ _______ _____ _____    ______ ____
ROOT
ATOM      1  C   UNL     1       9.917   0.114   2.899  0.00  0.00    +0.029 C 
ATOM      2  C   UNL     1       8.627  -0.176   3.669  0.00  0.00    +0.087 C 
ATOM      3  C   UNL     1       8.943  -1.047   4.891  0.00  0.00    +0.118 C 
ATOM      4  C   UNL     1       7.682  -1.673   5.426  0.00  0.00    +0.219 C 
ATOM      5  O   UNL     1       7.176  -1.237   6.439  0.00  0.00    -0.275 OA
ATOM      6  N   UNL     1       7.110  -2.715   4.785  0.00  0.00    -0.284 N 
ATOM      7  C   UNL     1       7.625  -3.167   3.565  0.00  0.00    +0.055 A 
ATOM      8  C   UNL     1       7.848  -4.516   3.344  0.00  0.00    +0.025 A 
ATOM      9  C   UNL     1       8.305  -4.945   2.111  0.00  0.00    +0.002 A 
ATOM     10  C   UNL     1       8.540  -4.032   1.099  0.00  0.00    +0.002 A 
ATOM     11  C   UNL     1       8.331  -2.683   1.315  0.00  0.00    +0.025 A 
ATOM     12  C   UNL     1       7.881  -2.244   2.550  0.00  0.00    +0.058 A 
ATOM     13  N   UNL     1       7.685  -0.878   2.795  0.00  0.00    -0.268 N 
ATOM     14  C   UNL     1       6.652  -0.221   2.232  0.00  0.00    +0.203 C 
ATOM     15  O   UNL     1       6.493   0.961   2.452  0.00  0.00    -0.277 OA
ATOM     16  H   UNL     1       6.336  -3.153   5.173  0.00  0.00    +0.155 HD
ENDROOT
BRANCH  14  17
ATOM     17  C   UNL     1       5.694  -0.955   1.330  0.00  0.00    +0.017 C 
BRANCH  17  18
ATOM     18  N   UNL     1       4.664  -0.014   0.850  0.00  0.00    +0.392 N 
ATOM     19  H   UNL     1       5.117   0.748   0.332  0.00  0.00    -0.084 HD
ATOM     20  H   UNL     1       4.158   0.373   1.655  0.00  0.00    -0.084 HD
BRANCH  18  21
ATOM     21  C   UNL     1       3.711  -0.707  -0.037  0.00  0.00    -0.003 C 
BRANCH  21  22
ATOM     22  C   UNL     1       2.396   0.029  -0.021  0.00  0.00    -0.057 A 
ATOM     23  C   UNL     1       1.208  -0.679  -0.014  0.00  0.00    +0.002 A 
ATOM     24  C   UNL     1       0.002  -0.004   0.002  0.00  0.00    +0.000 A 
ATOM     25  C   UNL     1      -0.017   1.378   0.010  0.00  0.00    +0.000 A 
ATOM     26  C   UNL     1       1.171   2.086   0.002  0.00  0.00    +0.000 A 
ATOM     27  C   UNL     1       2.377   1.411  -0.014  0.00  0.00    +0.002 A 
ENDBRANCH  21  22
BRANCH  21  28
ATOM     28  C   UNL     1       4.257  -0.730  -1.442  0.00  0.00    -0.020 A 
ATOM     29  C   UNL     1       4.216  -1.729  -2.357  0.00  0.00    +0.010 A 
ATOM     30  C   UNL     1       4.786  -1.523  -3.600  0.00  0.00    +0.008 A 
ATOM     31  C   UNL     1       5.377  -0.332  -3.862  0.00  0.00    +0.045 A 
ATOM     32  S   UNL     1       5.131   0.549  -2.329  0.00  0.00    -0.103 S 
ENDBRANCH  21  28
ENDBRANCH  18  21
ENDBRANCH  17  18
ENDBRANCH  14  17
TORSDOF 5
