REMARK  Name = ZINC31818589
REMARK  5 active torsions:
REMARK  status: ('A' for Active; 'I' for Inactive)
REMARK    1  A    between atoms: C_5  and  C_6
REMARK    2  A    between atoms: C_9  and  C_11
REMARK    3  A    between atoms: C_11  and  S_12
REMARK    4  A    between atoms: S_12  and  C_13
REMARK    5  A    between atoms: C_17  and  N_19
REMARK                            x       y       z     vdW  Elec       q    Type
REMARK                         _______ _______ _______ _____ _____    ______ ____
ROOT
ATOM      1  S   UNL     1      -0.860   1.669   1.497  0.00  0.00    -0.076 S 
ENDROOT
BRANCH   1   2
ATOM      2  C   UNL     1       0.174   0.961   2.735  0.00  0.00    +0.192 A 
ATOM      3  N   UNL     1       1.220   0.235   2.365  0.00  0.00    -0.207 NA
ATOM      4  C   UNL     1       2.026  -0.311   3.273  0.00  0.00    +0.122 A 
ATOM      5  C   UNL     1       1.752  -0.121   4.624  0.00  0.00    +0.086 A 
ATOM      6  C   UNL     1       0.642   0.642   4.974  0.00  0.00    +0.122 A 
ATOM      7  N   UNL     1      -0.117   1.162   4.012  0.00  0.00    -0.207 NA
ATOM      8  N   UNL     1       3.121  -1.063   2.877  0.00  0.00    -0.343 N 
ATOM      9  H   UNL     1       3.783  -1.511   3.633  0.00  0.00    +0.144 HD
ATOM     10  H   UNL     1       3.329  -1.212   1.807  0.00  0.00    +0.144 HD
BRANCH   6  11
ATOM     11  N   UNL     1       0.330   0.858   6.308  0.00  0.00    -0.343 N 
ATOM     12  H   UNL     1      -0.549   1.462   6.576  0.00  0.00    +0.144 HD
ATOM     13  H   UNL     1       0.962   0.425   7.097  0.00  0.00    +0.144 HD
ENDBRANCH   6  11
ENDBRANCH   1   2
BRANCH   1  14
ATOM     14  C   UNL     1      -0.013   1.086   0.008  0.00  0.00    +0.175 C 
BRANCH  14  18
ATOM     15  C   UNL     1      -2.095   1.750  -2.884  0.00  0.00    +0.284 A 
ATOM     16  N   UNL     1      -1.321   2.813  -2.836  0.00  0.00    -0.104 NA
ATOM     17  N   UNL     1      -0.517   2.707  -1.837  0.00  0.00    -0.111 NA
ATOM     18  C   UNL     1      -0.742   1.585  -1.213  0.00  0.00    +0.228 A 
ATOM     19  O   UNL     1      -1.737   0.950  -1.858  0.00  0.00    -0.417 OA
BRANCH  15  24
ATOM     20  C   UNL     1      -3.498   2.294  -4.911  0.00  0.00    +0.056 A 
ATOM     21  C   UNL     1      -4.543   1.648  -5.596  0.00  0.00    +0.058 A 
ATOM     22  C   UNL     1      -4.779   0.484  -4.954  0.00  0.00    +0.171 A 
ATOM     23  O   UNL     1      -3.931   0.384  -3.918  0.00  0.00    -0.443 OA
ATOM     24  C   UNL     1      -3.147   1.481  -3.874  0.00  0.00    +0.192 A 
ATOM     25 BR   UNL     1      -6.084  -0.796  -5.437  0.00  0.00    -0.008 Br
ENDBRANCH  15  24
ENDBRANCH  14  18
ENDBRANCH   1  14
TORSDOF 5
