REMARK  Name = ZINC09332253
REMARK  5 active torsions:
REMARK  status: ('A' for Active; 'I' for Inactive)
REMARK    1  A    between atoms: C_1  and  C_2
REMARK    2  A    between atoms: C_5  and  C_8
REMARK    3  A    between atoms: C_18  and  C_20
REMARK    4  A    between atoms: N_21  and  C_22
REMARK    5  A    between atoms: C_22  and  C_23
REMARK                            x       y       z     vdW  Elec       q    Type
REMARK                         _______ _______ _______ _____ _____    ______ ____
ROOT
ATOM      1  C   UNL     1       0.059  -4.275  -0.021  0.00  0.00    +0.211 C 
ATOM      2  N   UNL     1       0.574  -4.718  -1.331  0.00  0.00    -0.335 N 
ATOM      3  C   UNL     1       1.690  -5.506  -1.345  0.00  0.00    +0.194 C 
ATOM      4  N   UNL     1       2.301  -5.871  -0.243  0.00  0.00    -0.183 NA
ATOM      5  C   UNL     1       1.907  -5.518   0.987  0.00  0.00    +0.229 C 
ATOM      6  N   UNL     1       0.803  -4.727   1.162  0.00  0.00    -0.211 N 
ATOM      7  C   UNL     1       0.404  -4.368   2.420  0.00  0.00    +0.249 C 
ATOM      8  O   UNL     1      -0.579  -3.664   2.588  0.00  0.00    -0.270 OA
ATOM      9  C   UNL     1       1.155  -4.830   3.516  0.00  0.00    +0.091 C 
ATOM     10  C   UNL     1       2.248  -5.616   3.279  0.00  0.00    +0.047 C 
ATOM     11  N   UNL     1       2.596  -5.939   2.043  0.00  0.00    -0.219 NA
ATOM     12  C   UNL     1       3.066  -6.122   4.439  0.00  0.00    +0.066 C 
ATOM     13  N   UNL     1       2.184  -5.929  -2.545  0.00  0.00    -0.311 N 
ATOM     14  H   UNL     1       1.744  -5.669  -3.370  0.00  0.00    +0.149 HD
ATOM     15  H   UNL     1       0.134  -4.458  -2.155  0.00  0.00    +0.164 HD
ENDROOT
BRANCH   1  20
ATOM     16  C   UNL     1      -0.015   1.503   0.007  0.00  0.00    +0.044 C 
ATOM     17  C   UNL     1       0.004  -0.004  -0.000  0.00  0.00    -0.050 A 
ATOM     18  C   UNL     1       1.210  -0.680   0.039  0.00  0.00    +0.004 A 
ATOM     19  C   UNL     1       1.227  -2.062   0.032  0.00  0.00    +0.007 A 
ATOM     20  C   UNL     1       0.040  -2.768  -0.013  0.00  0.00    -0.007 A 
ATOM     21  C   UNL     1      -1.165  -2.093  -0.052  0.00  0.00    +0.007 A 
ATOM     22  C   UNL     1      -1.183  -0.710  -0.041  0.00  0.00    +0.004 A 
ENDBRANCH   1  20
BRANCH  13  23
ATOM     23  C   UNL     1       3.379  -6.775  -2.588  0.00  0.00    +0.139 C 
BRANCH  23  24
ATOM     24  C   UNL     1       3.714  -7.099  -4.021  0.00  0.00    -0.030 A 
ATOM     25  C   UNL     1       3.174  -8.221  -4.621  0.00  0.00    +0.005 A 
ATOM     26  C   UNL     1       3.481  -8.518  -5.935  0.00  0.00    +0.000 A 
ATOM     27  C   UNL     1       4.328  -7.693  -6.651  0.00  0.00    +0.000 A 
ATOM     28  C   UNL     1       4.868  -6.570  -6.052  0.00  0.00    +0.000 A 
ATOM     29  C   UNL     1       4.557  -6.270  -4.739  0.00  0.00    +0.005 A 
ENDBRANCH  23  24
ENDBRANCH  13  23
TORSDOF 3
