REMARK  Name = ZINC45426619
REMARK  6 active torsions:
REMARK  status: ('A' for Active; 'I' for Inactive)
REMARK    1  A    between atoms: C_1  and  C_2
REMARK    2  A    between atoms: C_2  and  C_4
REMARK    3  A    between atoms: C_2  and  S_16
REMARK    4  A    between atoms: N_9  and  C_10
REMARK    5  A    between atoms: S_16  and  C_17
REMARK    6  A    between atoms: N_21  and  C_22
REMARK                            x       y       z     vdW  Elec       q    Type
REMARK                         _______ _______ _______ _____ _____    ______ ____
ROOT
ATOM      1  S   UNL     1       0.851  -0.589  -1.490  0.00  0.00    -0.073 S 
ENDROOT
BRANCH   1   2
ATOM      2  C   UNL     1      -0.189  -0.057  -2.809  0.00  0.00    +0.198 A 
ATOM      3  N   UNL     1      -1.309   0.613  -2.685  0.00  0.00    -0.120 NA
ATOM      4  N   UNL     1      -1.825   0.838  -3.968  0.00  0.00    -0.112 NA
ATOM      5  C   UNL     1      -1.005   0.299  -4.836  0.00  0.00    +0.225 A 
ATOM      6  N   UNL     1       0.033  -0.265  -4.144  0.00  0.00    -0.257 N 
ATOM      7  N   UNL     1      -1.159   0.303  -6.216  0.00  0.00    -0.299 N 
ATOM      8  C   UNL     1      -0.236  -0.311  -7.183  0.00  0.00    +0.108 C 
ATOM      9  C   UNL     1      -0.799  -0.034  -8.593  0.00  0.00    +0.020 C 
ATOM     10  C   UNL     1      -1.705   1.206  -8.368  0.00  0.00    +0.020 C 
ATOM     11  C   UNL     1      -2.277   0.918  -6.955  0.00  0.00    +0.108 C 
BRANCH   6  12
ATOM     12  C   UNL     1       1.128  -0.940  -4.703  0.00  0.00    +0.070 A 
ATOM     13  C   UNL     1       1.062  -2.308  -4.926  0.00  0.00    +0.028 A 
ATOM     14  C   UNL     1       2.142  -2.971  -5.476  0.00  0.00    +0.002 A 
ATOM     15  C   UNL     1       3.288  -2.272  -5.806  0.00  0.00    +0.002 A 
ATOM     16  C   UNL     1       3.359  -0.909  -5.585  0.00  0.00    +0.022 A 
ATOM     17  C   UNL     1       2.279  -0.239  -5.041  0.00  0.00    +0.065 A 
ATOM     18 CL   UNL     1       2.364   1.473  -4.771  0.00  0.00    -0.081 Cl
ENDBRANCH   6  12
ENDBRANCH   1   2
BRANCH   1  20
ATOM     19  C   UNL     1      -0.019   1.526   0.010  0.00  0.00    +0.029 C 
ATOM     20  C   UNL     1       0.002  -0.004   0.002  0.00  0.00    +0.137 C 
BRANCH  20  21
ATOM     21  C   UNL     1       0.731  -0.503   1.223  0.00  0.00    +0.233 C 
ATOM     22  O   UNL     1       1.911  -0.775   1.156  0.00  0.00    -0.274 OA
ATOM     23  N   UNL     1       0.071  -0.647   2.389  0.00  0.00    -0.239 N 
ATOM     24  C   UNL     1       0.723  -1.094   3.481  0.00  0.00    +0.306 C 
ATOM     25  O   UNL     1       1.906  -1.367   3.414  0.00  0.00    -0.252 OA
ATOM     26  N   UNL     1       0.064  -1.238   4.648  0.00  0.00    -0.296 N 
ATOM     27  H   UNL     1      -0.872  -0.430   2.443  0.00  0.00    +0.159 HD
ATOM     28  H   UNL     1      -0.880  -1.020   4.702  0.00  0.00    +0.151 HD
BRANCH  26  29
ATOM     29  C   UNL     1       0.772  -1.723   5.835  0.00  0.00    +0.074 C 
ATOM     30  C   UNL     1       0.793  -3.253   5.826  0.00  0.00    +0.022 C 
ATOM     31  C   UNL     1       1.533  -3.760   7.066  0.00  0.00    +0.002 C 
ATOM     32  C   UNL     1       0.817  -3.267   8.325  0.00  0.00    +0.000 C 
ATOM     33  C   UNL     1       0.796  -1.737   8.333  0.00  0.00    +0.002 C 
ATOM     34  C   UNL     1       0.056  -1.230   7.094  0.00  0.00    +0.022 C 
ENDBRANCH  26  29
ENDBRANCH  20  21
ENDBRANCH   1  20
TORSDOF 5
