REMARK  Name = ZINC67642685
REMARK  7 active torsions:
REMARK  status: ('A' for Active; 'I' for Inactive)
REMARK    1  A    between atoms: C_1  and  C_2
REMARK    2  A    between atoms: C_2  and  C_4
REMARK    3  A    between atoms: C_2  and  O_12
REMARK    4  A    between atoms: C_8  and  C_10
REMARK    5  A    between atoms: O_12  and  C_13
REMARK    6  A    between atoms: C_13  and  C_15
REMARK    7  A    between atoms: C_15  and  N_16
REMARK                            x       y       z     vdW  Elec       q    Type
REMARK                         _______ _______ _______ _____ _____    ______ ____
ROOT
ATOM      1  C   UNL     1       2.814  -1.159   2.225  0.00  0.00    +0.246 C 
ENDROOT
BRANCH   1   2
ATOM      2  N   UNL     1       4.224  -1.277   1.847  0.00  0.00    -0.285 N 
ATOM      3  C   UNL     1       4.687  -2.439   1.325  0.00  0.00    +0.203 A 
ATOM      4  N   UNL     1       5.934  -2.587   0.975  0.00  0.00    -0.233 NA
ATOM      5  C   UNL     1       6.818  -1.588   1.118  0.00  0.00    +0.124 A 
ATOM      6  C   UNL     1       8.252  -1.437   0.830  0.00  0.00    +0.046 A 
ATOM      7  C   UNL     1       9.228  -2.278   0.298  0.00  0.00    +0.014 A 
ATOM      8  C   UNL     1      10.519  -1.820   0.152  0.00  0.00    +0.001 A 
ATOM      9  C   UNL     1      10.847  -0.527   0.533  0.00  0.00    +0.004 A 
ATOM     10  C   UNL     1       9.892   0.315   1.061  0.00  0.00    +0.047 A 
ATOM     11  C   UNL     1       8.583  -0.128   1.216  0.00  0.00    +0.138 A 
ATOM     12  O   UNL     1       7.469   0.467   1.692  0.00  0.00    -0.448 OA
ATOM     13  C   UNL     1       6.410  -0.368   1.649  0.00  0.00    +0.219 A 
ATOM     14  C   UNL     1       5.053  -0.224   2.017  0.00  0.00    +0.298 A 
ATOM     15  O   UNL     1       4.641   0.825   2.483  0.00  0.00    -0.264 OA
ENDBRANCH   1   2
BRANCH   1  16
ATOM     16  C   UNL     1       2.018  -0.662   1.046  0.00  0.00    +0.328 C 
ATOM     17  O   UNL     1       2.572  -0.429  -0.002  0.00  0.00    -0.249 OA
BRANCH  16  18
ATOM     18  O   UNL     1       0.693  -0.477   1.160  0.00  0.00    -0.456 OA
BRANCH  18  20
ATOM     19  C   UNL     1      -0.019   1.526   0.010  0.00  0.00    +0.057 C 
ATOM     20  C   UNL     1       0.002  -0.004   0.002  0.00  0.00    +0.204 C 
BRANCH  20  21
ATOM     21  C   UNL     1      -1.412  -0.526   0.013  0.00  0.00    -0.006 A 
ATOM     22  C   UNL     1      -2.122  -0.570   1.200  0.00  0.00    +0.007 A 
ATOM     23  C   UNL     1      -3.421  -1.048   1.218  0.00  0.00    +0.002 A 
ATOM     24  C   UNL     1      -4.016  -1.482   0.052  0.00  0.00    +0.019 A 
ATOM     25  C   UNL     1      -3.305  -1.440  -1.149  0.00  0.00    +0.052 A 
ATOM     26  C   UNL     1      -1.997  -0.952  -1.161  0.00  0.00    +0.026 A 
BRANCH  25  27
ATOM     27  C   UNL     1      -3.917  -1.889  -2.363  0.00  0.00    +0.099 C 
ATOM     28  N   UNL     1      -4.402  -2.246  -3.326  0.00  0.00    -0.191 NA
ENDBRANCH  25  27
ENDBRANCH  20  21
ENDBRANCH  18  20
ENDBRANCH  16  18
ENDBRANCH   1  16
TORSDOF 6
