REMARK  Name = ZINC40144225
REMARK  9 active torsions:
REMARK  status: ('A' for Active; 'I' for Inactive)
REMARK    1  A    between atoms: C_1  and  C_2
REMARK    2  A    between atoms: C_2  and  C_3
REMARK    3  A    between atoms: C_2  and  C_4
REMARK    4  A    between atoms: C_7  and  C_10
REMARK    5  A    between atoms: C_10  and  C_12
REMARK    6  A    between atoms: C_10  and  N_25
REMARK    7  A    between atoms: C_12  and  C_14
REMARK    8  A    between atoms: C_12  and  C_16
REMARK    9  A    between atoms: C_26  and  N_27
REMARK                            x       y       z     vdW  Elec       q    Type
REMARK                         _______ _______ _______ _____ _____    ______ ____
ROOT
ATOM      1  C   UNL     1       2.797  -1.919   4.683  0.00  0.00    +0.160 C 
ENDROOT
BRANCH   1   2
ATOM      2  N   UNL     1       2.338  -3.272   5.006  0.00  0.00    -0.261 N 
ATOM      3  C   UNL     1       3.134  -4.379   5.155  0.00  0.00    +0.117 A 
ATOM      4  C   UNL     1       2.328  -5.441   5.452  0.00  0.00    +0.114 A 
ATOM      5  C   UNL     1       1.003  -4.984   5.488  0.00  0.00    +0.266 A 
ATOM      6  O   UNL     1       0.017  -5.661   5.724  0.00  0.00    -0.266 OA
ATOM      7  N   UNL     1       1.010  -3.662   5.223  0.00  0.00    -0.261 N 
ATOM      8  H   UNL     1       0.233  -3.084   5.185  0.00  0.00    +0.190 HD
BRANCH   3   9
ATOM      9  N   UNL     1       4.499  -4.414   5.029  0.00  0.00    -0.343 N 
ATOM     10  H   UNL     1       4.987  -3.603   4.815  0.00  0.00    +0.144 HD
ATOM     11  H   UNL     1       4.976  -5.249   5.153  0.00  0.00    +0.144 HD
ENDBRANCH   3   9
ENDBRANCH   1   2
BRANCH   1  15
ATOM     12  C   UNL     1       1.289  -0.781   0.852  0.00  0.00    -0.045 A 
ATOM     13  C   UNL     1       2.611  -0.539   1.174  0.00  0.00    +0.004 A 
ATOM     14  C   UNL     1       3.099  -0.907   2.414  0.00  0.00    +0.006 A 
ATOM     15  C   UNL     1       2.265  -1.517   3.332  0.00  0.00    -0.021 A 
ATOM     16  C   UNL     1       0.942  -1.758   3.010  0.00  0.00    +0.006 A 
ATOM     17  C   UNL     1       0.453  -1.386   1.772  0.00  0.00    +0.004 A 
BRANCH  12  19
ATOM     18  C   UNL     1       0.917   1.131  -0.683  0.00  0.00    +0.012 C 
ATOM     19  C   UNL     1       0.757  -0.380  -0.500  0.00  0.00    +0.013 C 
ATOM     20  C   UNL     1       1.538  -1.112  -1.593  0.00  0.00    +0.012 C 
ENDBRANCH  12  19
ENDBRANCH   1  15
BRANCH   1  21
ATOM     21  C   UNL     1       2.287  -0.941   5.744  0.00  0.00    +0.176 C 
BRANCH  21  22
ATOM     22  C   UNL     1       2.916  -1.269   7.073  0.00  0.00    +0.099 A 
ATOM     23  N   UNL     1       2.837  -2.383   7.740  0.00  0.00    -0.243 NA
ATOM     24  C   UNL     1       3.451  -2.555   8.929  0.00  0.00    +0.079 A 
ATOM     25  C   UNL     1       3.474  -3.678   9.782  0.00  0.00    +0.029 A 
ATOM     26  C   UNL     1       4.164  -3.643  10.955  0.00  0.00    +0.002 A 
ATOM     27  C   UNL     1       4.864  -2.512  11.353  0.00  0.00    +0.001 A 
ATOM     28  C   UNL     1       4.865  -1.391  10.543  0.00  0.00    +0.017 A 
ATOM     29  C   UNL     1       4.171  -1.417   9.358  0.00  0.00    +0.039 A 
ATOM     30  S   UNL     1       3.886  -0.279   8.028  0.00  0.00    -0.071 S 
ENDBRANCH  21  22
BRANCH  21  31
ATOM     31  C   UNL     1       0.823  -1.054   5.852  0.00  0.00    +0.075 C 
ATOM     32  N   UNL     1      -0.306  -1.142   5.936  0.00  0.00    -0.196 NA
ENDBRANCH  21  31
ENDBRANCH   1  21
TORSDOF 7
