REMARK  Name = ZINC39686909
REMARK  10 active torsions:
REMARK  status: ('A' for Active; 'I' for Inactive)
REMARK    1  A    between atoms: C_1  and  C_2
REMARK    2  A    between atoms: C_2  and  C_4
REMARK    3  A    between atoms: C_2  and  N_12
REMARK    4  A    between atoms: C_4  and  C_5
REMARK    5  A    between atoms: C_13  and  C_15
REMARK    6  A    between atoms: C_26  and  C_28
REMARK    7  A    between atoms: C_31  and  O_36
REMARK    8  A    between atoms: C_33  and  O_34
REMARK    9  A    between atoms: O_34  and  C_35
REMARK   10  A    between atoms: O_36  and  C_37
REMARK                            x       y       z     vdW  Elec       q    Type
REMARK                         _______ _______ _______ _____ _____    ______ ____
ROOT
ATOM      1  C   UNL     1       2.078  -0.544   0.059  0.00  0.00    +0.100 C 
ATOM      2  C   UNL     1       1.325  -1.853  -0.271  0.00  0.00    +0.121 C 
ATOM      3  N   UNL     1       0.387  -2.040   0.861  0.00  0.00    -0.296 N 
ATOM      4  C   UNL     1      -0.103  -0.674   1.163  0.00  0.00    +0.115 C 
ATOM      5  C   UNL     1       1.136   0.228   0.997  0.00  0.00    -0.004 C 
ATOM      6  C   UNL     1       0.739   1.560   0.367  0.00  0.00    -0.010 C 
ATOM      7  C   UNL     1      -0.150   2.336   1.343  0.00  0.00    -0.082 C 
ATOM      8  N   UNL     1       0.577   2.562   2.598  0.00  0.00    +0.379 N 
ATOM      9  C   UNL     1       0.874   1.277   3.243  0.00  0.00    -0.082 C 
ATOM     10  C   UNL     1       1.806   0.457   2.348  0.00  0.00    -0.010 C 
ATOM     11  C   UNL     1       0.054  -3.192   1.476  0.00  0.00    +0.250 C 
ATOM     12  O   UNL     1      -0.742  -3.182   2.395  0.00  0.00    -0.270 OA
ATOM     13  H   UNL     1       1.441   3.045   2.402  0.00  0.00    -0.086 HD
ATOM     14  H   UNL     1       0.013   3.125   3.216  0.00  0.00    -0.086 HD
ENDROOT
BRANCH  11  15
ATOM     15  C   UNL     1       0.655  -4.463   1.036  0.00  0.00    +0.079 A 
ATOM     16  C   UNL     1       2.011  -4.715   1.265  0.00  0.00    +0.020 A 
ATOM     17  C   UNL     1       2.568  -5.903   0.853  0.00  0.00    +0.046 A 
ATOM     18  C   UNL     1       1.787  -6.856   0.206  0.00  0.00    +0.124 A 
ATOM     19  C   UNL     1       0.442  -6.616  -0.027  0.00  0.00    +0.092 A 
ATOM     20  C   UNL     1      -0.132  -5.427   0.389  0.00  0.00    +0.136 A 
BRANCH  20  21
ATOM     21  O   UNL     1      -1.450  -5.193   0.167  0.00  0.00    -0.494 OA
ATOM     22  C   UNL     1      -2.189  -6.220  -0.497  0.00  0.00    +0.277 C 
ENDBRANCH  20  21
BRANCH  18  23
ATOM     23  O   UNL     1       2.345  -8.026  -0.198  0.00  0.00    -0.495 OA
ATOM     24  C   UNL     1       3.705  -8.258   0.174  0.00  0.00    +0.277 C 
ENDBRANCH  18  23
ENDBRANCH  11  15
BRANCH   1  26
ATOM     25  N   UNL     1       4.512  -0.231   0.368  0.00  0.00    -0.312 N 
ATOM     26  C   UNL     1       3.379  -0.849   0.756  0.00  0.00    +0.218 C 
ATOM     27  O   UNL     1       3.406  -1.650   1.666  0.00  0.00    -0.275 OA
ATOM     28  H   UNL     1       4.495   0.395  -0.373  0.00  0.00    +0.149 HD
BRANCH  25  30
ATOM     29  C   UNL     1       6.433   0.817   1.460  0.00  0.00    +0.028 C 
ATOM     30  C   UNL     1       5.771  -0.505   1.066  0.00  0.00    +0.074 C 
BRANCH  30  31
ATOM     31  C   UNL     1       6.707  -1.288   0.142  0.00  0.00    +0.060 C 
BRANCH  31  32
ATOM     32  C   UNL     1       5.903  -2.265  -0.676  0.00  0.00    -0.010 A 
ATOM     33  C   UNL     1       5.974  -3.618  -0.402  0.00  0.00    +0.006 A 
ATOM     34  C   UNL     1       5.236  -4.516  -1.151  0.00  0.00    +0.000 A 
ATOM     35  C   UNL     1       4.427  -4.061  -2.176  0.00  0.00    +0.003 A 
ATOM     36  C   UNL     1       4.354  -2.709  -2.451  0.00  0.00    +0.038 A 
ATOM     37  C   UNL     1       5.088  -1.809  -1.698  0.00  0.00    +0.127 A 
ATOM     38  F   UNL     1       5.014  -0.486  -1.963  0.00  0.00    -0.205 F 
ENDBRANCH  31  32
ENDBRANCH  30  31
ENDBRANCH  25  30
ENDBRANCH   1  26
TORSDOF 7
