REMARK  Name = ZINC16022234
REMARK  8 active torsions:
REMARK  status: ('A' for Active; 'I' for Inactive)
REMARK    1  A    between atoms: C_1  and  C_2
REMARK    2  A    between atoms: C_2  and  C_3
REMARK    3  A    between atoms: C_2  and  C_4
REMARK    4  A    between atoms: C_4  and  C_5
REMARK    5  A    between atoms: N_13  and  C_16
REMARK    6  A    between atoms: C_16  and  C_17
REMARK    7  A    between atoms: C_16  and  C_18
REMARK    8  A    between atoms: C_16  and  C_19
REMARK                            x       y       z     vdW  Elec       q    Type
REMARK                         _______ _______ _______ _____ _____    ______ ____
ROOT
ATOM      1  C   UNL     1      -1.416  -2.058  -0.121  0.00  0.00    -0.057 C 
ATOM      2  C   UNL     1      -2.849  -2.622  -0.026  0.00  0.00    +0.073 C 
ATOM      3  C   UNL     1      -2.882  -3.799  -1.041  0.00  0.00    +0.088 C 
ATOM      4  C   UNL     1      -3.064  -5.014  -0.161  0.00  0.00    +0.225 C 
ATOM      5  O   UNL     1      -3.136  -6.159  -0.553  0.00  0.00    -0.275 OA
ATOM      6  N   UNL     1      -3.132  -4.630   1.119  0.00  0.00    -0.236 N 
ATOM      7  C   UNL     1      -3.029  -3.295   1.317  0.00  0.00    +0.224 C 
ATOM      8  O   UNL     1      -3.070  -2.725   2.386  0.00  0.00    -0.275 OA
ATOM      9  C   UNL     1      -1.486  -3.802  -1.674  0.00  0.00    +0.050 C 
ATOM     10  N   UNL     1      -0.938  -2.453  -1.473  0.00  0.00    +0.394 N 
ATOM     11  C   UNL     1      -0.594  -4.832  -1.042  0.00  0.00    -0.026 A 
ATOM     12  C   UNL     1      -0.153  -5.041   0.246  0.00  0.00    +0.024 A 
ATOM     13  C   UNL     1       0.687  -6.106   0.526  0.00  0.00    +0.041 A 
ATOM     14  C   UNL     1       1.081  -6.958  -0.491  0.00  0.00    +0.022 A 
ATOM     15  C   UNL     1       0.639  -6.752  -1.782  0.00  0.00    +0.025 A 
ATOM     16  C   UNL     1      -0.205  -5.683  -2.072  0.00  0.00    +0.036 A 
ATOM     17  N   UNL     1      -0.777  -5.273  -3.279  0.00  0.00    -0.286 N 
ATOM     18  C   UNL     1      -1.543  -4.175  -3.131  0.00  0.00    +0.211 C 
ATOM     19  O   UNL     1      -2.161  -3.600  -4.002  0.00  0.00    -0.277 OA
ATOM     20 CL   UNL     1       1.245  -6.371   2.148  0.00  0.00    -0.084 Cl
ATOM     21  H   UNL     1      -1.303  -1.826  -2.174  0.00  0.00    -0.083 HD
ATOM     22  H   UNL     1      -0.637  -5.725  -4.125  0.00  0.00    +0.155 HD
ATOM     23  H   UNL     1       0.071  -2.467  -1.501  0.00  0.00    -0.083 HD
ENDROOT
BRANCH   6  24
ATOM     24  C   UNL     1      -3.311  -5.577   2.223  0.00  0.00    +0.036 C 
ATOM     25  C   UNL     1      -2.146  -6.569   2.236  0.00  0.00    +0.031 C 
ATOM     26  C   UNL     1      -3.347  -4.815   3.549  0.00  0.00    +0.031 C 
ATOM     27  C   UNL     1      -4.625  -6.337   2.034  0.00  0.00    +0.031 C 
ENDBRANCH   6  24
BRANCH   1  28
ATOM     28  C   UNL     1      -1.433  -0.534   0.013  0.00  0.00    -0.012 C 
BRANCH  28  30
ATOM     29  C   UNL     1      -0.019   1.526   0.010  0.00  0.00    +0.007 C 
ATOM     30  C   UNL     1       0.002  -0.004   0.002  0.00  0.00    -0.019 C 
ATOM     31  C   UNL     1       0.742  -0.511   1.242  0.00  0.00    +0.007 C 
ENDBRANCH  28  30
ENDBRANCH   1  28
TORSDOF 3
