REMARK  Name = ZINC49477401
REMARK  7 active torsions:
REMARK  status: ('A' for Active; 'I' for Inactive)
REMARK    1  A    between atoms: C_1  and  C_2
REMARK    2  A    between atoms: C_2  and  C_3
REMARK    3  A    between atoms: C_3  and  C_5
REMARK    4  A    between atoms: C_3  and  N_6
REMARK    5  A    between atoms: N_9  and  C_10
REMARK    6  A    between atoms: C_13  and  C_16
REMARK    7  A    between atoms: N_18  and  C_19
REMARK                            x       y       z     vdW  Elec       q    Type
REMARK                         _______ _______ _______ _____ _____    ______ ____
ROOT
ATOM      1  C   UNL     1       0.519   0.535  -6.014  0.00  0.00    +0.074 C 
ATOM      2  C   UNL     1       1.105   1.944  -6.120  0.00  0.00    +0.023 C 
ATOM      3  C   UNL     1      -0.020   2.974  -6.003  0.00  0.00    +0.014 C 
ATOM      4  C   UNL     1      -1.032   2.756  -7.130  0.00  0.00    +0.075 C 
ATOM      5  C   UNL     1      -1.617   1.346  -7.023  0.00  0.00    +0.014 C 
ATOM      6  C   UNL     1      -0.492   0.316  -7.141  0.00  0.00    +0.023 C 
ENDROOT
BRANCH   1  10
ATOM      7  N   UNL     1      -0.055  -0.114  -2.441  0.00  0.00    -0.297 N 
ATOM      8  C   UNL     1       0.561   0.028  -3.631  0.00  0.00    +0.300 C 
ATOM      9  O   UNL     1       1.758  -0.163  -3.722  0.00  0.00    -0.253 OA
ATOM     10  N   UNL     1      -0.150   0.381  -4.720  0.00  0.00    -0.297 N 
ATOM     11  H   UNL     1      -1.010   0.038  -2.368  0.00  0.00    +0.151 HD
ATOM     12  H   UNL     1      -1.105   0.533  -4.647  0.00  0.00    +0.151 HD
BRANCH   7  13
ATOM     13  C   UNL     1       0.718  -0.497  -1.257  0.00  0.00    +0.071 C 
ATOM     14  C   UNL     1       0.849  -2.021  -1.205  0.00  0.00    +0.028 C 
BRANCH  13  16
ATOM     15  C   UNL     1      -0.019   1.526   0.010  0.00  0.00    +0.005 C 
ATOM     16  C   UNL     1       0.002  -0.004   0.002  0.00  0.00    +0.019 C 
ENDBRANCH  13  16
ENDBRANCH   7  13
ENDBRANCH   1  10
BRANCH   4  17
ATOM     17  C   UNL     1      -2.140   3.770  -7.013  0.00  0.00    +0.216 C 
ATOM     18  O   UNL     1      -2.123   4.588  -6.117  0.00  0.00    -0.276 OA
ATOM     19  N   UNL     1      -3.151   3.769  -7.905  0.00  0.00    -0.318 N 
ATOM     20  C   UNL     1      -4.228   4.756  -7.792  0.00  0.00    +0.128 C 
ATOM     21  H   UNL     1      -3.165   3.116  -8.622  0.00  0.00    +0.148 HD
ENDBRANCH   4  17
TORSDOF 4
