REMARK  Name = ZINC53493785
REMARK  4 active torsions:
REMARK  status: ('A' for Active; 'I' for Inactive)
REMARK    1  A    between atoms: C_1  and  C_2
REMARK    2  A    between atoms: C_7  and  N_12
REMARK    3  A    between atoms: C_9  and  C_11
REMARK    4  A    between atoms: C_18  and  C_21
REMARK                            x       y       z     vdW  Elec       q    Type
REMARK                         _______ _______ _______ _____ _____    ______ ____
ROOT
ATOM      1  N   UNL     1       1.472  -2.526   2.420  0.00  0.00    -0.296 N 
ATOM      2  C   UNL     1       1.207  -3.754   2.907  0.00  0.00    +0.302 C 
ATOM      3  O   UNL     1       0.317  -4.424   2.419  0.00  0.00    -0.253 OA
ATOM      4  N   UNL     1       1.928  -4.241   3.937  0.00  0.00    -0.286 N 
ATOM      5  C   UNL     1       1.731  -5.620   4.404  0.00  0.00    +0.110 C 
ATOM      6  C   UNL     1       3.085  -6.335   4.415  0.00  0.00    +0.032 C 
ATOM      7  C   UNL     1       4.079  -5.525   5.250  0.00  0.00    +0.078 C 
ATOM      8  C   UNL     1       4.269  -4.143   4.621  0.00  0.00    +0.032 C 
ATOM      9  C   UNL     1       2.932  -3.404   4.609  0.00  0.00    +0.110 C 
ATOM     10  H   UNL     1       2.131  -1.963   2.855  0.00  0.00    +0.151 HD
ENDROOT
BRANCH   1  16
ATOM     11  C   UNL     1      -0.016   1.524   0.006  0.00  0.00    +0.008 C 
ATOM     12  C   UNL     1       0.005  -0.006  -0.002  0.00  0.00    -0.009 C 
ATOM     13  C   UNL     1       0.722  -0.500  -1.259  0.00  0.00    +0.003 C 
ATOM     14  C   UNL     1       0.743  -2.030  -1.267  0.00  0.00    +0.002 C 
ATOM     15  C   UNL     1       1.482  -2.536  -0.026  0.00  0.00    +0.022 C 
ATOM     16  C   UNL     1       0.764  -2.042   1.232  0.00  0.00    +0.078 C 
ATOM     17  C   UNL     1       0.744  -0.512   1.239  0.00  0.00    +0.009 C 
ATOM     18  C   UNL     1       0.026  -0.018   2.497  0.00  0.00    +0.009 C 
ENDBRANCH   1  16
BRANCH   7  19
ATOM     19  C   UNL     1       5.403  -6.244   5.291  0.00  0.00    +0.214 C 
ATOM     20  O   UNL     1       5.538  -7.300   4.710  0.00  0.00    -0.276 OA
ATOM     21  N   UNL     1       6.437  -5.713   5.974  0.00  0.00    -0.329 N 
ATOM     22  H   UNL     1       6.329  -4.869   6.439  0.00  0.00    +0.145 HD
ATOM     23  H   UNL     1       7.289  -6.176   6.000  0.00  0.00    +0.145 HD
ENDBRANCH   7  19
TORSDOF 2
