REMARK  Name = ZINC13769624
REMARK  6 active torsions:
REMARK  status: ('A' for Active; 'I' for Inactive)
REMARK    1  A    between atoms: C_1  and  O_2
REMARK    2  A    between atoms: O_2  and  C_3
REMARK    3  A    between atoms: C_6  and  C_9
REMARK    4  A    between atoms: N_17  and  C_20
REMARK    5  A    between atoms: C_28  and  N_32
REMARK    6  A    between atoms: C_29  and  C_30
REMARK                            x       y       z     vdW  Elec       q    Type
REMARK                         _______ _______ _______ _____ _____    ______ ____
ROOT
ATOM      1  C   UNL     1       2.505  -2.503  -4.381  0.00  0.00    +0.075 C 
ATOM      2  C   UNL     1       1.440  -3.285  -5.141  0.00  0.00    +0.110 C 
ATOM      3  C   UNL     1       2.049  -4.271  -6.153  0.00  0.00    +0.152 C 
ATOM      4  C   UNL     1       2.561  -3.364  -7.231  0.00  0.00    +0.240 C 
ATOM      5  O   UNL     1       3.514  -3.550  -7.957  0.00  0.00    -0.274 OA
ATOM      6  N   UNL     1       1.730  -2.293  -7.223  0.00  0.00    -0.209 N 
ATOM      7  C   UNL     1       0.878  -2.248  -6.140  0.00  0.00    +0.232 C 
ATOM      8  O   UNL     1      -0.107  -1.558  -5.989  0.00  0.00    -0.274 OA
ATOM      9  S   UNL     1       3.253  -5.386  -5.447  0.00  0.00    -0.096 S 
ATOM     10  C   UNL     1       4.122  -4.431  -4.252  0.00  0.00    +0.074 C 
ATOM     11  C   UNL     1       3.670  -3.248  -3.870  0.00  0.00    +0.064 C 
ENDROOT
BRANCH   6  12
ATOM     12  C   UNL     1       1.734  -1.313  -8.226  0.00  0.00    +0.044 A 
ATOM     13  C   UNL     1       0.859  -0.238  -8.150  0.00  0.00    +0.025 A 
ATOM     14  C   UNL     1       0.864   0.726  -9.139  0.00  0.00    +0.017 A 
ATOM     15  C   UNL     1       1.741   0.621 -10.204  0.00  0.00    +0.018 A 
ATOM     16  C   UNL     1       2.614  -0.449 -10.282  0.00  0.00    +0.017 A 
ATOM     17  C   UNL     1       2.616  -1.413  -9.293  0.00  0.00    +0.025 A 
ATOM     18 BR   UNL     1       1.745   1.943 -11.557  0.00  0.00    -0.050 Br
ENDBRANCH   6  12
BRANCH   1  22
ATOM     19  C   UNL     1       0.606  -0.607  -1.056  0.00  0.00    +0.120 A 
ATOM     20  C   UNL     1       1.173   0.161  -2.062  0.00  0.00    +0.046 A 
ATOM     21  C   UNL     1       1.786  -0.455  -3.136  0.00  0.00    +0.008 A 
ATOM     22  C   UNL     1       1.835  -1.835  -3.209  0.00  0.00    -0.038 A 
ATOM     23  C   UNL     1       1.270  -2.602  -2.207  0.00  0.00    +0.008 A 
ATOM     24  C   UNL     1       0.661  -1.992  -1.128  0.00  0.00    +0.046 A 
BRANCH  19  26
ATOM     25  C   UNL     1      -0.017   1.425   0.010  0.00  0.00    +0.277 C 
ATOM     26  O   UNL     1       0.002  -0.004   0.002  0.00  0.00    -0.495 OA
ENDBRANCH  19  26
ENDBRANCH   1  22
BRANCH  10  27
ATOM     27  N   UNL     1       5.280  -4.926  -3.701  0.00  0.00    -0.352 N 
ATOM     28  H   UNL     1       5.613  -5.796  -3.972  0.00  0.00    +0.143 HD
ATOM     29  H   UNL     1       5.764  -4.405  -3.042  0.00  0.00    +0.143 HD
ENDBRANCH  10  27
BRANCH  11  30
ATOM     30  C   UNL     1       4.407  -2.621  -2.815  0.00  0.00    +0.098 C 
ATOM     31  N   UNL     1       4.992  -2.123  -1.978  0.00  0.00    -0.191 NA
ENDBRANCH  11  30
TORSDOF 5
