REMARK  Name = ZINC13635926
REMARK  6 active torsions:
REMARK  status: ('A' for Active; 'I' for Inactive)
REMARK    1  A    between atoms: C_1  and  C_2
REMARK    2  A    between atoms: C_2  and  C_3
REMARK    3  A    between atoms: C_2  and  C_4
REMARK    4  A    between atoms: C_11  and  N_24
REMARK    5  A    between atoms: C_12  and  C_22
REMARK    6  A    between atoms: C_13  and  C_15
REMARK                            x       y       z     vdW  Elec       q    Type
REMARK                         _______ _______ _______ _____ _____    ______ ____
ROOT
ATOM      1  C   UNL     1      -1.542  -0.576   0.096  0.00  0.00    +0.073 A 
ATOM      2  C   UNL     1      -2.073  -1.439  -0.853  0.00  0.00    +0.046 A 
ATOM      3  C   UNL     1      -3.384  -1.661  -0.537  0.00  0.00    +0.222 A 
ATOM      4  N   UNL     1      -3.659  -0.959   0.574  0.00  0.00    -0.246 N 
ATOM      5  H   UNL     1      -4.513  -0.924   1.031  0.00  0.00    +0.192 HD
ATOM      6  N   UNL     1      -2.487  -0.288   0.959  0.00  0.00    -0.175 NA
ATOM      7  O   UNL     1      -4.190  -2.463  -1.277  0.00  0.00    -0.423 OA
ATOM      8  C   UNL     1      -3.752  -2.833  -2.498  0.00  0.00    +0.200 C 
ATOM      9  C   UNL     1      -2.477  -2.677  -2.919  0.00  0.00    +0.094 C 
ATOM     10  C   UNL     1      -1.406  -2.070  -2.048  0.00  0.00    +0.078 C 
ENDROOT
BRANCH  10  11
ATOM     11  C   UNL     1      -0.438  -3.160  -1.583  0.00  0.00    +0.024 C 
ATOM     12  C   UNL     1       0.364  -3.671  -2.782  0.00  0.00    +0.009 C 
ATOM     13  C   UNL     1       1.131  -4.928  -2.353  0.00  0.00    +0.005 C 
ATOM     14  C   UNL     1       0.120  -6.041  -2.075  0.00  0.00    +0.027 C 
ATOM     15  C   UNL     1      -0.970  -5.537  -1.174  0.00  0.00    -0.031 C 
ATOM     16  C   UNL     1      -1.215  -4.285  -0.967  0.00  0.00    -0.027 C 
ENDBRANCH  10  11
BRANCH   1  18
ATOM     17  C   UNL     1      -0.133   1.464   0.058  0.00  0.00    +0.014 C 
ATOM     18  C   UNL     1      -0.125  -0.064   0.133  0.00  0.00    +0.034 C 
ATOM     19  C   UNL     1       0.544  -0.508   1.435  0.00  0.00    +0.014 C 
ENDBRANCH   1  18
BRANCH   8  20
ATOM     20  N   UNL     1      -4.654  -3.401  -3.363  0.00  0.00    -0.328 N 
ATOM     21  H   UNL     1      -5.576  -3.526  -3.089  0.00  0.00    +0.145 HD
ATOM     22  H   UNL     1      -4.369  -3.677  -4.248  0.00  0.00    +0.145 HD
ENDBRANCH   8  20
BRANCH   9  23
ATOM     23  C   UNL     1      -2.131  -3.105  -4.241  0.00  0.00    +0.100 C 
ATOM     24  N   UNL     1      -1.856  -3.444  -5.290  0.00  0.00    -0.191 NA
ENDBRANCH   9  23
TORSDOF 4
