REMARK  Name = ZINC09542886
REMARK  8 active torsions:
REMARK  status: ('A' for Active; 'I' for Inactive)
REMARK    1  A    between atoms: C_1  and  C_2
REMARK    2  A    between atoms: C_5  and  C_8
REMARK    3  A    between atoms: C_10  and  C_23
REMARK    4  A    between atoms: C_12  and  C_15
REMARK    5  A    between atoms: C_20  and  O_21
REMARK    6  A    between atoms: C_26  and  C_29
REMARK    7  A    between atoms: C_29  and  O_31
REMARK    8  A    between atoms: O_31  and  C_32
REMARK                            x       y       z     vdW  Elec       q    Type
REMARK                         _______ _______ _______ _____ _____    ______ ____
ROOT
ATOM      1  C   UNL     1      -3.248   5.657  -1.424  0.00  0.00    +0.040 C 
ATOM      2  N   UNL     1      -2.396   5.155  -0.612  0.00  0.00    -0.299 NA
ATOM      3  C   UNL     1      -2.554   3.865   0.046  0.00  0.00    +0.081 C 
ATOM      4  C   UNL     1      -4.806   3.827  -0.817  0.00  0.00    -0.028 C 
ATOM      5  C   UNL     1      -4.525   4.962  -1.807  0.00  0.00    +0.044 C 
ATOM      6  N   UNL     1      -3.565   3.048  -0.642  0.00  0.00    +0.401 N 
ATOM      7  H   UNL     1      -3.764   2.210  -0.083  0.00  0.00    -0.081 HD
ATOM      8  H   UNL     1      -3.207   2.768  -1.563  0.00  0.00    -0.081 HD
ENDROOT
BRANCH   1  13
ATOM      9  C   UNL     1      -2.145  10.817  -3.715  0.00  0.00    +0.044 C 
ATOM     10  C   UNL     1      -2.434   9.466  -3.114  0.00  0.00    -0.050 A 
ATOM     11  C   UNL     1      -1.532   8.896  -2.233  0.00  0.00    +0.004 A 
ATOM     12  C   UNL     1      -1.790   7.659  -1.681  0.00  0.00    +0.010 A 
ATOM     13  C   UNL     1      -2.965   6.981  -2.012  0.00  0.00    -0.004 A 
ATOM     14  C   UNL     1      -3.869   7.559  -2.906  0.00  0.00    +0.010 A 
ATOM     15  C   UNL     1      -3.601   8.800  -3.447  0.00  0.00    +0.004 A 
ENDBRANCH   1  13
BRANCH   4  16
ATOM     16  C   UNL     1      -5.890   2.933  -1.361  0.00  0.00    -0.018 A 
ATOM     17  C   UNL     1      -5.558   1.755  -2.001  0.00  0.00    +0.025 A 
ATOM     18  C   UNL     1      -6.554   0.931  -2.496  0.00  0.00    +0.041 A 
ATOM     19  C   UNL     1      -7.883   1.292  -2.362  0.00  0.00    +0.023 A 
ATOM     20  C   UNL     1      -8.219   2.472  -1.728  0.00  0.00    +0.047 A 
ATOM     21  C   UNL     1      -7.222   3.297  -1.226  0.00  0.00    +0.119 A 
ATOM     22 CL   UNL     1      -6.134  -0.553  -3.293  0.00  0.00    -0.084 Cl
BRANCH  21  23
ATOM     23  O   UNL     1      -7.550   4.459  -0.603  0.00  0.00    -0.507 OA
ATOM     24  H   UNL     1      -7.608   5.221  -1.196  0.00  0.00    +0.292 HD
ENDBRANCH  21  23
ENDBRANCH   4  16
BRANCH   3  25
ATOM     25  C   UNL     1      -1.236   3.134   0.030  0.00  0.00    -0.040 A 
ATOM     26  C   UNL     1      -1.216   1.751   0.017  0.00  0.00    +0.004 A 
ATOM     27  C   UNL     1      -0.013   1.076   0.008  0.00  0.00    +0.015 A 
ATOM     28  C   UNL     1       1.186   1.792   0.000  0.00  0.00    +0.059 A 
ATOM     29  C   UNL     1       1.158   3.188   0.008  0.00  0.00    +0.015 A 
ATOM     30  C   UNL     1      -0.052   3.850   0.022  0.00  0.00    +0.004 A 
BRANCH  28  31
ATOM     31  C   UNL     1       2.478   1.076  -0.015  0.00  0.00    +0.339 C 
ATOM     32  O   UNL     1       2.499  -0.139  -0.021  0.00  0.00    -0.245 OA
BRANCH  31  33
ATOM     33  O   UNL     1       3.633   1.770  -0.022  0.00  0.00    -0.464 OA
ATOM     34  C   UNL     1       4.864   1.000  -0.037  0.00  0.00    +0.280 C 
ENDBRANCH  31  33
ENDBRANCH  28  31
ENDBRANCH   3  25
TORSDOF 6
