REMARK  Name = ZINC21252557
REMARK  9 active torsions:
REMARK  status: ('A' for Active; 'I' for Inactive)
REMARK    1  A    between atoms: C_1  and  C_2
REMARK    2  A    between atoms: C_2  and  C_3
REMARK    3  A    between atoms: C_2  and  O_4
REMARK    4  A    between atoms: O_4  and  C_5
REMARK    5  A    between atoms: C_8  and  C_13
REMARK    6  A    between atoms: C_10  and  O_11
REMARK    7  A    between atoms: O_11  and  C_12
REMARK    8  A    between atoms: C_18  and  C_28
REMARK    9  A    between atoms: C_31  and  N_34
REMARK                            x       y       z     vdW  Elec       q    Type
REMARK                         _______ _______ _______ _____ _____    ______ ____
ROOT
ATOM      1  C   UNL     1      -5.115   5.103  -4.109  0.00  0.00    +0.032 C 
ATOM      2  C   UNL     1      -5.581   6.214  -3.170  0.00  0.00    +0.059 C 
ATOM      3  C   UNL     1      -5.285   5.835  -1.728  0.00  0.00    +0.017 C 
ATOM      4  C   UNL     1      -5.304   4.548  -1.343  0.00  0.00    +0.036 C 
ATOM      5  C   UNL     1      -5.030   4.036   0.051  0.00  0.00    +0.136 C 
ATOM      6  N   UNL     1      -4.984   5.067   1.066  0.00  0.00    -0.331 N 
ATOM      7  C   UNL     1      -3.998   6.048   1.049  0.00  0.00    +0.049 A 
ATOM      8  C   UNL     1      -3.022   6.109   2.032  0.00  0.00    +0.025 A 
ATOM      9  C   UNL     1      -2.013   7.050   1.931  0.00  0.00    +0.002 A 
ATOM     10  C   UNL     1      -1.975   7.926   0.861  0.00  0.00    +0.002 A 
ATOM     11  C   UNL     1      -2.961   7.883  -0.110  0.00  0.00    +0.025 A 
ATOM     12  C   UNL     1      -3.981   6.955   0.001  0.00  0.00    +0.052 A 
ATOM     13  N   UNL     1      -5.031   6.889  -0.909  0.00  0.00    -0.316 N 
ATOM     14  C   UNL     1      -5.596   3.528  -2.279  0.00  0.00    +0.163 C 
ATOM     15  O   UNL     1      -5.627   2.374  -1.899  0.00  0.00    -0.292 OA
ATOM     16  C   UNL     1      -5.868   3.823  -3.724  0.00  0.00    +0.088 C 
ATOM     17  H   UNL     1      -5.737   5.083   1.868  0.00  0.00    +0.147 HD
ATOM     18  H   UNL     1      -5.681   7.776  -0.937  0.00  0.00    +0.152 HD
ENDROOT
BRANCH   1  22
ATOM     19  C   UNL     1      -6.021   6.154  -8.154  0.00  0.00    +0.162 A 
ATOM     20  C   UNL     1      -7.038   6.038  -7.221  0.00  0.00    +0.050 A 
ATOM     21  C   UNL     1      -6.743   5.693  -5.915  0.00  0.00    +0.008 A 
ATOM     22  C   UNL     1      -5.432   5.473  -5.535  0.00  0.00    -0.040 A 
ATOM     23  C   UNL     1      -4.412   5.587  -6.461  0.00  0.00    +0.053 A 
ATOM     24  C   UNL     1      -4.702   5.927  -7.772  0.00  0.00    +0.162 A 
BRANCH  24  25
ATOM     25  O   UNL     1      -3.699   6.039  -8.684  0.00  0.00    -0.491 OA
ATOM     26  C   UNL     1      -2.370   5.791  -8.222  0.00  0.00    +0.277 C 
ENDBRANCH  24  25
BRANCH  19  27
ATOM     27  O   UNL     1      -6.310   6.487  -9.440  0.00  0.00    -0.486 OA
BRANCH  27  29
ATOM     28  C   UNL     1      -7.712   7.737 -10.961  0.00  0.00    +0.051 C 
ATOM     29  C   UNL     1      -7.667   6.826  -9.733  0.00  0.00    +0.167 C 
ATOM     30  C   UNL     1      -8.461   5.549 -10.016  0.00  0.00    +0.051 C 
ENDBRANCH  27  29
ENDBRANCH  19  27
ENDBRANCH   1  22
BRANCH   5  31
ATOM     31  C   UNL     1      -3.707   3.313   0.044  0.00  0.00    -0.023 A 
ATOM     32  C   UNL     1      -3.658   1.959   0.318  0.00  0.00    +0.008 A 
ATOM     33  C   UNL     1      -2.445   1.296   0.311  0.00  0.00    +0.033 A 
ATOM     34  C   UNL     1      -1.281   1.987   0.030  0.00  0.00    +0.126 A 
ATOM     35  C   UNL     1      -1.330   3.342  -0.239  0.00  0.00    +0.033 A 
ATOM     36  C   UNL     1      -2.544   4.004  -0.237  0.00  0.00    +0.008 A 
BRANCH  34  37
ATOM     37  N   UNL     1       0.018   1.278   0.023  0.00  0.00    +0.056 N 
ATOM     38  O   UNL     1       0.061   0.085   0.265  0.00  0.00    -0.126 OA
ATOM     39  O   UNL     1       1.042   1.885  -0.230  0.00  0.00    -0.126 OA
ENDBRANCH  34  37
ENDBRANCH   5  31
TORSDOF 6
