REMARK  Name = ZINC45484051
REMARK  11 active torsions:
REMARK  status: ('A' for Active; 'I' for Inactive)
REMARK    1  A    between atoms: C_1  and  C_2
REMARK    2  A    between atoms: C_2  and  O_3
REMARK    3  A    between atoms: O_3  and  C_4
REMARK    4  A    between atoms: C_4  and  C_6
REMARK    5  A    between atoms: N_15  and  C_16
REMARK    6  A    between atoms: C_16  and  C_17
REMARK    7  A    between atoms: C_17  and  C_19
REMARK    8  A    between atoms: C_17  and  N_22
REMARK    9  A    between atoms: C_19  and  C_20
REMARK   10  A    between atoms: C_19  and  C_21
REMARK   11  A    between atoms: N_22  and  C_23
REMARK                            x       y       z     vdW  Elec       q    Type
REMARK                         _______ _______ _______ _____ _____    ______ ____
ROOT
ATOM      1  C   UNL     1      -0.039  -4.834   4.896  0.00  0.00    +0.115 C 
ATOM      2  C   UNL     1      -0.686  -4.290   3.620  0.00  0.00    +0.018 C 
ATOM      3  C   UNL     1      -0.814  -2.769   3.719  0.00  0.00    +0.020 C 
ATOM      4  C   UNL     1       0.581  -2.151   3.854  0.00  0.00    +0.109 C 
ATOM      5  N   UNL     1       1.266  -2.774   4.995  0.00  0.00    -0.285 N 
ATOM      6  C   UNL     1       1.365  -4.239   5.046  0.00  0.00    +0.124 C 
ATOM      7  C   UNL     1       1.793  -2.017   5.977  0.00  0.00    +0.302 C 
ATOM      8  O   UNL     1       1.786  -0.805   5.880  0.00  0.00    -0.253 OA
ATOM      9  N   UNL     1       2.329  -2.603   7.066  0.00  0.00    -0.297 N 
ATOM     10  H   UNL     1       2.405  -3.568   7.109  0.00  0.00    +0.150 HD
ENDROOT
BRANCH   1  11
ATOM     11  C   UNL     1       0.057  -6.335   4.811  0.00  0.00    +0.312 C 
ATOM     12  O   UNL     1      -0.352  -6.912   3.832  0.00  0.00    -0.250 OA
BRANCH  11  13
ATOM     13  O   UNL     1       0.596  -7.032   5.824  0.00  0.00    -0.465 OA
BRANCH  13  15
ATOM     14  C   UNL     1       1.296  -9.068   6.922  0.00  0.00    +0.048 C 
ATOM     15  C   UNL     1       0.655  -8.452   5.677  0.00  0.00    +0.229 C 
ENDBRANCH  13  15
ENDBRANCH  11  13
ENDBRANCH   1  11
BRANCH   9  16
ATOM     16  C   UNL     1       2.796  -1.780   8.185  0.00  0.00    +0.128 C 
BRANCH  16  17
ATOM     17  C   UNL     1       3.355  -2.686   9.285  0.00  0.00    +0.090 C 
BRANCH  17  18
ATOM     18  C   UNL     1       3.955  -1.825  10.398  0.00  0.00    +0.005 C 
ATOM     19  C   UNL     1       2.847  -1.006  11.064  0.00  0.00    +0.009 C 
ATOM     20  C   UNL     1       4.618  -2.728  11.440  0.00  0.00    +0.009 C 
ENDBRANCH  17  18
BRANCH  17  21
ATOM     21  N   UNL     1       4.394  -3.551   8.723  0.00  0.00    -0.339 N 
ATOM     22  H   UNL     1       5.146  -3.162   8.249  0.00  0.00    +0.146 HD
BRANCH  21  23
ATOM     23  C   UNL     1       4.303  -4.937   8.868  0.00  0.00    +0.027 A 
ATOM     24  C   UNL     1       3.170  -5.504   9.438  0.00  0.00    +0.023 A 
ATOM     25  C   UNL     1       3.082  -6.875   9.580  0.00  0.00    +0.002 A 
ATOM     26  C   UNL     1       4.122  -7.683   9.157  0.00  0.00    +0.000 A 
ATOM     27  C   UNL     1       5.251  -7.122   8.589  0.00  0.00    +0.002 A 
ATOM     28  C   UNL     1       5.342  -5.753   8.439  0.00  0.00    +0.023 A 
ENDBRANCH  21  23
ENDBRANCH  17  21
ENDBRANCH  16  17
ENDBRANCH   9  16
TORSDOF 8
