REMARK  Name = ZINC09144963
REMARK  10 active torsions:
REMARK  status: ('A' for Active; 'I' for Inactive)
REMARK    1  A    between atoms: C_1  and  C_2
REMARK    2  A    between atoms: C_2  and  C_3
REMARK    3  A    between atoms: C_3  and  C_4
REMARK    4  A    between atoms: C_4  and  N_5
REMARK    5  A    between atoms: N_8  and  C_29
REMARK    6  A    between atoms: C_9  and  N_14
REMARK    7  A    between atoms: C_11  and  C_12
REMARK    8  A    between atoms: C_11  and  C_13
REMARK    9  A    between atoms: N_14  and  O_28
REMARK   10  A    between atoms: N_17  and  C_18
REMARK                            x       y       z     vdW  Elec       q    Type
REMARK                         _______ _______ _______ _____ _____    ______ ____
ROOT
ATOM      1  N   UNL     1      -1.049  -0.359   0.396  0.00  0.00    -0.276 N 
ATOM      2  C   UNL     1      -1.639  -0.904  -0.676  0.00  0.00    +0.311 C 
ATOM      3  O   UNL     1      -2.807  -1.241  -0.690  0.00  0.00    -0.252 OA
ATOM      4  N   UNL     1      -0.826  -1.045  -1.731  0.00  0.00    -0.231 N 
ATOM      5  C   UNL     1       0.515  -0.542  -1.380  0.00  0.00    +0.224 C 
ATOM      6  C   UNL     1       0.358  -0.071   0.079  0.00  0.00    +0.071 C 
ATOM      7  C   UNL     1       0.638   1.429   0.192  0.00  0.00    +0.035 C 
ATOM      8  C   UNL     1       1.289  -0.861   1.001  0.00  0.00    +0.035 C 
ENDROOT
BRANCH   4   9
ATOM      9  C   UNL     1      -1.190  -1.583  -2.967  0.00  0.00    +0.047 A 
ATOM     10  C   UNL     1      -1.685  -0.768  -3.962  0.00  0.00    +0.024 A 
ATOM     11  C   UNL     1      -2.046  -1.294  -5.199  0.00  0.00    +0.002 A 
ATOM     12  C   UNL     1      -1.930  -2.626  -5.457  0.00  0.00    +0.008 A 
ATOM     13  C   UNL     1      -1.435  -3.492  -4.468  0.00  0.00    -0.016 A 
ATOM     14  C   UNL     1      -1.060  -2.967  -3.206  0.00  0.00    +0.004 A 
ATOM     15  C   UNL     1      -0.566  -3.834  -2.219  0.00  0.00    +0.010 A 
ATOM     16  C   UNL     1      -0.453  -5.165  -2.485  0.00  0.00    +0.001 A 
ATOM     17  C   UNL     1      -0.822  -5.681  -3.725  0.00  0.00    +0.001 A 
ATOM     18  C   UNL     1      -1.305  -4.871  -4.706  0.00  0.00    +0.008 A 
ENDBRANCH   4   9
BRANCH   5  19
ATOM     19  N   UNL     1       0.887   0.579  -2.246  0.00  0.00    -0.144 N 
ATOM     20  C   UNL     1       1.895   0.442  -3.131  0.00  0.00    +0.331 C 
ATOM     21  O   UNL     1       2.432  -0.639  -3.278  0.00  0.00    -0.250 OA
ATOM     22  N   UNL     1       2.307   1.503  -3.852  0.00  0.00    -0.267 N 
ATOM     23  H   UNL     1       1.933   2.381  -3.680  0.00  0.00    +0.156 HD
BRANCH  22  24
ATOM     24  C   UNL     1       3.271   1.338  -4.848  0.00  0.00    +0.043 A 
ATOM     25  C   UNL     1       3.322   0.171  -5.580  0.00  0.00    +0.024 A 
ATOM     26  C   UNL     1       4.279  -0.004  -6.575  0.00  0.00    +0.002 A 
ATOM     27  C   UNL     1       5.190   0.969  -6.853  0.00  0.00    +0.008 A 
ATOM     28  C   UNL     1       5.173   2.174  -6.130  0.00  0.00    -0.016 A 
ATOM     29  C   UNL     1       4.199   2.366  -5.119  0.00  0.00    +0.003 A 
ATOM     30  C   UNL     1       4.178   3.573  -4.402  0.00  0.00    +0.010 A 
ATOM     31  C   UNL     1       5.088   4.544  -4.690  0.00  0.00    +0.001 A 
ATOM     32  C   UNL     1       6.042   4.358  -5.688  0.00  0.00    +0.001 A 
ATOM     33  C   UNL     1       6.100   3.196  -6.395  0.00  0.00    +0.008 A 
ENDBRANCH  22  24
BRANCH  19  34
ATOM     34  O   UNL     1       0.189   1.808  -2.153  0.00  0.00    -0.289 OA
ATOM     35  H   UNL     1       0.554   2.511  -2.708  0.00  0.00    +0.242 HD
ENDBRANCH  19  34
ENDBRANCH   5  19
BRANCH   1  36
ATOM     36  C   UNL     1      -1.701  -0.092   1.681  0.00  0.00    +0.110 C 
BRANCH  36  37
ATOM     37  C   UNL     1      -2.301   1.315   1.665  0.00  0.00    +0.019 C 
BRANCH  37  39
ATOM     38  C   UNL     1      -3.583   3.001   2.991  0.00  0.00    +0.004 C 
ATOM     39  C   UNL     1      -2.982   1.594   3.006  0.00  0.00    -0.002 C 
ENDBRANCH  37  39
ENDBRANCH  36  37
ENDBRANCH   1  36
TORSDOF 7
