REMARK  Name = ZINC05510687
REMARK  5 active torsions:
REMARK  status: ('A' for Active; 'I' for Inactive)
REMARK    1  A    between atoms: C_1  and  O_2
REMARK    2  A    between atoms: O_2  and  C_3
REMARK    3  A    between atoms: C_3  and  C_5
REMARK    4  A    between atoms: C_6  and  N_28
REMARK    5  A    between atoms: C_19  and  C_21
REMARK                            x       y       z     vdW  Elec       q    Type
REMARK                         _______ _______ _______ _____ _____    ______ ____
ROOT
ATOM      1  C   UNL     1      -3.308   1.315  -1.210  0.00  0.00    +0.105 C 
ATOM      2  C   UNL     1      -4.286   2.256  -1.167  0.00  0.00    +0.195 C 
ATOM      3  O   UNL     1      -4.671   2.818  -0.009  0.00  0.00    -0.441 OA
ATOM      4  C   UNL     1      -4.386   2.214   1.160  0.00  0.00    +0.152 A 
ATOM      5  C   UNL     1      -5.132   2.569   2.378  0.00  0.00    +0.060 A 
ATOM      6  C   UNL     1      -6.142   3.533   2.350  0.00  0.00    +0.015 A 
ATOM      7  C   UNL     1      -6.820   3.842   3.508  0.00  0.00    +0.001 A 
ATOM      8  C   UNL     1      -6.504   3.201   4.697  0.00  0.00    +0.004 A 
ATOM      9  C   UNL     1      -5.508   2.248   4.739  0.00  0.00    +0.047 A 
ATOM     10  C   UNL     1      -4.812   1.921   3.582  0.00  0.00    +0.143 A 
ATOM     11  O   UNL     1      -3.835   0.990   3.603  0.00  0.00    -0.422 OA
ATOM     12  C   UNL     1      -3.150   0.661   2.497  0.00  0.00    +0.345 A 
ATOM     13  O   UNL     1      -2.277  -0.187   2.571  0.00  0.00    -0.245 OA
ATOM     14  C   UNL     1      -3.412   1.266   1.255  0.00  0.00    +0.092 A 
ATOM     15  C   UNL     1      -2.614   0.862   0.045  0.00  0.00    +0.101 C 
ENDROOT
BRANCH  15  16
ATOM     16  C   UNL     1      -1.247   1.494   0.114  0.00  0.00    -0.035 A 
ATOM     17  C   UNL     1      -0.118   0.697   0.137  0.00  0.00    +0.006 A 
ATOM     18  C   UNL     1       1.136   1.275   0.195  0.00  0.00    +0.020 A 
ATOM     19  C   UNL     1       1.261   2.652   0.235  0.00  0.00    +0.041 A 
ATOM     20  C   UNL     1       0.130   3.450   0.217  0.00  0.00    +0.020 A 
ATOM     21  C   UNL     1      -1.123   2.870   0.159  0.00  0.00    +0.006 A 
ATOM     22 CL   UNL     1       2.835   3.380   0.306  0.00  0.00    -0.084 Cl
ENDBRANCH  15  16
BRANCH   2  23
ATOM     23  N   UNL     1      -4.894   2.641  -2.332  0.00  0.00    -0.329 N 
ATOM     24  H   UNL     1      -5.648   3.251  -2.307  0.00  0.00    +0.145 HD
ATOM     25  H   UNL     1      -4.571   2.304  -3.182  0.00  0.00    +0.145 HD
ENDBRANCH   2  23
BRANCH   1  26
ATOM     26  C   UNL     1      -2.941   0.756  -2.443  0.00  0.00    +0.341 C 
ATOM     27  O   UNL     1      -3.351  -0.347  -2.758  0.00  0.00    -0.245 OA
BRANCH  26  29
ATOM     28  C   UNL     1      -1.798   0.810  -4.519  0.00  0.00    +0.280 C 
ATOM     29  O   UNL     1      -2.131   1.440  -3.280  0.00  0.00    -0.465 OA
ENDBRANCH  26  29
ENDBRANCH   1  26
TORSDOF 4
