REMARK  Name = ZINC15143925
REMARK  8 active torsions:
REMARK  status: ('A' for Active; 'I' for Inactive)
REMARK    1  A    between atoms: C_1  and  C_2
REMARK    2  A    between atoms: C_2  and  N_66
REMARK    3  A    between atoms: C_3  and  C_4
REMARK    4  A    between atoms: C_3  and  N_66
REMARK    5  A    between atoms: N_6  and  C_7
REMARK    6  A    between atoms: C_17  and  C_18
REMARK    7  A    between atoms: C_17  and  N_66
REMARK    8  A    between atoms: N_20  and  C_21
REMARK                            x       y       z     vdW  Elec       q    Type
REMARK                         _______ _______ _______ _____ _____    ______ ____
ROOT
ATOM      1  C   UNL     1       5.731  -4.874  -0.414  0.00  0.00    +0.020 C 
ENDROOT
BRANCH   1   2
ATOM      2  C   UNL     1       5.375  -6.324  -0.618  0.00  0.00    +0.201 C 
ATOM      3  O   UNL     1       4.214  -6.673  -0.587  0.00  0.00    -0.278 OA
ATOM      4  N   UNL     1       6.347  -7.232  -0.835  0.00  0.00    -0.287 N 
ATOM      5  H   UNL     1       7.278  -6.966  -0.789  0.00  0.00    +0.155 HD
BRANCH   4   6
ATOM      6  C   UNL     1       6.011  -8.561  -1.126  0.00  0.00    +0.037 A 
ATOM      7  C   UNL     1       6.841  -9.594  -0.710  0.00  0.00    +0.027 A 
ATOM      8  C   UNL     1       6.508 -10.905  -0.991  0.00  0.00    +0.051 A 
ATOM      9  C   UNL     1       5.353 -11.192  -1.700  0.00  0.00    +0.167 A 
ATOM     10  C   UNL     1       4.521 -10.158  -2.123  0.00  0.00    +0.169 A 
ATOM     11  C   UNL     1       4.852  -8.845  -1.836  0.00  0.00    +0.072 A 
ATOM     12  O   UNL     1       3.460 -10.697  -2.794  0.00  0.00    -0.447 OA
ATOM     13  C   UNL     1       3.450 -12.087  -2.442  0.00  0.00    +0.254 C 
ATOM     14  O   UNL     1       4.813 -12.381  -2.105  0.00  0.00    -0.448 OA
ATOM     15  C   UNL     1       3.005 -12.932  -3.631  0.00  0.00    +0.093 C 
ATOM     16  C   UNL     1       1.559 -12.587  -3.994  0.00  0.00    +0.008 C 
ATOM     17  C   UNL     1       0.654 -12.857  -2.790  0.00  0.00    +0.000 C 
ATOM     18  C   UNL     1       1.097 -11.986  -1.613  0.00  0.00    +0.008 C 
ATOM     19  C   UNL     1       2.542 -12.326  -1.241  0.00  0.00    +0.093 C 
ENDBRANCH   4   6
ENDBRANCH   1   2
BRANCH   1  20
ATOM     20  N   UNL     1       4.486  -4.100  -0.220  0.00  0.00    +0.391 N 
ATOM     21  H   UNL     1       3.838  -4.314  -0.987  0.00  0.00    -0.080 HD
BRANCH  20  23
ATOM     22  C   UNL     1       2.385  -4.046   1.028  0.00  0.00    -0.017 C 
ATOM     23  C   UNL     1       3.853  -4.475   1.062  0.00  0.00    -0.081 C 
ENDBRANCH  20  23
BRANCH  20  24
ATOM     24  C   UNL     1       4.784  -2.652  -0.232  0.00  0.00    +0.020 C 
BRANCH  24  25
ATOM     25  C   UNL     1       4.985  -2.213  -1.659  0.00  0.00    +0.201 C 
ATOM     26  O   UNL     1       4.808  -2.998  -2.566  0.00  0.00    -0.278 OA
ATOM     27  N   UNL     1       5.361  -0.947  -1.928  0.00  0.00    -0.287 N 
ATOM     28  H   UNL     1       5.574  -0.340  -1.202  0.00  0.00    +0.155 HD
BRANCH  27  29
ATOM     29  C   UNL     1       5.446  -0.508  -3.255  0.00  0.00    +0.037 A 
ATOM     30  C   UNL     1       5.098   0.797  -3.579  0.00  0.00    +0.027 A 
ATOM     31  C   UNL     1       5.179   1.230  -4.888  0.00  0.00    +0.051 A 
ATOM     32  C   UNL     1       5.610   0.364  -5.883  0.00  0.00    +0.162 A 
ATOM     33  C   UNL     1       5.962  -0.942  -5.561  0.00  0.00    +0.164 A 
ATOM     34  C   UNL     1       5.878  -1.376  -4.248  0.00  0.00    +0.072 A 
ATOM     35  O   UNL     1       6.394  -1.803  -6.522  0.00  0.00    -0.485 OA
ATOM     36  C   UNL     1       6.110  -1.448  -7.880  0.00  0.00    +0.270 C 
ATOM     37  C   UNL     1       6.468   0.031  -8.076  0.00  0.00    +0.270 C 
ATOM     38  O   UNL     1       5.676   0.806  -7.169  0.00  0.00    -0.485 OA
ENDBRANCH  27  29
ENDBRANCH  24  25
ENDBRANCH  20  24
ENDBRANCH   1  20
TORSDOF 7
