REMARK  Name = ZINC35777121
REMARK  14 active torsions:
REMARK  status: ('A' for Active; 'I' for Inactive)
REMARK    1  A    between atoms: C_1  and  C_2
REMARK    2  A    between atoms: C_7  and  O_8
REMARK    3  A    between atoms: O_8  and  C_9
REMARK    4  A    between atoms: C_9  and  C_10
REMARK    5  A    between atoms: C_10  and  C_12
REMARK    6  A    between atoms: C_10  and  O_38
REMARK    7  A    between atoms: C_12  and  N_13
REMARK    8  A    between atoms: N_13  and  C_14
REMARK    9  A    between atoms: N_13  and  C_35
REMARK   10  A    between atoms: C_14  and  C_15
REMARK   11  A    between atoms: C_16  and  C_34
REMARK   12  A    between atoms: N_18  and  C_27
REMARK   13  A    between atoms: C_19  and  O_20
REMARK   14  A    between atoms: O_20  and  C_21
REMARK                            x       y       z     vdW  Elec       q    Type
REMARK                         _______ _______ _______ _____ _____    ______ ____
ROOT
ATOM      1  C   UNL     1      -0.020   0.189   9.694  0.00  0.00    +0.021 A 
ATOM      2  C   UNL     1       1.162   0.761  10.173  0.00  0.00    +0.065 A 
ATOM      3  N   UNL     1       0.856   1.618  11.113  0.00  0.00    -0.168 NA
ATOM      4  N   UNL     1      -0.536   1.625  11.268  0.00  0.00    -0.200 N 
ATOM      5  C   UNL     1      -1.058   0.739  10.379  0.00  0.00    +0.225 A 
ATOM      6  C   UNL     1       2.554   0.443   9.689  0.00  0.00    +0.068 C 
ENDROOT
BRANCH   4   7
ATOM      7  C   UNL     1      -1.262   2.409  12.176  0.00  0.00    +0.070 A 
ATOM      8  C   UNL     1      -2.451   3.008  11.781  0.00  0.00    +0.028 A 
ATOM      9  C   UNL     1      -3.165   3.780  12.677  0.00  0.00    +0.003 A 
ATOM     10  C   UNL     1      -2.696   3.958  13.966  0.00  0.00    +0.020 A 
ATOM     11  C   UNL     1      -1.511   3.363  14.362  0.00  0.00    +0.043 A 
ATOM     12  C   UNL     1      -0.796   2.584  13.471  0.00  0.00    +0.048 A 
ATOM     13 CL   UNL     1      -0.926   3.589  15.981  0.00  0.00    -0.083 Cl
ENDBRANCH   4   7
BRANCH   1  14
ATOM     14  C   UNL     1      -0.126  -0.849   8.606  0.00  0.00    -0.035 C 
BRANCH  14  15
ATOM     15  N   UNL     1      -0.411  -0.188   7.325  0.00  0.00    +0.386 N 
ATOM     16  H   UNL     1      -1.242   0.376   7.415  0.00  0.00    -0.081 HD
BRANCH  15  17
ATOM     17  C   UNL     1      -0.619  -1.205   6.285  0.00  0.00    -0.068 C 
ATOM     18  C   UNL     1      -1.824  -1.031   5.358  0.00  0.00    -0.017 C 
ATOM     19  C   UNL     1      -1.834  -2.123   6.429  0.00  0.00    -0.017 C 
ENDBRANCH  15  17
BRANCH  15  20
ATOM     20  C   UNL     1       0.724   0.667   6.952  0.00  0.00    -0.043 C 
BRANCH  20  21
ATOM     21  C   UNL     1       0.378   1.450   5.684  0.00  0.00    +0.135 C 
BRANCH  21  22
ATOM     22  O   UNL     1      -0.699   2.349   5.958  0.00  0.00    -0.390 OA
ATOM     23  H   UNL     1      -0.505   2.997   6.650  0.00  0.00    +0.210 HD
ENDBRANCH  21  22
BRANCH  21  24
ATOM     24  C   UNL     1       1.602   2.246   5.226  0.00  0.00    +0.258 C 
BRANCH  24  25
ATOM     25  O   UNL     1       1.316   2.884   3.980  0.00  0.00    -0.489 OA
BRANCH  25  32
ATOM     26  C   UNL     1       0.771   4.155   1.517  0.00  0.00    +0.047 C 
ATOM     27  C   UNL     1       2.096   4.285   2.223  0.00  0.00    -0.009 A 
ATOM     28  C   UNL     1       3.102   5.054   1.669  0.00  0.00    +0.007 A 
ATOM     29  C   UNL     1       4.318   5.173   2.316  0.00  0.00    +0.000 A 
ATOM     30  C   UNL     1       4.531   4.523   3.518  0.00  0.00    +0.004 A 
ATOM     31  C   UNL     1       3.529   3.753   4.075  0.00  0.00    +0.046 A 
ATOM     32  C   UNL     1       2.305   3.637   3.431  0.00  0.00    +0.124 A 
ENDBRANCH  25  32
ENDBRANCH  24  25
ENDBRANCH  21  24
ENDBRANCH  20  21
ENDBRANCH  15  20
ENDBRANCH  14  15
ENDBRANCH   1  14
BRANCH   5  33
ATOM     33  O   UNL     1      -2.374   0.454  10.207  0.00  0.00    -0.438 OA
BRANCH  33  34
ATOM     34  C   UNL     1      -2.934  -0.484  11.016  0.00  0.00    +0.130 A 
ATOM     35  C   UNL     1      -2.198  -1.035  12.055  0.00  0.00    +0.046 A 
ATOM     36  C   UNL     1      -2.770  -1.988  12.875  0.00  0.00    +0.004 A 
ATOM     37  C   UNL     1      -4.074  -2.393  12.661  0.00  0.00    +0.000 A 
ATOM     38  C   UNL     1      -4.810  -1.845  11.627  0.00  0.00    +0.004 A 
ATOM     39  C   UNL     1      -4.245  -0.887  10.807  0.00  0.00    +0.046 A 
ENDBRANCH  33  34
ENDBRANCH   5  33
TORSDOF 12
