REMARK  Name = ZINC09582976
REMARK  5 active torsions:
REMARK  status: ('A' for Active; 'I' for Inactive)
REMARK    1  A    between atoms: C_7  and  C_16
REMARK    2  A    between atoms: C_9  and  C_11
REMARK    3  A    between atoms: C_19  and  S_21
REMARK    4  A    between atoms: S_21  and  C_22
REMARK    5  A    between atoms: C_22  and  C_23
REMARK                            x       y       z     vdW  Elec       q    Type
REMARK                         _______ _______ _______ _____ _____    ______ ____
ROOT
ATOM      1  C   UNL     1       4.211   6.963  -0.000  0.00  0.00    +0.250 A 
ATOM      2  N   UNL     1       4.762   8.154  -0.003  0.00  0.00    -0.106 NA
ATOM      3  N   UNL     1       6.043   8.032  -0.009  0.00  0.00    -0.101 NA
ATOM      4  C   UNL     1       6.361   6.756  -0.019  0.00  0.00    +0.278 A 
ATOM      5  O   UNL     1       5.212   6.054  -0.014  0.00  0.00    -0.411 OA
ENDROOT
BRANCH   1  12
ATOM      6  C   UNL     1       1.192  10.061   0.043  0.00  0.00    +0.001 A 
ATOM      7  C   UNL     1      -0.159   9.728   0.053  0.00  0.00    +0.002 A 
ATOM      8  C   UNL     1      -0.562   8.427   0.049  0.00  0.00    +0.028 A 
ATOM      9  C   UNL     1       0.398   7.400   0.035  0.00  0.00    +0.072 A 
ATOM     10  C   UNL     1       1.772   7.745   0.025  0.00  0.00    +0.013 A 
ATOM     11  C   UNL     1       2.151   9.091   0.030  0.00  0.00    +0.011 A 
ATOM     12  C   UNL     1       2.767   6.670   0.010  0.00  0.00    +0.050 A 
ATOM     13  C   UNL     1       2.295   5.362   0.014  0.00  0.00    +0.042 A 
ATOM     14  C   UNL     1       0.913   5.130   0.019  0.00  0.00    +0.079 A 
ATOM     15  N   UNL     1       0.033   6.115   0.032  0.00  0.00    -0.246 NA
BRANCH  14  16
ATOM     16  C   UNL     1       0.425   3.737   0.017  0.00  0.00    +0.038 A 
ATOM     17  C   UNL     1      -0.866   3.275   0.026  0.00  0.00    +0.017 A 
ATOM     18  C   UNL     1      -1.081   1.916   0.017  0.00  0.00    +0.008 A 
ATOM     19  C   UNL     1      -0.013   1.076   0.008  0.00  0.00    +0.046 A 
ATOM     20  S   UNL     1       1.360   2.217   0.001  0.00  0.00    -0.095 S 
ENDBRANCH  14  16
ENDBRANCH   1  12
BRANCH   4  21
ATOM     21  S   UNL     1       7.991   6.087  -0.038  0.00  0.00    -0.058 S 
BRANCH  21  22
ATOM     22  C   UNL     1       8.958   7.617  -0.036  0.00  0.00    +0.153 C 
BRANCH  22  23
ATOM     23  C   UNL     1      10.427   7.283  -0.051  0.00  0.00    +0.121 A 
ATOM     24  N   UNL     1      11.323   8.305  -0.052  0.00  0.00    -0.309 N 
ATOM     25  H   UNL     1      11.016   9.225  -0.044  0.00  0.00    +0.170 HD
ATOM     26  C   UNL     1      12.649   8.027  -0.065  0.00  0.00    +0.266 A 
ATOM     27  O   UNL     1      13.477   8.921  -0.067  0.00  0.00    -0.267 OA
ATOM     28  C   UNL     1      13.039   6.687  -0.077  0.00  0.00    +0.102 A 
ATOM     29  C   UNL     1      12.092   5.648  -0.075  0.00  0.00    +0.085 A 
ATOM     30  N   UNL     1      10.775   6.036  -0.057  0.00  0.00    -0.232 NA
ATOM     31  C   UNL     1      12.621   4.350  -0.088  0.00  0.00    +0.036 A 
ATOM     32  C   UNL     1      13.958   4.161  -0.100  0.00  0.00    +0.048 A 
ATOM     33  S   UNL     1      14.591   5.830  -0.095  0.00  0.00    -0.090 S 
ENDBRANCH  22  23
ENDBRANCH  21  22
ENDBRANCH   4  21
TORSDOF 5
