REMARK  Name = ZINC22852400
REMARK  7 active torsions:
REMARK  status: ('A' for Active; 'I' for Inactive)
REMARK    1  A    between atoms: C_1  and  C_2
REMARK    2  A    between atoms: C_5  and  C_8
REMARK    3  A    between atoms: C_8  and  C_10
REMARK    4  A    between atoms: C_8  and  N_24
REMARK    5  A    between atoms: C_11  and  O_23
REMARK    6  A    between atoms: C_16  and  C_18
REMARK    7  A    between atoms: N_27  and  C_30
REMARK                            x       y       z     vdW  Elec       q    Type
REMARK                         _______ _______ _______ _____ _____    ______ ____
ROOT
ATOM      1  C   UNL     1       2.905  -0.488   2.352  0.00  0.00    +0.129 C 
ENDROOT
BRANCH   1   2
ATOM      2  C   UNL     1       2.191  -0.020   3.594  0.00  0.00    +0.076 A 
ATOM      3  C   UNL     1       1.958  -0.681   4.734  0.00  0.00    +0.228 A 
ATOM      4  N   UNL     1       1.282  -0.081   5.768  0.00  0.00    -0.173 N 
ATOM      5  C   UNL     1       0.866   1.208   5.575  0.00  0.00    +0.200 A 
ATOM      6  S   UNL     1       1.440   1.565   3.932  0.00  0.00    -0.047 S 
ATOM      7  N   UNL     1       0.244   1.633   6.639  0.00  0.00    -0.197 NA
ATOM      8  C   UNL     1       0.226   0.660   7.560  0.00  0.00    +0.218 A 
ATOM      9  N   UNL     1       0.842  -0.398   7.079  0.00  0.00    -0.138 NA
BRANCH   8  10
ATOM     10  C   UNL     1      -0.388   0.760   8.900  0.00  0.00    +0.173 A 
ATOM     11  C   UNL     1      -1.027   1.848   9.407  0.00  0.00    +0.053 A 
ATOM     12  C   UNL     1      -1.451   1.502  10.705  0.00  0.00    +0.042 A 
ATOM     13  C   UNL     1      -1.055   0.233  10.925  0.00  0.00    +0.196 A 
ATOM     14  O   UNL     1      -0.417  -0.214   9.831  0.00  0.00    -0.460 OA
ENDBRANCH   8  10
BRANCH   3  15
ATOM     15  O   UNL     1       2.396  -1.962   4.870  0.00  0.00    -0.492 OA
ATOM     16  H   UNL     1       2.208  -2.511   5.804  0.00  0.00    +0.294 HD
ENDBRANCH   3  15
ENDBRANCH   1   2
BRANCH   1  21
ATOM     17  C   UNL     1       8.131   1.965   2.098  0.00  0.00    +0.044 C 
ATOM     18  C   UNL     1       6.769   1.325   2.164  0.00  0.00    -0.050 A 
ATOM     19  C   UNL     1       6.648  -0.013   2.490  0.00  0.00    +0.004 A 
ATOM     20  C   UNL     1       5.398  -0.599   2.552  0.00  0.00    +0.006 A 
ATOM     21  C   UNL     1       4.268   0.152   2.286  0.00  0.00    -0.025 A 
ATOM     22  C   UNL     1       4.389   1.488   1.954  0.00  0.00    +0.006 A 
ATOM     23  C   UNL     1       5.639   2.076   1.898  0.00  0.00    +0.004 A 
ENDBRANCH   1  21
BRANCH   1  24
ATOM     24  N   UNL     1       2.127  -0.106   1.166  0.00  0.00    -0.288 NA
ATOM     25  C   UNL     1       2.765  -0.599  -0.063  0.00  0.00    +0.104 C 
ATOM     26  C   UNL     1       1.969  -0.114  -1.277  0.00  0.00    +0.120 C 
ATOM     27  N   UNL     1       0.584  -0.596  -1.176  0.00  0.00    -0.327 N 
ATOM     28  C   UNL     1      -0.053  -0.104   0.053  0.00  0.00    +0.120 C 
ATOM     29  C   UNL     1       0.743  -0.588   1.268  0.00  0.00    +0.104 C 
BRANCH  27  30
ATOM     30  C   UNL     1      -0.156  -0.234  -2.303  0.00  0.00    +0.031 A 
ATOM     31  C   UNL     1       0.443   0.495  -3.324  0.00  0.00    +0.023 A 
ATOM     32  C   UNL     1      -0.290   0.847  -4.440  0.00  0.00    +0.003 A 
ATOM     33  C   UNL     1      -1.621   0.486  -4.538  0.00  0.00    +0.020 A 
ATOM     34  C   UNL     1      -2.222  -0.234  -3.522  0.00  0.00    +0.043 A 
ATOM     35  C   UNL     1      -1.493  -0.595  -2.404  0.00  0.00    +0.043 A 
ATOM     36 CL   UNL     1      -3.894  -0.685  -3.649  0.00  0.00    -0.083 Cl
ENDBRANCH  27  30
ENDBRANCH   1  24
TORSDOF 6
