REMARK  Name = ZINC61720650
REMARK  7 active torsions:
REMARK  status: ('A' for Active; 'I' for Inactive)
REMARK    1  A    between atoms: C_1  and  C_2
REMARK    2  A    between atoms: C_4  and  C_8
REMARK    3  A    between atoms: N_5  and  C_7
REMARK    4  A    between atoms: C_11  and  C_16
REMARK    5  A    between atoms: C_16  and  C_17
REMARK    6  A    between atoms: C_20  and  O_23
REMARK    7  A    between atoms: O_23  and  C_24
REMARK                            x       y       z     vdW  Elec       q    Type
REMARK                         _______ _______ _______ _____ _____    ______ ____
ROOT
ATOM      1  C   UNL     1       0.040  -3.318  -1.582  0.00  0.00    +0.150 A 
ATOM      2  N   UNL     1       0.040  -3.387  -2.891  0.00  0.00    -0.154 NA
ATOM      3  N   UNL     1       0.053  -4.612  -3.545  0.00  0.00    -0.190 N 
ATOM      4  C   UNL     1       0.057  -5.121  -4.827  0.00  0.00    +0.160 A 
ATOM      5  N   UNL     1       0.070  -6.422  -4.745  0.00  0.00    -0.131 NA
ATOM      6  N   UNL     1       0.075  -6.786  -3.509  0.00  0.00    -0.120 NA
ATOM      7  C   UNL     1       0.065  -5.732  -2.750  0.00  0.00    +0.218 A 
ATOM      8  S   UNL     1       0.066  -5.042  -1.115  0.00  0.00    -0.025 S 
ENDROOT
BRANCH   1  12
ATOM      9  C   UNL     1      -0.018   1.503   0.010  0.00  0.00    +0.067 C 
ATOM     10  C   UNL     1       0.002  -0.004   0.002  0.00  0.00    +0.061 A 
ATOM     11  C   UNL     1       0.008  -0.810  -1.135  0.00  0.00    +0.054 A 
ATOM     12  C   UNL     1       0.028  -2.123  -0.717  0.00  0.00    +0.096 A 
ATOM     13  N   UNL     1       0.034  -2.110   0.647  0.00  0.00    -0.264 N 
ATOM     14  N   UNL     1       0.023  -0.772   1.061  0.00  0.00    -0.176 NA
ATOM     15  C   UNL     1       0.054  -3.285   1.522  0.00  0.00    +0.173 C 
ENDBRANCH   1  12
BRANCH   4  16
ATOM     16  C   UNL     1       0.047  -4.315  -6.100  0.00  0.00    +0.113 C 
BRANCH  16  17
ATOM     17  C   UNL     1       1.465  -4.032  -6.526  0.00  0.00    -0.040 A 
ATOM     18  C   UNL     1       2.106  -2.893  -6.075  0.00  0.00    +0.007 A 
ATOM     19  C   UNL     1       3.406  -2.631  -6.464  0.00  0.00    +0.046 A 
ATOM     20  C   UNL     1       4.067  -3.512  -7.308  0.00  0.00    +0.130 A 
ATOM     21  C   UNL     1       3.421  -4.654  -7.758  0.00  0.00    +0.046 A 
ATOM     22  C   UNL     1       2.124  -4.914  -7.362  0.00  0.00    +0.007 A 
BRANCH  20  23
ATOM     23  O   UNL     1       5.345  -3.256  -7.692  0.00  0.00    -0.406 OA
BRANCH  23  24
ATOM     24  C   UNL     1       5.964  -4.206  -8.562  0.00  0.00    +0.575 C 
ATOM     25  F   UNL     1       5.227  -4.303  -9.747  0.00  0.00    -0.133 F 
ATOM     26  F   UNL     1       7.267  -3.791  -8.855  0.00  0.00    -0.133 F 
ATOM     27  F   UNL     1       6.003  -5.456  -7.934  0.00  0.00    -0.133 F 
ENDBRANCH  23  24
ENDBRANCH  20  23
ENDBRANCH  16  17
ENDBRANCH   4  16
TORSDOF 5
