REMARK  Name = ZINC62952426
REMARK  7 active torsions:
REMARK  status: ('A' for Active; 'I' for Inactive)
REMARK    1  A    between atoms: C_1  and  C_2
REMARK    2  A    between atoms: C_2  and  C_3
REMARK    3  A    between atoms: C_3  and  C_21
REMARK    4  A    between atoms: N_6  and  C_9
REMARK    5  A    between atoms: C_9  and  C_11
REMARK    6  A    between atoms: C_9  and  C_13
REMARK    7  A    between atoms: C_11  and  N_12
REMARK                            x       y       z     vdW  Elec       q    Type
REMARK                         _______ _______ _______ _____ _____    ______ ____
ROOT
ATOM      1  C   UNL     1       3.690  -2.547  -3.548  0.00  0.00    +0.069 C 
ENDROOT
BRANCH   1   2
ATOM      2  C   UNL     1       2.996  -2.304  -4.864  0.00  0.00    -0.031 A 
ATOM      3  C   UNL     1       3.331  -1.202  -5.628  0.00  0.00    +0.008 A 
ATOM      4  C   UNL     1       2.696  -0.978  -6.835  0.00  0.00    +0.040 A 
ATOM      5  C   UNL     1       1.723  -1.858  -7.279  0.00  0.00    +0.137 A 
ATOM      6  C   UNL     1       1.388  -2.962  -6.512  0.00  0.00    +0.053 A 
ATOM      7  C   UNL     1       2.029  -3.187  -5.307  0.00  0.00    +0.023 A 
ATOM      8 BR   UNL     1       0.060  -4.165  -7.116  0.00  0.00    -0.047 Br
ATOM      9  F   UNL     1       1.101  -1.640  -8.458  0.00  0.00    -0.204 F 
ENDBRANCH   1   2
BRANCH   1  13
ATOM     10  C   UNL     1       0.230  -1.612  -1.216  0.00  0.00    -0.030 C 
ATOM     11  C   UNL     1       1.445  -0.681  -1.170  0.00  0.00    +0.022 C 
ATOM     12  C   UNL     1       2.309  -0.916  -2.411  0.00  0.00    +0.085 C 
ATOM     13  N   UNL     1       2.746  -2.318  -2.446  0.00  0.00    -0.297 NA
ATOM     14  C   UNL     1       1.598  -3.229  -2.539  0.00  0.00    +0.085 C 
ATOM     15  C   UNL     1       0.712  -3.063  -1.302  0.00  0.00    +0.022 C 
ATOM     16  C   UNL     1      -0.622  -1.283  -2.444  0.00  0.00    +0.011 C 
BRANCH  10  18
ATOM     17  C   UNL     1      -1.087   0.025   0.136  0.00  0.00    +0.004 C 
ATOM     18  C   UNL     1      -0.606  -1.425   0.051  0.00  0.00    +0.003 C 
ENDBRANCH  10  18
ENDBRANCH   1  13
BRANCH   1  19
ATOM     19  C   UNL     1       4.193  -3.991  -3.496  0.00  0.00    -0.063 C 
BRANCH  19  20
ATOM     20  N   UNL     1       4.763  -4.263  -2.170  0.00  0.00    +0.379 N 
ATOM     21  H   UNL     1       5.532  -3.633  -1.998  0.00  0.00    -0.090 HD
ATOM     22  H   UNL     1       4.054  -4.129  -1.465  0.00  0.00    -0.090 HD
ATOM     23  H   UNL     1       5.095  -5.216  -2.135  0.00  0.00    -0.090 HD
ENDBRANCH  19  20
ENDBRANCH   1  19
TORSDOF 5
