REMARK  Name = ZINC43737076
REMARK  9 active torsions:
REMARK  status: ('A' for Active; 'I' for Inactive)
REMARK    1  A    between atoms: C_1  and  C_2
REMARK    2  A    between atoms: C_13  and  C_15
REMARK    3  A    between atoms: C_15  and  C_17
REMARK    4  A    between atoms: C_17  and  C_18
REMARK    5  A    between atoms: C_25  and  O_26
REMARK    6  A    between atoms: O_26  and  C_27
REMARK    7  A    between atoms: N_33  and  C_34
REMARK    8  A    between atoms: C_38  and  C_45
REMARK    9  A    between atoms: C_41  and  O_44
REMARK                            x       y       z     vdW  Elec       q    Type
REMARK                         _______ _______ _______ _____ _____    ______ ____
ROOT
ATOM      1  C   UNL     1      -0.340   1.603   0.138  0.00  0.00    +0.012 C 
ATOM      2  C   UNL     1      -0.431   0.054   0.254  0.00  0.00    -0.019 C 
ATOM      3  C   UNL     1       0.405  -0.479  -0.879  0.00  0.00    +0.008 C 
ATOM      4  C   UNL     1       0.935  -1.892  -0.658  0.00  0.00    +0.005 C 
ATOM      5  C   UNL     1       1.727  -1.892   0.652  0.00  0.00    +0.003 C 
ATOM      6  C   UNL     1       0.745  -1.646   1.793  0.00  0.00    +0.000 C 
ATOM      7  C   UNL     1       0.072  -0.287   1.659  0.00  0.00    -0.001 C 
ATOM      8  C   UNL     1      -1.204  -0.292   2.542  0.00  0.00    +0.005 C 
ATOM      9  C   UNL     1      -2.335  -0.744   1.598  0.00  0.00    +0.012 C 
ATOM     10  C   UNL     1      -1.919  -0.277   0.190  0.00  0.00    +0.061 C 
ATOM     11  C   UNL     1      -0.275  -2.780   1.840  0.00  0.00    +0.031 C 
ATOM     12  C   UNL     1       0.445  -4.099   1.901  0.00  0.00    -0.027 C 
ATOM     13  C   UNL     1       1.654  -4.276   1.458  0.00  0.00    -0.065 C 
ATOM     14  C   UNL     1       2.488  -3.192   0.841  0.00  0.00    -0.008 C 
ATOM     15  C   UNL     1       3.057  -3.681  -0.492  0.00  0.00    +0.014 C 
ATOM     16  C   UNL     1       3.759  -5.027  -0.323  0.00  0.00    +0.032 C 
ATOM     17  C   UNL     1       2.777  -6.079   0.193  0.00  0.00    +0.119 C 
ATOM     18  C   UNL     1       2.257  -5.665   1.572  0.00  0.00    +0.062 C 
ATOM     19  C   UNL     1       3.663  -2.900   1.783  0.00  0.00    +0.016 C 
ENDROOT
BRANCH  10  20
ATOM     20  C   UNL     1      -2.263  -1.317  -0.835  0.00  0.00    +0.136 C 
ATOM     21  O   UNL     1      -2.292  -2.484  -0.526  0.00  0.00    -0.297 OA
BRANCH  20  22
ATOM     22  C   UNL     1      -2.573  -0.906  -2.252  0.00  0.00    +0.064 C 
BRANCH  22  23
ATOM     23  C   UNL     1      -3.018  -2.131  -3.053  0.00  0.00    -0.027 C 
ATOM     24  C   UNL     1      -4.159  -2.806  -2.336  0.00  0.00    -0.012 A 
ATOM     25  C   UNL     1      -4.244  -4.179  -2.239  0.00  0.00    -0.040 A 
ATOM     26  C   UNL     1      -5.311  -4.763  -1.575  0.00  0.00    +0.053 A 
ATOM     27  C   UNL     1      -6.297  -3.977  -1.004  0.00  0.00    +0.170 A 
ATOM     28  C   UNL     1      -6.215  -2.592  -1.097  0.00  0.00    +0.208 A 
ATOM     29  C   UNL     1      -5.146  -2.010  -1.764  0.00  0.00    +0.167 A 
ATOM     30  O   UNL     1      -7.294  -2.046  -0.462  0.00  0.00    -0.449 OA
ATOM     31  C   UNL     1      -8.247  -3.118  -0.333  0.00  0.00    +0.467 C 
ATOM     32  O   UNL     1      -7.427  -4.302  -0.310  0.00  0.00    -0.452 OA
ATOM     33  C   UNL     1      -3.191  -5.075  -2.841  0.00  0.00    +0.017 C 
ATOM     34  C   UNL     1      -2.352  -4.286  -3.847  0.00  0.00    -0.074 C 
ATOM     35  N   UNL     1      -1.886  -3.050  -3.199  0.00  0.00    +0.383 N 
ATOM     36  C   UNL     1      -0.848  -2.423  -4.027  0.00  0.00    -0.095 C 
ATOM     37  H   UNL     1      -1.508  -3.268  -2.289  0.00  0.00    -0.081 HD
BRANCH  29  38
ATOM     38  O   UNL     1      -5.062  -0.656  -1.857  0.00  0.00    -0.491 OA
ATOM     39  C   UNL     1      -5.681  -0.044  -2.990  0.00  0.00    +0.277 C 
ENDBRANCH  29  38
ENDBRANCH  22  23
ENDBRANCH  20  22
ENDBRANCH  10  20
BRANCH  17  40
ATOM     40  O   UNL     1       1.679  -6.197  -0.715  0.00  0.00    -0.391 OA
ATOM     41  H   UNL     1       1.017  -6.849  -0.448  0.00  0.00    +0.210 HD
ENDBRANCH  17  40
TORSDOF 5
