REMARK  Name = ZINC36014177
REMARK  8 active torsions:
REMARK  status: ('A' for Active; 'I' for Inactive)
REMARK    1  A    between atoms: C_1  and  C_2
REMARK    2  A    between atoms: C_2  and  N_3
REMARK    3  A    between atoms: C_13  and  C_22
REMARK    4  A    between atoms: N_17  and  C_18
REMARK    5  A    between atoms: C_18  and  C_19
REMARK    6  A    between atoms: C_19  and  C_20
REMARK    7  A    between atoms: C_19  and  C_21
REMARK    8  A    between atoms: C_22  and  C_23
REMARK                            x       y       z     vdW  Elec       q    Type
REMARK                         _______ _______ _______ _____ _____    ______ ____
ROOT
ATOM      1  N   UNL     1      -0.782  -1.553   0.182  0.00  0.00    -0.300 N 
ATOM      2  C   UNL     1      -1.950  -0.918   0.404  0.00  0.00    +0.302 C 
ATOM      3  O   UNL     1      -1.952   0.218   0.835  0.00  0.00    -0.253 OA
ATOM      4  N   UNL     1      -3.116  -1.544   0.148  0.00  0.00    -0.286 N 
ATOM      5  C   UNL     1      -4.393  -0.830   0.280  0.00  0.00    +0.109 C 
ATOM      6  C   UNL     1      -5.171  -0.967  -1.033  0.00  0.00    +0.025 C 
ATOM      7  C   UNL     1      -5.303  -2.445  -1.394  0.00  0.00    +0.006 C 
ATOM      8  C   UNL     1      -3.921  -3.072  -1.575  0.00  0.00    +0.025 C 
ATOM      9  C   UNL     1      -3.133  -2.952  -0.272  0.00  0.00    +0.109 C 
ATOM     10  N   UNL     1      -6.083  -2.588  -2.641  0.00  0.00    +0.401 N 
ATOM     11  C   UNL     1      -6.823  -3.855  -2.432  0.00  0.00    +0.023 C 
ATOM     12  C   UNL     1      -6.942  -3.989  -0.929  0.00  0.00    +0.201 C 
ATOM     13  O   UNL     1      -7.709  -4.722  -0.341  0.00  0.00    -0.277 OA
ATOM     14  N   UNL     1      -6.050  -3.157  -0.353  0.00  0.00    -0.313 N 
ATOM     15  H   UNL     1      -0.780  -2.481  -0.099  0.00  0.00    +0.150 HD
ATOM     16  H   UNL     1      -6.723  -1.815  -2.751  0.00  0.00    -0.082 HD
ATOM     17  H   UNL     1      -5.469  -2.661  -3.439  0.00  0.00    -0.082 HD
ENDROOT
BRANCH   1  19
ATOM     18  C   UNL     1       1.650  -1.781   0.049  0.00  0.00    +0.024 C 
ATOM     19  C   UNL     1       0.485  -0.840   0.363  0.00  0.00    +0.102 C 
ENDBRANCH   1  19
BRANCH  14  20
ATOM     20  C   UNL     1      -5.858  -2.990   1.089  0.00  0.00    +0.109 C 
BRANCH  20  21
ATOM     21  C   UNL     1      -7.017  -2.176   1.668  0.00  0.00    +0.000 C 
ATOM     22  C   UNL     1      -6.722  -1.835   3.130  0.00  0.00    +0.009 C 
ATOM     23  C   UNL     1      -7.183  -0.884   0.866  0.00  0.00    +0.009 C 
ENDBRANCH  20  21
ENDBRANCH  14  20
BRANCH  11  24
ATOM     24  C   UNL     1      -8.210  -3.775  -3.073  0.00  0.00    +0.028 C 
BRANCH  24  25
ATOM     25  C   UNL     1      -8.066  -3.652  -4.568  0.00  0.00    -0.048 A 
ATOM     26  C   UNL     1      -7.971  -2.403  -5.153  0.00  0.00    +0.003 A 
ATOM     27  C   UNL     1      -7.838  -2.291  -6.524  0.00  0.00    +0.000 A 
ATOM     28  C   UNL     1      -7.801  -3.427  -7.311  0.00  0.00    +0.000 A 
ATOM     29  C   UNL     1      -7.895  -4.676  -6.726  0.00  0.00    +0.000 A 
ATOM     30  C   UNL     1      -8.023  -4.788  -5.354  0.00  0.00    +0.003 A 
ENDBRANCH  24  25
ENDBRANCH  11  24
TORSDOF 5
