REMARK  Name = ZINC36551102
REMARK  6 active torsions:
REMARK  status: ('A' for Active; 'I' for Inactive)
REMARK    1  A    between atoms: C_1  and  O_2
REMARK    2  A    between atoms: O_2  and  C_3
REMARK    3  A    between atoms: C_6  and  C_10
REMARK    4  A    between atoms: C_8  and  O_9
REMARK    5  A    between atoms: C_21  and  S_26
REMARK    6  A    between atoms: S_26  and  N_29
REMARK                            x       y       z     vdW  Elec       q    Type
REMARK                         _______ _______ _______ _____ _____    ______ ____
ROOT
ATOM      1  C   UNL     1      -4.987  -2.627   0.035  0.00  0.00    +0.105 C 
ATOM      2  C   UNL     1      -5.597  -2.610  -1.355  0.00  0.00    +0.029 C 
ATOM      3  C   UNL     1      -4.891  -3.433  -2.440  0.00  0.00    +0.033 C 
ATOM      4  C   UNL     1      -6.060  -3.800  -3.358  0.00  0.00    -0.030 C 
ATOM      5  C   UNL     1      -7.194  -3.800  -2.669  0.00  0.00    -0.023 C 
ATOM      6  C   UNL     1      -6.905  -3.449  -1.245  0.00  0.00    +0.049 C 
ATOM      7  C   UNL     1      -7.853  -2.700  -0.391  0.00  0.00    -0.018 A 
ATOM      8  C   UNL     1      -9.214  -2.713  -0.609  0.00  0.00    +0.034 A 
ATOM      9  C   UNL     1     -10.061  -2.007   0.226  0.00  0.00    +0.109 A 
ATOM     10  C   UNL     1      -9.543  -1.286   1.286  0.00  0.00    +0.030 A 
ATOM     11  C   UNL     1      -8.181  -1.263   1.510  0.00  0.00    +0.025 A 
ATOM     12  C   UNL     1      -7.321  -1.963   0.672  0.00  0.00    +0.031 A 
ATOM     13  N   UNL     1      -5.940  -1.898   0.900  0.00  0.00    -0.336 N 
ATOM     14  H   UNL     1      -5.602  -1.364   1.637  0.00  0.00    +0.147 HD
ENDROOT
BRANCH   1  18
ATOM     15  C   UNL     1      -1.201  -0.638   0.010  0.00  0.00    +0.161 A 
ATOM     16  C   UNL     1      -2.374   0.099   0.019  0.00  0.00    +0.050 A 
ATOM     17  C   UNL     1      -3.596  -0.546   0.027  0.00  0.00    +0.009 A 
ATOM     18  C   UNL     1      -3.652  -1.928   0.026  0.00  0.00    -0.023 A 
ATOM     19  C   UNL     1      -2.485  -2.669   0.017  0.00  0.00    +0.054 A 
ATOM     20  C   UNL     1      -1.257  -2.028   0.003  0.00  0.00    +0.159 A 
BRANCH  15  22
ATOM     21  C   UNL     1      -0.017   1.425   0.010  0.00  0.00    +0.277 C 
ATOM     22  O   UNL     1       0.002  -0.004   0.002  0.00  0.00    -0.491 OA
ENDBRANCH  15  22
BRANCH  20  23
ATOM     23  O   UNL     1      -0.108  -2.756  -0.012  0.00  0.00    -0.503 OA
ATOM     24  H   UNL     1       0.232  -2.972   0.867  0.00  0.00    +0.292 HD
ENDBRANCH  20  23
ENDBRANCH   1  18
BRANCH   9  25
ATOM     25  S   UNL     1     -11.799  -2.026  -0.061  0.00  0.00    +0.075 S 
ATOM     26  O   UNL     1     -12.322  -0.846   0.533  0.00  0.00    -0.150 OA
ATOM     27  O   UNL     1     -11.980  -2.330  -1.438  0.00  0.00    -0.150 OA
BRANCH  25  28
ATOM     28  N   UNL     1     -12.422  -3.302   0.791  0.00  0.00    -0.202 N 
ATOM     29  C   UNL     1     -12.568  -4.665   0.274  0.00  0.00    +0.136 C 
ATOM     30  C   UNL     1     -13.186  -5.470   1.429  0.00  0.00    +0.058 C 
ATOM     31  C   UNL     1     -13.348  -4.465   2.548  0.00  0.00    -0.023 A 
ATOM     32  C   UNL     1     -12.880  -3.236   2.108  0.00  0.00    +0.054 A 
ATOM     33  C   UNL     1     -12.922  -2.144   2.977  0.00  0.00    +0.025 A 
ATOM     34  C   UNL     1     -13.418  -2.292   4.255  0.00  0.00    +0.002 A 
ATOM     35  C   UNL     1     -13.878  -3.522   4.685  0.00  0.00    +0.000 A 
ATOM     36  C   UNL     1     -13.848  -4.606   3.828  0.00  0.00    +0.005 A 
ENDBRANCH  25  28
ENDBRANCH   9  25
TORSDOF 5
