REMARK  Name = ZINC35486249
REMARK  11 active torsions:
REMARK  status: ('A' for Active; 'I' for Inactive)
REMARK    1  A    between atoms: C_1  and  C_2
REMARK    2  A    between atoms: C_2  and  N_3
REMARK    3  A    between atoms: N_3  and  C_4
REMARK    4  A    between atoms: N_3  and  C_6
REMARK    5  A    between atoms: C_4  and  C_5
REMARK    6  A    between atoms: C_6  and  C_7
REMARK    7  A    between atoms: C_7  and  N_8
REMARK    8  A    between atoms: C_9  and  C_25
REMARK    9  A    between atoms: C_29  and  O_31
REMARK   10  A    between atoms: O_31  and  C_32
REMARK   11  A    between atoms: C_32  and  C_33
REMARK                            x       y       z     vdW  Elec       q    Type
REMARK                         _______ _______ _______ _____ _____    ______ ____
ROOT
ATOM      1  N   UNL     1       1.516  -3.418   3.102  0.00  0.00    -0.285 N 
ATOM      2  C   UNL     1       0.483  -4.328   3.624  0.00  0.00    +0.145 C 
ATOM      3  C   UNL     1       1.083  -5.695   3.576  0.00  0.00    +0.072 A 
ATOM      4  C   UNL     1       0.545  -7.001   3.971  0.00  0.00    +0.199 A 
ATOM      5  O   UNL     1      -0.623  -7.179   4.266  0.00  0.00    -0.287 OA
ATOM      6  C   UNL     1       1.560  -8.085   3.975  0.00  0.00    +0.065 A 
ATOM      7  C   UNL     1       1.255  -9.335   4.515  0.00  0.00    +0.030 A 
ATOM      8  C   UNL     1       2.211 -10.328   4.515  0.00  0.00    +0.019 A 
ATOM      9  C   UNL     1       3.469 -10.082   3.980  0.00  0.00    +0.019 A 
ATOM     10  C   UNL     1       3.779  -8.854   3.443  0.00  0.00    +0.048 A 
ATOM     11  C   UNL     1       2.829  -7.833   3.429  0.00  0.00    +0.140 A 
ATOM     12  O   UNL     1       3.158  -6.638   2.886  0.00  0.00    -0.450 OA
ATOM     13  C   UNL     1       2.345  -5.578   3.066  0.00  0.00    +0.199 A 
ATOM     14  C   UNL     1       2.596  -4.156   2.774  0.00  0.00    +0.283 C 
ATOM     15  O   UNL     1       3.627  -3.712   2.308  0.00  0.00    -0.267 OA
ATOM     16 BR   UNL     1       1.808 -12.025   5.244  0.00  0.00    -0.050 Br
ENDROOT
BRANCH   2  17
ATOM     17  C   UNL     1      -0.748  -4.269   2.758  0.00  0.00    -0.019 A 
ATOM     18  C   UNL     1      -0.623  -4.198   1.382  0.00  0.00    +0.006 A 
ATOM     19  C   UNL     1      -1.751  -4.144   0.585  0.00  0.00    +0.004 A 
ATOM     20  C   UNL     1      -3.007  -4.159   1.161  0.00  0.00    +0.045 A 
ATOM     21  C   UNL     1      -3.135  -4.230   2.540  0.00  0.00    +0.121 A 
ATOM     22  C   UNL     1      -2.002  -4.291   3.338  0.00  0.00    +0.051 A 
BRANCH  21  23
ATOM     23  O   UNL     1      -4.369  -4.246   3.109  0.00  0.00    -0.488 OA
BRANCH  23  24
ATOM     24  C   UNL     1      -5.491  -4.186   2.226  0.00  0.00    +0.256 C 
BRANCH  24  25
ATOM     25  C   UNL     1      -6.766  -4.214   3.030  0.00  0.00    +0.006 C 
ATOM     26  C   UNL     1      -7.738  -3.384   2.745  0.00  0.00    +0.007 C 
ENDBRANCH  24  25
ENDBRANCH  23  24
ENDBRANCH  21  23
ENDBRANCH   2  17
BRANCH   1  27
ATOM     27  C   UNL     1       1.390  -1.966   2.957  0.00  0.00    +0.090 C 
BRANCH  27  28
ATOM     28  C   UNL     1       0.821  -1.638   1.575  0.00  0.00    -0.060 C 
BRANCH  28  29
ATOM     29  N   UNL     1       0.819  -0.182   1.379  0.00  0.00    +0.380 N 
ATOM     30  H   UNL     1       0.327   0.259   2.141  0.00  0.00    -0.082 HD
BRANCH  29  32
ATOM     31  C   UNL     1       2.201   1.836   1.260  0.00  0.00    -0.017 C 
ATOM     32  C   UNL     1       2.203   0.308   1.340  0.00  0.00    -0.082 C 
ENDBRANCH  29  32
BRANCH  29  33
ATOM     33  C   UNL     1       0.150   0.140   0.111  0.00  0.00    -0.082 C 
ATOM     34  C   UNL     1      -1.330  -0.237   0.206  0.00  0.00    -0.017 C 
ENDBRANCH  29  33
ENDBRANCH  28  29
ENDBRANCH  27  28
ENDBRANCH   1  27
TORSDOF 9
