REMARK  Name = ZINC39599855
REMARK  11 active torsions:
REMARK  status: ('A' for Active; 'I' for Inactive)
REMARK    1  A    between atoms: C_1  and  C_2
REMARK    2  A    between atoms: C_4  and  C_11
REMARK    3  A    between atoms: N_5  and  C_7
REMARK    4  A    between atoms: C_7  and  C_8
REMARK    5  A    between atoms: C_7  and  C_9
REMARK    6  A    between atoms: C_7  and  C_10
REMARK    7  A    between atoms: C_15  and  C_24
REMARK    8  A    between atoms: N_26  and  C_27
REMARK    9  A    between atoms: C_27  and  C_28
REMARK   10  A    between atoms: C_31  and  O_34
REMARK   11  A    between atoms: O_34  and  C_35
REMARK                            x       y       z     vdW  Elec       q    Type
REMARK                         _______ _______ _______ _____ _____    ______ ____
ROOT
ATOM      1  C   UNL     1      -0.591  -4.011  -1.480  0.00  0.00    +0.265 C 
ATOM      2  O   UNL     1      -0.830  -3.821  -2.657  0.00  0.00    -0.268 OA
ATOM      3  N   UNL     1      -0.691  -5.252  -0.963  0.00  0.00    -0.295 N 
ATOM      4  C   UNL     1      -0.572  -5.656   0.457  0.00  0.00    +0.121 C 
ATOM      5  C   UNL     1      -1.654  -6.743   0.646  0.00  0.00    +0.100 C 
ATOM      6  C   UNL     1      -1.894  -7.307  -0.765  0.00  0.00    -0.004 C 
ATOM      7  C   UNL     1      -0.952  -6.519  -1.687  0.00  0.00    +0.115 C 
ATOM      8  C   UNL     1      -1.553  -8.793  -0.805  0.00  0.00    -0.010 C 
ATOM      9  C   UNL     1      -1.854  -9.344  -2.201  0.00  0.00    -0.082 C 
ATOM     10  N   UNL     1      -3.273  -9.139  -2.515  0.00  0.00    +0.379 N 
ATOM     11  C   UNL     1      -3.572  -7.703  -2.566  0.00  0.00    -0.082 C 
ATOM     12  C   UNL     1      -3.344  -7.083  -1.184  0.00  0.00    -0.010 C 
ATOM     13  H   UNL     1      -3.483  -9.557  -3.409  0.00  0.00    -0.086 HD
ATOM     14  H   UNL     1      -3.840  -9.574  -1.802  0.00  0.00    -0.086 HD
ENDROOT
BRANCH   1  18
ATOM     15  C   UNL     1       1.017  -1.181   2.409  0.00  0.00    +0.067 C 
ATOM     16  C   UNL     1       0.508  -1.637   1.066  0.00  0.00    +0.061 A 
ATOM     17  C   UNL     1       0.259  -2.958   0.687  0.00  0.00    +0.057 A 
ATOM     18  C   UNL     1      -0.192  -2.886  -0.620  0.00  0.00    +0.124 A 
ATOM     19  N   UNL     1      -0.191  -1.560  -0.951  0.00  0.00    -0.254 N 
ATOM     20  N   UNL     1       0.215  -0.866   0.051  0.00  0.00    -0.175 NA
BRANCH  19  21
ATOM     21  C   UNL     1      -0.597  -1.014  -2.248  0.00  0.00    +0.056 C 
ATOM     22  C   UNL     1      -2.013  -1.489  -2.581  0.00  0.00    +0.036 C 
ATOM     23  C   UNL     1      -0.572   0.514  -2.188  0.00  0.00    +0.036 C 
ATOM     24  C   UNL     1       0.370  -1.498  -3.330  0.00  0.00    +0.036 C 
ENDBRANCH  19  21
ENDBRANCH   1  18
BRANCH   5  25
ATOM     25  C   UNL     1      -1.156  -7.825   1.569  0.00  0.00    +0.218 C 
ATOM     26  O   UNL     1       0.033  -8.046   1.657  0.00  0.00    -0.275 OA
ATOM     27  N   UNL     1      -2.032  -8.547   2.295  0.00  0.00    -0.311 N 
ATOM     28  H   UNL     1      -2.986  -8.424   2.167  0.00  0.00    +0.149 HD
BRANCH  27  29
ATOM     29  C   UNL     1      -1.544  -9.517   3.278  0.00  0.00    +0.139 C 
BRANCH  29  30
ATOM     30  C   UNL     1      -2.717 -10.185   3.949  0.00  0.00    -0.030 A 
ATOM     31  C   UNL     1      -3.260  -9.636   5.096  0.00  0.00    +0.009 A 
ATOM     32  C   UNL     1      -4.335 -10.247   5.713  0.00  0.00    +0.046 A 
ATOM     33  C   UNL     1      -4.868 -11.412   5.181  0.00  0.00    +0.130 A 
ATOM     34  C   UNL     1      -4.321 -11.961   4.031  0.00  0.00    +0.046 A 
ATOM     35  C   UNL     1      -3.250 -11.344   3.414  0.00  0.00    +0.009 A 
BRANCH  33  36
ATOM     36  O   UNL     1      -5.925 -12.015   5.787  0.00  0.00    -0.406 OA
BRANCH  36  37
ATOM     37  C   UNL     1      -6.422 -13.212   5.184  0.00  0.00    +0.575 C 
ATOM     38  F   UNL     1      -5.407 -14.175   5.152  0.00  0.00    -0.133 F 
ATOM     39  F   UNL     1      -7.502 -13.697   5.930  0.00  0.00    -0.133 F 
ATOM     40  F   UNL     1      -6.844 -12.936   3.879  0.00  0.00    -0.133 F 
ENDBRANCH  36  37
ENDBRANCH  33  36
ENDBRANCH  29  30
ENDBRANCH  27  29
ENDBRANCH   5  25
TORSDOF 7
