REMARK  Name = ZINC12792855
REMARK  9 active torsions:
REMARK  status: ('A' for Active; 'I' for Inactive)
REMARK    1  A    between atoms: C_1  and  C_2
REMARK    2  A    between atoms: C_5  and  S_8
REMARK    3  A    between atoms: S_8  and  N_11
REMARK    4  A    between atoms: C_17  and  C_19
REMARK    5  A    between atoms: C_17  and  C_20
REMARK    6  A    between atoms: C_17  and  N_61
REMARK    7  A    between atoms: N_22  and  C_23
REMARK    8  A    between atoms: C_23  and  C_25
REMARK    9  A    between atoms: C_23  and  C_26
REMARK                            x       y       z     vdW  Elec       q    Type
REMARK                         _______ _______ _______ _____ _____    ______ ____
ROOT
ATOM      1  N   UNL     1      -0.459   4.304  -0.370  0.00  0.00    -0.178 NA
ATOM      2  C   UNL     1      -1.929   4.185  -0.427  0.00  0.00    +0.107 C 
ATOM      3  C   UNL     1      -2.385   2.749  -0.120  0.00  0.00    -0.001 C 
ATOM      4  C   UNL     1      -1.445   1.765  -0.780  0.00  0.00    -0.076 C 
ATOM      5  C   UNL     1       0.743   2.245   0.197  0.00  0.00    -0.060 C 
ATOM      6  C   UNL     1       0.335   3.665   0.660  0.00  0.00    +0.091 C 
ATOM      7  N   UNL     1      -0.415   1.386   0.228  0.00  0.00    +0.388 N 
ATOM      8  H   UNL     1      -0.839   1.457   1.160  0.00  0.00    -0.081 HD
ENDROOT
BRANCH   1   9
ATOM      9  S   UNL     1       0.313   5.203  -1.527  0.00  0.00    +0.061 S 
ATOM     10  O   UNL     1      -0.642   6.128  -2.027  0.00  0.00    -0.153 OA
ATOM     11  O   UNL     1       1.550   5.616  -0.963  0.00  0.00    -0.153 OA
BRANCH   9  16
ATOM     12  C   UNL     1       1.653   1.478  -6.081  0.00  0.00    +0.044 C 
ATOM     13  C   UNL     1       1.319   2.409  -4.944  0.00  0.00    -0.050 A 
ATOM     14  C   UNL     1       0.111   3.081  -4.933  0.00  0.00    +0.005 A 
ATOM     15  C   UNL     1      -0.196   3.935  -3.890  0.00  0.00    +0.029 A 
ATOM     16  C   UNL     1       0.705   4.115  -2.857  0.00  0.00    +0.105 A 
ATOM     17  C   UNL     1       1.914   3.446  -2.869  0.00  0.00    +0.029 A 
ATOM     18  C   UNL     1       2.219   2.589  -3.910  0.00  0.00    +0.005 A 
ENDBRANCH   9  16
ENDBRANCH   1   9
BRANCH   7  19
ATOM     19  C   UNL     1       0.002  -0.004   0.002  0.00  0.00    +0.016 C 
ATOM     20  C   UNL     1       1.018  -0.120  -1.136  0.00  0.00    -0.004 C 
BRANCH  19  21
ATOM     21  C   UNL     1       0.622  -0.505   1.281  0.00  0.00    +0.200 C 
ATOM     22  O   UNL     1       0.925   0.279   2.155  0.00  0.00    -0.278 OA
ATOM     23  N   UNL     1       0.838  -1.824   1.454  0.00  0.00    -0.310 N 
ATOM     24  H   UNL     1       0.595  -2.451   0.754  0.00  0.00    +0.149 HD
BRANCH  23  25
ATOM     25  C   UNL     1       1.440  -2.311   2.697  0.00  0.00    +0.100 C 
ATOM     26  C   UNL     1       0.349  -2.502   3.752  0.00  0.00    +0.033 C 
BRANCH  25  27
ATOM     27  C   UNL     1       2.127  -3.628   2.441  0.00  0.00    -0.027 A 
ATOM     28  C   UNL     1       1.534  -4.567   1.616  0.00  0.00    +0.008 A 
ATOM     29  C   UNL     1       2.165  -5.772   1.376  0.00  0.00    +0.038 A 
ATOM     30  C   UNL     1       3.386  -6.045   1.971  0.00  0.00    +0.123 A 
ATOM     31  C   UNL     1       3.975  -5.107   2.801  0.00  0.00    +0.038 A 
ATOM     32  C   UNL     1       3.345  -3.899   3.035  0.00  0.00    +0.008 A 
ATOM     33  F   UNL     1       4.000  -7.226   1.742  0.00  0.00    -0.205 F 
ENDBRANCH  25  27
ENDBRANCH  23  25
ENDBRANCH  19  21
ENDBRANCH   7  19
TORSDOF 6
