REMARK  Name = ZINC44940266
REMARK  5 active torsions:
REMARK  status: ('A' for Active; 'I' for Inactive)
REMARK    1  A    between atoms: C_7  and  C_11
REMARK    2  A    between atoms: C_11  and  C_12
REMARK    3  A    between atoms: C_12  and  N_13
REMARK    4  A    between atoms: C_14  and  C_16
REMARK    5  A    between atoms: C_22  and  C_24
REMARK                            x       y       z     vdW  Elec       q    Type
REMARK                         _______ _______ _______ _____ _____    ______ ____
ROOT
ATOM      1  C   UNL     1      -2.123  -6.377  -2.610  0.00  0.00    +0.091 C 
ATOM      2  C   UNL     1      -3.363  -6.046  -1.776  0.00  0.00    +0.040 C 
ATOM      3  C   UNL     1      -4.416  -7.095  -1.978  0.00  0.00    -0.030 C 
ATOM      4  C   UNL     1      -4.423  -7.936  -2.962  0.00  0.00    -0.030 C 
ATOM      5  C   UNL     1      -3.373  -7.986  -4.033  0.00  0.00    +0.040 C 
ATOM      6  C   UNL     1      -2.566  -6.687  -4.045  0.00  0.00    +0.091 C 
ENDROOT
BRANCH   6   7
ATOM      7  C   UNL     1      -3.428  -5.565  -4.563  0.00  0.00    +0.220 C 
ATOM      8  O   UNL     1      -4.504  -5.341  -4.050  0.00  0.00    -0.275 OA
ATOM      9  N   UNL     1      -3.003  -4.811  -5.596  0.00  0.00    -0.295 N 
ATOM     10  C   UNL     1      -3.775  -3.641  -6.043  0.00  0.00    +0.113 C 
ATOM     11  C   UNL     1      -2.941  -2.376  -5.811  0.00  0.00    +0.056 C 
ATOM     12  C   UNL     1      -1.532  -2.623  -6.289  0.00  0.00    -0.016 A 
ATOM     13  C   UNL     1      -0.506  -1.648  -6.598  0.00  0.00    +0.003 A 
ATOM     14  C   UNL     1      -0.484  -0.251  -6.561  0.00  0.00    +0.010 A 
ATOM     15  C   UNL     1       0.688   0.362  -6.930  0.00  0.00    +0.001 A 
ATOM     16  C   UNL     1       1.803  -0.360  -7.324  0.00  0.00    +0.002 A 
ATOM     17  C   UNL     1       1.809  -1.743  -7.371  0.00  0.00    +0.026 A 
ATOM     18  C   UNL     1       0.633  -2.392  -7.000  0.00  0.00    +0.047 A 
ATOM     19  N   UNL     1       0.299  -3.714  -6.931  0.00  0.00    -0.356 N 
ATOM     20  H   UNL     1       0.891  -4.451  -7.149  0.00  0.00    +0.166 HD
ATOM     21  C   UNL     1      -0.996  -3.843  -6.507  0.00  0.00    +0.038 A 
ATOM     22  C   UNL     1      -1.752  -5.133  -6.302  0.00  0.00    +0.161 C 
ENDBRANCH   6   7
BRANCH   1  24
ATOM     23  N   UNL     1      -0.673  -4.740  -1.453  0.00  0.00    -0.315 N 
ATOM     24  C   UNL     1      -1.185  -5.198  -2.613  0.00  0.00    +0.217 C 
ATOM     25  O   UNL     1      -0.890  -4.660  -3.659  0.00  0.00    -0.275 OA
ATOM     26  H   UNL     1      -0.909  -5.170  -0.616  0.00  0.00    +0.149 HD
BRANCH  23  27
ATOM     27  C   UNL     1       0.239  -3.594  -1.456  0.00  0.00    +0.109 C 
BRANCH  27  28
ATOM     28  C   UNL     1       0.670  -3.281  -0.021  0.00  0.00    +0.056 C 
BRANCH  28  35
ATOM     29  C   UNL     1      -0.009   1.357   0.012  0.00  0.00    +0.001 A 
ATOM     30  C   UNL     1       1.177   2.077   0.005  0.00  0.00    +0.002 A 
ATOM     31  C   UNL     1       2.393   1.429  -0.012  0.00  0.00    +0.026 A 
ATOM     32  C   UNL     1       2.434   0.038  -0.020  0.00  0.00    +0.047 A 
ATOM     33  C   UNL     1       1.229  -0.687  -0.012  0.00  0.00    +0.003 A 
ATOM     34  C   UNL     1       0.008  -0.009   0.004  0.00  0.00    +0.010 A 
ATOM     35  C   UNL     1       1.608  -2.102  -0.024  0.00  0.00    -0.021 A 
ATOM     36  C   UNL     1       2.950  -2.149  -0.038  0.00  0.00    +0.087 A 
ATOM     37  N   UNL     1       3.461  -0.879  -0.036  0.00  0.00    -0.360 N 
ATOM     38  H   UNL     1       4.405  -0.659  -0.044  0.00  0.00    +0.165 HD
ENDBRANCH  28  35
ENDBRANCH  27  28
ENDBRANCH  23  27
ENDBRANCH   1  24
TORSDOF 5
