REMARK  Name = ZINC17051061
REMARK  6 active torsions:
REMARK  status: ('A' for Active; 'I' for Inactive)
REMARK    1  A    between atoms: C_1  and  C_2
REMARK    2  A    between atoms: C_5  and  S_8
REMARK    3  A    between atoms: S_8  and  N_11
REMARK    4  A    between atoms: C_14  and  C_17
REMARK    5  A    between atoms: C_17  and  C_18
REMARK    6  A    between atoms: N_20  and  C_21
REMARK                            x       y       z     vdW  Elec       q    Type
REMARK                         _______ _______ _______ _____ _____    ______ ____
ROOT
ATOM      1  N   UNL     1      -4.013   1.633  -2.774  0.00  0.00    -0.103 NA
ATOM      2  C   UNL     1      -2.675   1.784  -2.442  0.00  0.00    +0.192 A 
ATOM      3  N   UNL     1      -2.032   1.348  -1.376  0.00  0.00    -0.336 N 
ATOM      4  C   UNL     1      -0.743   1.582  -1.213  0.00  0.00    +0.033 A 
ATOM      5  C   UNL     1      -0.090   2.289  -2.166  0.00  0.00    +0.070 A 
ATOM      6  S   UNL     1      -1.417   2.596  -3.321  0.00  0.00    -0.057 S 
ATOM      7  H   UNL     1      -2.569   0.779  -0.603  0.00  0.00    +0.168 HD
ENDROOT
BRANCH   1   8
ATOM      8  S   UNL     1      -4.593   2.279  -4.184  0.00  0.00    +0.101 S 
ATOM      9  O   UNL     1      -5.971   1.936  -4.250  0.00  0.00    -0.146 OA
ATOM     10  O   UNL     1      -4.140   3.624  -4.232  0.00  0.00    -0.146 OA
BRANCH   8  15
ATOM     11  C   UNL     1      -1.876  -0.619  -8.725  0.00  0.00    +0.044 C 
ATOM     12  C   UNL     1      -2.554   0.105  -7.591  0.00  0.00    -0.050 A 
ATOM     13  C   UNL     1      -3.746  -0.375  -7.079  0.00  0.00    +0.005 A 
ATOM     14  C   UNL     1      -4.368   0.289  -6.039  0.00  0.00    +0.029 A 
ATOM     15  C   UNL     1      -3.800   1.432  -5.510  0.00  0.00    +0.113 A 
ATOM     16  C   UNL     1      -2.611   1.915  -6.025  0.00  0.00    +0.029 A 
ATOM     17  C   UNL     1      -1.986   1.249  -7.062  0.00  0.00    +0.005 A 
ENDBRANCH   8  15
ENDBRANCH   1   8
BRANCH   4  18
ATOM     18  C   UNL     1      -0.016   1.080   0.008  0.00  0.00    +0.149 C 
BRANCH  18  19
ATOM     19  C   UNL     1      -0.717   1.573   1.248  0.00  0.00    +0.223 C 
ATOM     20  O   UNL     1      -1.709   2.264   1.150  0.00  0.00    -0.275 OA
ATOM     21  N   UNL     1      -0.242   1.246   2.466  0.00  0.00    -0.285 N 
ATOM     22  H   UNL     1       0.612   0.558   2.557  0.00  0.00    +0.155 HD
BRANCH  21  23
ATOM     23  C   UNL     1      -0.833   1.782   3.615  0.00  0.00    +0.033 A 
ATOM     24  C   UNL     1      -0.053   2.086   4.723  0.00  0.00    +0.023 A 
ATOM     25  C   UNL     1      -0.639   2.620   5.853  0.00  0.00    +0.002 A 
ATOM     26  C   UNL     1      -2.003   2.841   5.887  0.00  0.00    +0.000 A 
ATOM     27  C   UNL     1      -2.784   2.534   4.788  0.00  0.00    +0.002 A 
ATOM     28  C   UNL     1      -2.203   2.006   3.652  0.00  0.00    +0.023 A 
ENDBRANCH  21  23
ENDBRANCH  18  19
ENDBRANCH   4  18
TORSDOF 5
