REMARK  Name = ZINC35317179
REMARK  6 active torsions:
REMARK  status: ('A' for Active; 'I' for Inactive)
REMARK    1  A    between atoms: C_1  and  C_2
REMARK    2  A    between atoms: C_5  and  S_8
REMARK    3  A    between atoms: S_8  and  O_11
REMARK    4  A    between atoms: O_11  and  C_12
REMARK    5  A    between atoms: C_19  and  C_36
REMARK    6  A    between atoms: C_30  and  C_35
REMARK                            x       y       z     vdW  Elec       q    Type
REMARK                         _______ _______ _______ _____ _____    ______ ____
ROOT
ATOM      1  C   UNL     1       2.183  -4.809   1.225  0.00  0.00    +0.163 C 
ATOM      2  C   UNL     1       3.012  -3.504   1.253  0.00  0.00    +0.109 C 
ATOM      3  C   UNL     1       4.434  -3.879   0.885  0.00  0.00    +0.140 C 
ATOM      4  O   UNL     1       5.384  -3.136   0.840  0.00  0.00    -0.297 OA
ATOM      5  C   UNL     1       4.436  -5.378   0.585  0.00  0.00    +0.067 C 
ATOM      6  C   UNL     1       3.248  -5.905   1.418  0.00  0.00    +0.007 C 
ATOM      7  C   UNL     1       2.763  -7.269   0.990  0.00  0.00    +0.010 C 
ATOM      8  C   UNL     1       2.475  -7.314  -0.510  0.00  0.00    +0.005 C 
ATOM      9  C   UNL     1       3.767  -6.964  -1.260  0.00  0.00    -0.001 C 
ATOM     10  C   UNL     1       4.182  -5.519  -0.919  0.00  0.00    +0.003 C 
ATOM     11  C   UNL     1       5.449  -5.120  -1.679  0.00  0.00    +0.005 C 
ATOM     12  C   UNL     1       5.198  -5.216  -3.184  0.00  0.00    +0.004 C 
ATOM     13  C   UNL     1       3.766  -5.694  -3.435  0.00  0.00    -0.005 C 
ATOM     14  C   UNL     1       3.517  -7.098  -2.765  0.00  0.00    -0.026 C 
ATOM     15  C   UNL     1       2.091  -7.601  -2.998  0.00  0.00    +0.007 C 
ATOM     16  C   UNL     1       1.835  -7.733  -4.501  0.00  0.00    +0.001 C 
ATOM     17  C   UNL     1       2.008  -6.367  -5.168  0.00  0.00    +0.000 C 
ATOM     18  C   UNL     1       3.525  -5.803  -4.942  0.00  0.00    +0.004 C 
ATOM     19  C   UNL     1       4.514  -8.095  -3.361  0.00  0.00    +0.012 C 
ATOM     20  C   UNL     1       3.652  -5.963   2.892  0.00  0.00    +0.014 C 
ENDROOT
BRANCH   1  21
ATOM     21  O   UNL     1       1.522  -4.962  -0.033  0.00  0.00    -0.230 OA
BRANCH  21  22
ATOM     22  S   UNL     1       0.063  -4.530  -0.023  0.00  0.00    +0.112 S 
ATOM     23  O   UNL     1      -0.476  -4.950   1.223  0.00  0.00    -0.142 OA
ATOM     24  O   UNL     1      -0.490  -4.937  -1.267  0.00  0.00    -0.142 OA
BRANCH  22  29
ATOM     25  C   UNL     1      -0.018   1.503   0.010  0.00  0.00    +0.044 C 
ATOM     26  C   UNL     1       0.002  -0.004   0.002  0.00  0.00    -0.050 A 
ATOM     27  C   UNL     1       0.006  -0.689  -1.199  0.00  0.00    +0.005 A 
ATOM     28  C   UNL     1       0.025  -2.071  -1.206  0.00  0.00    +0.030 A 
ATOM     29  C   UNL     1       0.040  -2.768  -0.013  0.00  0.00    +0.117 A 
ATOM     30  C   UNL     1       0.037  -2.084   1.188  0.00  0.00    +0.030 A 
ATOM     31  C   UNL     1       0.023  -0.702   1.195  0.00  0.00    +0.005 A 
ENDBRANCH  22  29
ENDBRANCH  21  22
ENDBRANCH   1  21
TORSDOF 3
