REMARK  Name = ZINC62944719
REMARK  2 active torsions:
REMARK  status: ('A' for Active; 'I' for Inactive)
REMARK    1  A    between atoms: C_14  and  C_18
REMARK    2  A    between atoms: N_19  and  O_20
REMARK                            x       y       z     vdW  Elec       q    Type
REMARK                         _______ _______ _______ _____ _____    ______ ____
ROOT
ATOM      1  C   UNL     1      -0.005   1.205   0.020  0.00  0.00    +0.000 A 
ATOM      2  C   UNL     1       1.164   1.943   0.013  0.00  0.00    +0.000 A 
ATOM      3  C   UNL     1       2.379   1.289   0.017  0.00  0.00    +0.005 A 
ATOM      4  C   UNL     1       2.433  -0.098   0.013  0.00  0.00    -0.027 A 
ATOM      5  C   UNL     1       1.275  -0.839  -0.021  0.00  0.00    -0.043 A 
ATOM      6  C   UNL     1       0.051  -0.171   0.007  0.00  0.00    +0.004 A 
ATOM      7  C   UNL     1       1.202  -2.342  -0.147  0.00  0.00    +0.037 C 
ATOM      8  C   UNL     1       2.394  -3.048   0.492  0.00  0.00    +0.024 C 
ATOM      9  C   UNL     1       3.527  -3.147  -0.544  0.00  0.00    +0.107 C 
ATOM     10  N   UNL     1       3.906  -1.799  -0.934  0.00  0.00    -0.312 N 
ATOM     11  C   UNL     1       3.785  -0.750   0.082  0.00  0.00    +0.141 C 
ATOM     12  C   UNL     1       4.363  -1.517  -2.216  0.00  0.00    +0.100 A 
ATOM     13  C   UNL     1       4.721  -0.216  -2.548  0.00  0.00    +0.053 A 
ATOM     14  C   UNL     1       5.178   0.051  -3.838  0.00  0.00    +0.022 A 
ATOM     15  C   UNL     1       5.256  -1.012  -4.747  0.00  0.00    +0.029 A 
ATOM     16  C   UNL     1       4.882  -2.274  -4.338  0.00  0.00    +0.085 A 
ATOM     17  N   UNL     1       4.458  -2.492  -3.107  0.00  0.00    -0.350 N 
ATOM     18  H   UNL     1       4.205  -3.392  -2.848  0.00  0.00    +0.166 HD
ENDROOT
BRANCH  14  19
ATOM     19  C   UNL     1       5.571   1.422  -4.238  0.00  0.00    +0.163 C 
ATOM     20  N   UNL     1       5.537   1.769  -5.490  0.00  0.00    -0.072 NA
ATOM     21  N   UNL     1       5.974   2.335  -3.277  0.00  0.00    -0.340 N 
ATOM     22  H   UNL     1       5.999   2.076  -2.343  0.00  0.00    +0.144 HD
ATOM     23  H   UNL     1       6.231   3.233  -3.539  0.00  0.00    +0.144 HD
BRANCH  20  24
ATOM     24  O   UNL     1       4.990   0.888  -6.455  0.00  0.00    -0.408 OA
ATOM     25  H   UNL     1       5.008   1.233  -7.358  0.00  0.00    +0.328 HD
ENDBRANCH  20  24
ENDBRANCH  14  19
TORSDOF 2
