REMARK  Name = ZINC35089594
REMARK  16 active torsions:
REMARK  status: ('A' for Active; 'I' for Inactive)
REMARK    1  A    between atoms: C_1  and  C_2
REMARK    2  A    between atoms: C_2  and  C_3
REMARK    3  A    between atoms: C_3  and  C_4
REMARK    4  A    between atoms: C_4  and  C_5
REMARK    5  A    between atoms: C_5  and  C_7
REMARK    6  A    between atoms: C_5  and  C_9
REMARK    7  A    between atoms: C_7  and  C_8
REMARK    8  A    between atoms: N_11  and  C_12
REMARK    9  A    between atoms: N_11  and  C_17
REMARK   10  A    between atoms: C_12  and  C_13
REMARK   11  A    between atoms: C_13  and  N_14
REMARK   12  A    between atoms: N_14  and  C_15
REMARK   13  A    between atoms: N_14  and  C_16
REMARK   14  A    between atoms: C_17  and  C_19
REMARK   15  A    between atoms: C_17  and  C_20
REMARK   16  A    between atoms: N_30  and  C_31
REMARK                            x       y       z     vdW  Elec       q    Type
REMARK                         _______ _______ _______ _____ _____    ______ ____
ROOT
ATOM      1  C   UNL     1       3.467  -5.359  -5.087  0.00  0.00    +0.138 A 
ATOM      2  N   UNL     1       3.599  -5.149  -6.361  0.00  0.00    -0.231 NA
ATOM      3  C   UNL     1       4.309  -5.994  -7.151  0.00  0.00    +0.078 A 
ATOM      4  C   UNL     1       4.452  -5.769  -8.521  0.00  0.00    +0.028 A 
ATOM      5  C   UNL     1       5.182  -6.652  -9.285  0.00  0.00    +0.002 A 
ATOM      6  C   UNL     1       5.779  -7.766  -8.709  0.00  0.00    +0.001 A 
ATOM      7  C   UNL     1       5.652  -8.009  -7.359  0.00  0.00    +0.015 A 
ATOM      8  C   UNL     1       4.918  -7.127  -6.568  0.00  0.00    +0.065 A 
ATOM      9  C   UNL     1       4.750  -7.336  -5.123  0.00  0.00    +0.266 A 
ATOM     10  O   UNL     1       5.249  -8.292  -4.559  0.00  0.00    -0.267 OA
ATOM     11  N   UNL     1       4.023  -6.420  -4.441  0.00  0.00    -0.263 N 
ENDROOT
BRANCH  11  12
ATOM     12  C   UNL     1       3.836  -6.568  -3.062  0.00  0.00    +0.052 A 
ATOM     13  C   UNL     1       2.664  -7.163  -2.581  0.00  0.00    +0.027 A 
ATOM     14  C   UNL     1       2.456  -7.320  -1.247  0.00  0.00    +0.010 A 
ATOM     15  C   UNL     1       3.428  -6.881  -0.331  0.00  0.00    -0.018 A 
ATOM     16  C   UNL     1       3.240  -7.031   1.054  0.00  0.00    +0.008 A 
ATOM     17  C   UNL     1       4.200  -6.596   1.915  0.00  0.00    +0.001 A 
ATOM     18  C   UNL     1       5.371  -6.003   1.445  0.00  0.00    +0.001 A 
ATOM     19  C   UNL     1       5.587  -5.841   0.112  0.00  0.00    +0.008 A 
ATOM     20  C   UNL     1       4.618  -6.278  -0.808  0.00  0.00    -0.016 A 
ATOM     21  C   UNL     1       4.811  -6.133  -2.192  0.00  0.00    +0.034 A 
ENDBRANCH  11  12
BRANCH   1  22
ATOM     22  C   UNL     1       2.662  -4.373  -4.280  0.00  0.00    +0.139 C 
ATOM     23  C   UNL     1       1.899  -3.443  -5.225  0.00  0.00    +0.036 C 
BRANCH  22  26
ATOM     24  C   UNL     1       3.380  -3.550  -2.102  0.00  0.00    +0.219 C 
ATOM     25  O   UNL     1       2.539  -4.257  -1.587  0.00  0.00    -0.275 OA
ATOM     26  N   UNL     1       3.561  -3.582  -3.437  0.00  0.00    -0.293 N 
BRANCH  24  27
ATOM     27  C   UNL     1       4.222  -2.638  -1.248  0.00  0.00    +0.075 C 
BRANCH  27  28
ATOM     28  C   UNL     1       3.796  -1.187  -1.479  0.00  0.00    +0.009 C 
ATOM     29  C   UNL     1       4.975  -0.256  -1.186  0.00  0.00    +0.004 C 
ENDBRANCH  27  28
BRANCH  27  30
ATOM     30  C   UNL     1       4.029  -2.997   0.227  0.00  0.00    +0.013 C 
BRANCH  30  31
ATOM     31  C   UNL     1       5.015  -2.196   1.080  0.00  0.00    +0.000 C 
BRANCH  31  33
ATOM     32  C   UNL     1       5.941  -1.889   3.380  0.00  0.00    +0.004 C 
ATOM     33  C   UNL     1       4.955  -2.690   2.527  0.00  0.00    -0.003 C 
ENDBRANCH  31  33
ENDBRANCH  30  31
ENDBRANCH  27  30
ENDBRANCH  24  27
BRANCH  26  34
ATOM     34  C   UNL     1       4.658  -2.824  -4.045  0.00  0.00    +0.090 C 
BRANCH  34  35
ATOM     35  C   UNL     1       5.902  -3.710  -4.134  0.00  0.00    -0.060 C 
BRANCH  35  36
ATOM     36  N   UNL     1       7.043  -2.907  -4.594  0.00  0.00    +0.377 N 
ATOM     37  C   UNL     1       8.262  -3.726  -4.565  0.00  0.00    -0.097 C 
ATOM     38  C   UNL     1       6.795  -2.446  -5.966  0.00  0.00    -0.097 C 
ATOM     39  H   UNL     1       7.159  -2.109  -3.987  0.00  0.00    -0.083 HD
ENDBRANCH  35  36
ENDBRANCH  34  35
ENDBRANCH  26  34
ENDBRANCH  22  26
ENDBRANCH   1  22
TORSDOF 11
