REMARK  Name = ZINC49088778
REMARK  10 active torsions:
REMARK  status: ('A' for Active; 'I' for Inactive)
REMARK    1  A    between atoms: C_1  and  C_2
REMARK    2  A    between atoms: C_2  and  C_3
REMARK    3  A    between atoms: C_2  and  C_4
REMARK    4  A    between atoms: C_4  and  C_5
REMARK    5  A    between atoms: C_5  and  C_7
REMARK    6  A    between atoms: C_5  and  N_17
REMARK    7  A    between atoms: C_7  and  O_9
REMARK    8  A    between atoms: O_9  and  C_10
REMARK    9  A    between atoms: C_18  and  O_20
REMARK   10  A    between atoms: O_20  and  C_21
REMARK                            x       y       z     vdW  Elec       q    Type
REMARK                         _______ _______ _______ _____ _____    ______ ____
ROOT
ATOM      1  C   UNL     1       2.207  -0.038  -1.204  0.00  0.00    +0.185 C 
ENDROOT
BRANCH   1   2
ATOM      2  N   UNL     1       2.900  -0.676  -0.082  0.00  0.00    -0.268 N 
ATOM      3  C   UNL     1       2.833  -0.131   1.149  0.00  0.00    +0.401 C 
ATOM      4  O   UNL     1       2.198   0.890   1.328  0.00  0.00    -0.226 OA
ATOM      5  H   UNL     1       3.407  -1.490  -0.225  0.00  0.00    +0.153 HD
BRANCH   3   6
ATOM      6  O   UNL     1       3.470  -0.717   2.180  0.00  0.00    -0.454 OA
ATOM      7  C   UNL     1       3.356  -0.085   3.457  0.00  0.00    +0.282 C 
ENDBRANCH   3   6
ENDBRANCH   1   2
BRANCH   1   8
ATOM      8  C   UNL     1       2.885  -0.418  -2.495  0.00  0.00    +0.333 C 
ATOM      9  O   UNL     1       3.849  -1.147  -2.479  0.00  0.00    -0.248 OA
BRANCH   8  10
ATOM     10  O   UNL     1       2.419   0.053  -3.662  0.00  0.00    -0.425 OA
BRANCH  10  11
ATOM     11  C   UNL     1       3.120  -0.231  -4.791  0.00  0.00    +0.132 A 
ATOM     12  C   UNL     1       3.029  -1.490  -5.368  0.00  0.00    +0.047 A 
ATOM     13  C   UNL     1       3.743  -1.777  -6.515  0.00  0.00    +0.018 A 
ATOM     14  C   UNL     1       4.549  -0.810  -7.089  0.00  0.00    +0.014 A 
ATOM     15  C   UNL     1       4.642   0.445  -6.516  0.00  0.00    +0.018 A 
ATOM     16  C   UNL     1       3.925   0.738  -5.372  0.00  0.00    +0.047 A 
ATOM     17  I   UNL     1       5.630  -1.249  -8.829  0.00  0.00    -0.044 I 
ENDBRANCH  10  11
ENDBRANCH   8  10
ENDBRANCH   1   8
BRANCH   1  18
ATOM     18  C   UNL     1       0.750  -0.505  -1.236  0.00  0.00    +0.037 C 
BRANCH  18  20
ATOM     19  C   UNL     1      -0.037   1.517   0.002  0.00  0.00    +0.007 C 
ATOM     20  C   UNL     1       0.028  -0.011   0.019  0.00  0.00    -0.015 C 
ATOM     21  C   UNL     1      -1.391  -0.582   0.049  0.00  0.00    +0.007 C 
ENDBRANCH  18  20
ENDBRANCH   1  18
TORSDOF 7
