REMARK  Name = ZINC47579286
REMARK  5 active torsions:
REMARK  status: ('A' for Active; 'I' for Inactive)
REMARK    1  A    between atoms: C_1  and  C_2
REMARK    2  A    between atoms: C_2  and  C_4
REMARK    3  A    between atoms: C_2  and  N_12
REMARK    4  A    between atoms: C_7  and  C_10
REMARK    5  A    between atoms: N_15  and  C_16
REMARK                            x       y       z     vdW  Elec       q    Type
REMARK                         _______ _______ _______ _____ _____    ______ ____
ROOT
ATOM      1  N   UNL     1       0.711  -0.489   1.189  0.00  0.00    -0.293 N 
ATOM      2  C   UNL     1       2.054  -0.600   1.174  0.00  0.00    +0.300 C 
ATOM      3  O   UNL     1       2.677  -0.297   0.175  0.00  0.00    -0.253 OA
ATOM      4  N   UNL     1       2.706  -1.046   2.266  0.00  0.00    -0.297 N 
ATOM      5  H   UNL     1       0.213  -0.731   1.986  0.00  0.00    +0.151 HD
ATOM      6  H   UNL     1       2.208  -1.288   3.062  0.00  0.00    +0.151 HD
ENDROOT
BRANCH   4   7
ATOM      7  C   UNL     1       4.166  -1.166   2.249  0.00  0.00    +0.074 C 
ATOM      8  C   UNL     1       4.560  -2.515   1.643  0.00  0.00    +0.022 C 
ATOM      9  C   UNL     1       6.084  -2.640   1.626  0.00  0.00    +0.002 C 
ATOM     10  C   UNL     1       6.620  -2.548   3.056  0.00  0.00    +0.000 C 
ATOM     11  C   UNL     1       6.226  -1.200   3.662  0.00  0.00    +0.002 C 
ATOM     12  C   UNL     1       4.701  -1.074   3.679  0.00  0.00    +0.022 C 
ENDBRANCH   4   7
BRANCH   1  14
ATOM     13  C   UNL     1      -0.019   1.526   0.010  0.00  0.00    +0.033 C 
ATOM     14  C   UNL     1       0.002  -0.004   0.002  0.00  0.00    +0.102 C 
BRANCH  14  15
ATOM     15  C   UNL     1      -1.412  -0.526   0.013  0.00  0.00    -0.027 A 
ATOM     16  C   UNL     1      -2.121  -0.570   1.200  0.00  0.00    +0.007 A 
ATOM     17  C   UNL     1      -3.415  -1.046   1.217  0.00  0.00    +0.019 A 
ATOM     18  C   UNL     1      -4.010  -1.484   0.032  0.00  0.00    +0.052 A 
ATOM     19  C   UNL     1      -3.289  -1.436  -1.163  0.00  0.00    +0.019 A 
ATOM     20  C   UNL     1      -1.997  -0.953  -1.166  0.00  0.00    +0.007 A 
BRANCH  18  21
ATOM     21  C   UNL     1      -5.353  -1.980   0.043  0.00  0.00    +0.099 C 
ATOM     22  N   UNL     1      -6.419  -2.373   0.051  0.00  0.00    -0.191 NA
ENDBRANCH  18  21
ENDBRANCH  14  15
ENDBRANCH   1  14
TORSDOF 4
