REMARK  Name = ZINC12900837
REMARK  6 active torsions:
REMARK  status: ('A' for Active; 'I' for Inactive)
REMARK    1  A    between atoms: C_1  and  C_2
REMARK    2  A    between atoms: C_2  and  C_4
REMARK    3  A    between atoms: C_2  and  S_11
REMARK    4  A    between atoms: N_9  and  C_10
REMARK    5  A    between atoms: S_11  and  C_12
REMARK    6  A    between atoms: C_20  and  C_22
REMARK                            x       y       z     vdW  Elec       q    Type
REMARK                         _______ _______ _______ _____ _____    ______ ____
ROOT
ATOM      1  C   UNL     1      -2.379  -4.556   0.628  0.00  0.00    +0.109 A 
ATOM      2  C   UNL     1      -3.388  -5.522   1.061  0.00  0.00    +0.032 A 
ATOM      3  C   UNL     1      -4.669  -5.133   1.459  0.00  0.00    +0.012 A 
ATOM      4  C   UNL     1      -5.569  -6.083   1.848  0.00  0.00    +0.001 A 
ATOM      5  C   UNL     1      -5.229  -7.432   1.848  0.00  0.00    +0.002 A 
ATOM      6  C   UNL     1      -3.988  -7.845   1.460  0.00  0.00    +0.028 A 
ATOM      7  C   UNL     1      -3.039  -6.896   1.054  0.00  0.00    +0.076 A 
ATOM      8  N   UNL     1      -1.806  -7.245   0.665  0.00  0.00    -0.225 NA
ATOM      9  C   UNL     1      -0.929  -6.332   0.287  0.00  0.00    +0.197 A 
ATOM     10  N   UNL     1      -1.193  -5.025   0.264  0.00  0.00    -0.218 NA
ENDROOT
BRANCH   9  11
ATOM     11  C   UNL     1       0.412  -6.782  -0.131  0.00  0.00    +0.172 A 
ATOM     12  C   UNL     1       1.431  -5.979  -0.547  0.00  0.00    +0.053 A 
ATOM     13  C   UNL     1       2.516  -6.824  -0.844  0.00  0.00    +0.042 A 
ATOM     14  C   UNL     1       2.113  -8.088  -0.598  0.00  0.00    +0.196 A 
ATOM     15  O   UNL     1       0.845  -8.057  -0.162  0.00  0.00    -0.460 OA
ENDBRANCH   9  11
BRANCH   1  16
ATOM     16  S   UNL     1      -2.725  -2.829   0.597  0.00  0.00    -0.093 S 
BRANCH  16  18
ATOM     17  C   UNL     1      -0.892  -2.700  -1.425  0.00  0.00    +0.029 C 
ATOM     18  C   UNL     1      -1.135  -2.201   0.001  0.00  0.00    +0.136 C 
BRANCH  18  19
ATOM     19  C   UNL     1      -1.156  -0.694   0.009  0.00  0.00    +0.233 C 
ATOM     20  O   UNL     1      -2.214  -0.102   0.023  0.00  0.00    -0.274 OA
ATOM     21  N   UNL     1       0.002  -0.004   0.002  0.00  0.00    -0.239 N 
ATOM     22  C   UNL     1      -0.016   1.344   0.009  0.00  0.00    +0.306 C 
ATOM     23  O   UNL     1      -1.077   1.937   0.018  0.00  0.00    -0.252 OA
ATOM     24  N   UNL     1       1.142   2.033   0.002  0.00  0.00    -0.302 N 
ATOM     25  C   UNL     1       1.122   3.498   0.010  0.00  0.00    +0.129 C 
ATOM     26  H   UNL     1       0.849  -0.478  -0.009  0.00  0.00    +0.159 HD
ATOM     27  H   UNL     1       1.988   1.560  -0.009  0.00  0.00    +0.150 HD
ENDBRANCH  18  19
ENDBRANCH  16  18
ENDBRANCH   1  16
TORSDOF 4
