REMARK  Name = ZINC13513721
REMARK  12 active torsions:
REMARK  status: ('A' for Active; 'I' for Inactive)
REMARK    1  A    between atoms: C_1  and  C_2
REMARK    2  A    between atoms: C_2  and  C_3
REMARK    3  A    between atoms: C_3  and  C_5
REMARK    4  A    between atoms: C_3  and  N_25
REMARK    5  A    between atoms: N_7  and  C_8
REMARK    6  A    between atoms: N_7  and  C_16
REMARK    7  A    between atoms: C_8  and  C_9
REMARK    8  A    between atoms: C_12  and  C_15
REMARK    9  A    between atoms: C_16  and  C_17
REMARK   10  A    between atoms: N_19  and  C_20
REMARK   11  A    between atoms: N_25  and  S_26
REMARK   12  A    between atoms: S_26  and  C_29
REMARK                            x       y       z     vdW  Elec       q    Type
REMARK                         _______ _______ _______ _____ _____    ______ ____
ROOT
ATOM      1  C   UNL     1       1.245   2.114   0.546  0.00  0.00    +0.235 C 
ATOM      2  O   UNL     1       0.167   1.593   0.738  0.00  0.00    -0.274 OA
ATOM      3  N   UNL     1       1.377   3.450   0.655  0.00  0.00    -0.287 N 
ENDROOT
BRANCH   1   4
ATOM      4  C   UNL     1       2.437   1.266   0.186  0.00  0.00    +0.162 C 
BRANCH   4   6
ATOM      5  C   UNL     1       1.486   1.150  -2.122  0.00  0.00    +0.006 C 
ATOM      6  C   UNL     1       2.748   1.430  -1.303  0.00  0.00    +0.026 C 
ENDBRANCH   4   6
BRANCH   4   7
ATOM      7  N   UNL     1       2.140  -0.141   0.470  0.00  0.00    -0.178 NA
ATOM      8  H   UNL     1       1.245  -0.485   0.330  0.00  0.00    +0.149 HD
BRANCH   7   9
ATOM      9  S   UNL     1       3.334  -1.142   1.032  0.00  0.00    +0.059 S 
ATOM     10  O   UNL     1       2.726  -2.404   1.271  0.00  0.00    -0.153 OA
ATOM     11  O   UNL     1       4.442  -0.983   0.157  0.00  0.00    -0.153 OA
BRANCH   9  12
ATOM     12  C   UNL     1       3.838  -0.521   2.602  0.00  0.00    +0.106 A 
ATOM     13  C   UNL     1       4.874   0.409   2.672  0.00  0.00    +0.029 A 
ATOM     14  C   UNL     1       5.284   0.912   3.868  0.00  0.00    +0.010 A 
ATOM     15  C   UNL     1       4.664   0.482   5.053  0.00  0.00    -0.018 A 
ATOM     16  C   UNL     1       5.065   0.974   6.307  0.00  0.00    +0.008 A 
ATOM     17  C   UNL     1       4.441   0.534   7.434  0.00  0.00    +0.001 A 
ATOM     18  C   UNL     1       3.408  -0.400   7.364  0.00  0.00    +0.001 A 
ATOM     19  C   UNL     1       2.994  -0.898   6.168  0.00  0.00    +0.008 A 
ATOM     20  C   UNL     1       3.614  -0.468   4.983  0.00  0.00    -0.016 A 
ATOM     21  C   UNL     1       3.214  -0.961   3.729  0.00  0.00    +0.037 A 
ENDBRANCH   9  12
ENDBRANCH   7   9
ENDBRANCH   4   7
ENDBRANCH   1   4
BRANCH   3  22
ATOM     22  C   UNL     1       0.247   4.264   1.111  0.00  0.00    +0.143 C 
BRANCH  22  23
ATOM     23  C   UNL     1       0.360   4.492   2.596  0.00  0.00    -0.030 A 
ATOM     24  C   UNL     1      -0.139   3.553   3.480  0.00  0.00    +0.005 A 
ATOM     25  C   UNL     1      -0.032   3.761   4.843  0.00  0.00    +0.003 A 
ATOM     26  C   UNL     1       0.566   4.911   5.321  0.00  0.00    -0.050 A 
ATOM     27  C   UNL     1       1.061   5.852   4.438  0.00  0.00    +0.003 A 
ATOM     28  C   UNL     1       0.957   5.643   3.075  0.00  0.00    +0.005 A 
ATOM     29  C   UNL     1       0.679   5.140   6.807  0.00  0.00    +0.044 C 
ENDBRANCH  22  23
ENDBRANCH   3  22
BRANCH   3  30
ATOM     30  C   UNL     1       2.651   4.091   0.317  0.00  0.00    +0.203 C 
BRANCH  30  31
ATOM     31  C   UNL     1       2.605   4.580  -1.107  0.00  0.00    +0.231 C 
ATOM     32  O   UNL     1       1.606   4.411  -1.775  0.00  0.00    -0.274 OA
ATOM     33  N   UNL     1       3.673   5.206  -1.640  0.00  0.00    -0.311 N 
ATOM     34  H   UNL     1       4.472   5.341  -1.106  0.00  0.00    +0.149 HD
BRANCH  33  35
ATOM     35  C   UNL     1       3.628   5.682  -3.025  0.00  0.00    +0.073 C 
ATOM     36  C   UNL     1       4.080   4.561  -3.983  0.00  0.00    +0.022 C 
ATOM     37  C   UNL     1       4.881   5.302  -5.083  0.00  0.00    +0.002 C 
ATOM     38  C   UNL     1       5.633   6.394  -4.281  0.00  0.00    +0.002 C 
ATOM     39  C   UNL     1       4.615   6.847  -3.214  0.00  0.00    +0.022 C 
ENDBRANCH  33  35
ENDBRANCH  30  31
ENDBRANCH   3  30
TORSDOF 10
