REMARK  Name = ZINC14343689
REMARK  8 active torsions:
REMARK  status: ('A' for Active; 'I' for Inactive)
REMARK    1  A    between atoms: C_1  and  C_2
REMARK    2  A    between atoms: C_3  and  C_31
REMARK    3  A    between atoms: C_9  and  O_13
REMARK    4  A    between atoms: O_13  and  C_14
REMARK    5  A    between atoms: C_14  and  C_15
REMARK    6  A    between atoms: N_17  and  C_18
REMARK    7  A    between atoms: C_18  and  C_20
REMARK    8  A    between atoms: C_18  and  C_21
REMARK                            x       y       z     vdW  Elec       q    Type
REMARK                         _______ _______ _______ _____ _____    ______ ____
ROOT
ATOM      1  C   UNL     1     -13.452  -2.540  -6.721  0.00  0.00    +0.087 C 
ATOM      2  C   UNL     1     -12.456  -1.514  -6.247  0.00  0.00    +0.114 A 
ATOM      3  C   UNL     1     -12.590  -0.230  -6.668  0.00  0.00    +0.067 A 
ATOM      4  C   UNL     1     -11.616   0.773  -6.205  0.00  0.00    +0.200 A 
ATOM      5  O   UNL     1     -11.687   1.940  -6.550  0.00  0.00    -0.286 OA
ATOM      6  C   UNL     1     -10.552   0.297  -5.303  0.00  0.00    +0.065 A 
ATOM      7  C   UNL     1      -9.580   1.167  -4.808  0.00  0.00    +0.019 A 
ATOM      8  C   UNL     1      -8.611   0.694  -3.969  0.00  0.00    +0.046 A 
ATOM      9  C   UNL     1      -8.583  -0.653  -3.616  0.00  0.00    +0.125 A 
ATOM     10  C   UNL     1      -9.540  -1.529  -4.100  0.00  0.00    +0.092 A 
ATOM     11  C   UNL     1     -10.536  -1.063  -4.949  0.00  0.00    +0.142 A 
ATOM     12  O   UNL     1     -11.475  -1.902  -5.428  0.00  0.00    -0.459 OA
ENDROOT
BRANCH   3  13
ATOM     13  C   UNL     1     -13.697   0.155  -7.578  0.00  0.00    -0.011 A 
ATOM     14  C   UNL     1     -15.019   0.067  -7.147  0.00  0.00    +0.009 A 
ATOM     15  C   UNL     1     -16.045   0.432  -7.996  0.00  0.00    +0.001 A 
ATOM     16  C   UNL     1     -15.762   0.874  -9.276  0.00  0.00    +0.000 A 
ATOM     17  C   UNL     1     -14.452   0.959  -9.711  0.00  0.00    +0.001 A 
ATOM     18  C   UNL     1     -13.418   0.602  -8.869  0.00  0.00    +0.009 A 
ENDBRANCH   3  13
BRANCH   9  19
ATOM     19  O   UNL     1      -7.611  -1.111  -2.786  0.00  0.00    -0.483 OA
BRANCH  19  20
ATOM     20  C   UNL     1      -6.653  -0.158  -2.322  0.00  0.00    +0.324 C 
BRANCH  20  21
ATOM     21  C   UNL     1      -5.660  -0.844  -1.419  0.00  0.00    +0.251 C 
ATOM     22  O   UNL     1      -5.762  -2.031  -1.195  0.00  0.00    -0.272 OA
ATOM     23  N   UNL     1      -4.657  -0.137  -0.860  0.00  0.00    -0.306 N 
ATOM     24  H   UNL     1      -4.575   0.813  -1.039  0.00  0.00    +0.149 HD
BRANCH  23  25
ATOM     25  C   UNL     1      -3.692  -0.803   0.018  0.00  0.00    +0.100 C 
ATOM     26  C   UNL     1      -4.250  -0.858   1.441  0.00  0.00    +0.033 C 
BRANCH  25  27
ATOM     27  C   UNL     1      -2.397  -0.033   0.016  0.00  0.00    -0.024 A 
ATOM     28  C   UNL     1      -2.415   1.349   0.026  0.00  0.00    +0.009 A 
ATOM     29  C   UNL     1      -1.229   2.059   0.019  0.00  0.00    +0.050 A 
ATOM     30  C   UNL     1      -0.017   1.385   0.010  0.00  0.00    +0.162 A 
ATOM     31  C   UNL     1       0.002  -0.004   0.002  0.00  0.00    +0.162 A 
ATOM     32  C   UNL     1      -1.192  -0.710   0.004  0.00  0.00    +0.055 A 
ATOM     33  O   UNL     1       1.181  -0.685  -0.007  0.00  0.00    -0.485 OA
ATOM     34  C   UNL     1       2.347   0.053  -0.387  0.00  0.00    +0.270 C 
ATOM     35  C   UNL     1       2.334   1.392   0.364  0.00  0.00    +0.270 C 
ATOM     36  O   UNL     1       1.143   2.098   0.002  0.00  0.00    -0.485 OA
ENDBRANCH  25  27
ENDBRANCH  23  25
ENDBRANCH  20  21
ENDBRANCH  19  20
ENDBRANCH   9  19
TORSDOF 6
