REMARK  Name = ZINC42015208
REMARK  4 active torsions:
REMARK  status: ('A' for Active; 'I' for Inactive)
REMARK    1  A    between atoms: C_1  and  C_2
REMARK    2  A    between atoms: C_6  and  C_9
REMARK    3  A    between atoms: C_7  and  N_8
REMARK    4  A    between atoms: N_13  and  C_14
REMARK                            x       y       z     vdW  Elec       q    Type
REMARK                         _______ _______ _______ _____ _____    ______ ____
ROOT
ATOM      1  C   UNL     1       0.094  -2.865   2.454  0.00  0.00    +0.189 A 
ATOM      2  N   UNL     1       0.162  -2.357   3.668  0.00  0.00    -0.108 NA
ATOM      3  N   UNL     1       0.100  -3.289   4.549  0.00  0.00    -0.022 NA
ATOM      4  N   UNL     1      -0.009  -4.442   3.983  0.00  0.00    -0.039 NA
ATOM      5  N   UNL     1      -0.024  -4.217   2.596  0.00  0.00    -0.190 N 
ENDROOT
BRANCH   5   6
ATOM      6  C   UNL     1      -0.133  -5.175   1.578  0.00  0.00    +0.107 A 
ATOM      7  C   UNL     1       0.742  -5.147   0.501  0.00  0.00    +0.069 A 
ATOM      8  C   UNL     1       0.631  -6.094  -0.502  0.00  0.00    +0.126 A 
ATOM      9  C   UNL     1      -0.351  -7.067  -0.432  0.00  0.00    +0.041 A 
ATOM     10  C   UNL     1      -1.224  -7.097   0.639  0.00  0.00    +0.043 A 
ATOM     11  C   UNL     1      -1.115  -6.157   1.648  0.00  0.00    +0.149 A 
ATOM     12  F   UNL     1      -1.965  -6.189   2.697  0.00  0.00    -0.203 F 
ATOM     13  F   UNL     1       1.483  -6.068  -1.551  0.00  0.00    -0.205 F 
ENDBRANCH   5   6
BRANCH   1  19
ATOM     14  C   UNL     1       2.207   0.604  -0.468  0.00  0.00    +0.045 C 
ATOM     15  C   UNL     1       1.148  -0.442  -0.231  0.00  0.00    -0.029 A 
ATOM     16  C   UNL     1       0.204  -0.702  -1.205  0.00  0.00    +0.005 A 
ATOM     17  C   UNL     1      -0.773  -1.661  -0.996  0.00  0.00    +0.001 A 
ATOM     18  C   UNL     1      -0.813  -2.366   0.189  0.00  0.00    +0.013 A 
ATOM     19  C   UNL     1       0.133  -2.113   1.182  0.00  0.00    +0.042 A 
ATOM     20  C   UNL     1       1.124  -1.146   0.965  0.00  0.00    +0.038 A 
BRANCH  20  21
ATOM     21  N   UNL     1       2.079  -0.889   1.947  0.00  0.00    -0.357 N 
ATOM     22  H   UNL     1       2.761  -0.217   1.796  0.00  0.00    +0.142 HD
ATOM     23  H   UNL     1       2.060  -1.382   2.782  0.00  0.00    +0.142 HD
ENDBRANCH  20  21
ENDBRANCH   1  19
TORSDOF 3
