REMARK  Name = ZINC63488677
REMARK  6 active torsions:
REMARK  status: ('A' for Active; 'I' for Inactive)
REMARK    1  A    between atoms: C_1  and  C_2
REMARK    2  A    between atoms: C_2  and  C_3
REMARK    3  A    between atoms: C_2  and  N_15
REMARK    4  A    between atoms: C_7  and  C_9
REMARK    5  A    between atoms: C_16  and  C_18
REMARK    6  A    between atoms: C_20  and  C_23
REMARK                            x       y       z     vdW  Elec       q    Type
REMARK                         _______ _______ _______ _____ _____    ______ ____
ROOT
ATOM      1  N   UNL     1       0.688  -0.476  -1.203  0.00  0.00    -0.303 N 
ATOM      2  C   UNL     1       0.006  -0.608  -2.358  0.00  0.00    +0.257 C 
ATOM      3  O   UNL     1      -1.175  -0.336  -2.400  0.00  0.00    -0.272 OA
ATOM      4  H   UNL     1       1.632  -0.695  -1.170  0.00  0.00    +0.149 HD
ENDROOT
BRANCH   2   5
ATOM      5  C   UNL     1       0.712  -1.094  -3.598  0.00  0.00    +0.295 C 
ATOM      6  C   UNL     1       1.679  -0.016  -4.144  0.00  0.00    +0.116 C 
ATOM      7  C   UNL     1       1.526  -0.166  -5.646  0.00  0.00    +0.091 C 
ATOM      8  N   UNL     1       0.461  -0.858  -5.877  0.00  0.00    -0.088 NA
ATOM      9  O   UNL     1      -0.214  -1.240  -4.695  0.00  0.00    -0.380 OA
BRANCH   7  10
ATOM     10  C   UNL     1       2.439   0.384  -6.667  0.00  0.00    +0.002 A 
ATOM     11  C   UNL     1       3.566   1.112  -6.281  0.00  0.00    +0.010 A 
ATOM     12  C   UNL     1       4.416   1.624  -7.239  0.00  0.00    +0.003 A 
ATOM     13  C   UNL     1       4.154   1.417  -8.582  0.00  0.00    +0.038 A 
ATOM     14  C   UNL     1       3.038   0.696  -8.974  0.00  0.00    +0.124 A 
ATOM     15  C   UNL     1       2.183   0.172  -8.023  0.00  0.00    +0.048 A 
ATOM     16  F   UNL     1       2.789   0.499 -10.287  0.00  0.00    -0.205 F 
ENDBRANCH   7  10
ENDBRANCH   2   5
BRANCH   1  18
ATOM     17  C   UNL     1      -0.019   1.526   0.010  0.00  0.00    +0.036 C 
ATOM     18  C   UNL     1       0.002  -0.004   0.002  0.00  0.00    +0.134 C 
BRANCH  18  19
ATOM     19  C   UNL     1       0.731  -0.503   1.223  0.00  0.00    +0.105 A 
ATOM     20  N   UNL     1       2.059  -0.742   1.301  0.00  0.00    -0.348 N 
ATOM     21  H   UNL     1       2.706  -0.623   0.589  0.00  0.00    +0.167 HD
ATOM     22  C   UNL     1       2.321  -1.181   2.569  0.00  0.00    +0.110 A 
ATOM     23  C   UNL     1       1.135  -1.196   3.230  0.00  0.00    +0.064 A 
ATOM     24  N   UNL     1       0.183  -0.769   2.376  0.00  0.00    -0.342 N 
ATOM     25  H   UNL     1      -0.760  -0.677   2.584  0.00  0.00    +0.167 HD
BRANCH  23  26
ATOM     26  C   UNL     1       0.925  -1.603   4.641  0.00  0.00    -0.000 A 
ATOM     27  C   UNL     1      -0.354  -1.577   5.194  0.00  0.00    +0.010 A 
ATOM     28  C   UNL     1      -0.544  -1.957   6.507  0.00  0.00    +0.001 A 
ATOM     29  C   UNL     1       0.533  -2.363   7.275  0.00  0.00    +0.000 A 
ATOM     30  C   UNL     1       1.805  -2.391   6.731  0.00  0.00    +0.001 A 
ATOM     31  C   UNL     1       2.005  -2.020   5.418  0.00  0.00    +0.010 A 
ENDBRANCH  23  26
ENDBRANCH  18  19
ENDBRANCH   1  18
TORSDOF 5
