REMARK  Name = ZINC35747614
REMARK  10 active torsions:
REMARK  status: ('A' for Active; 'I' for Inactive)
REMARK    1  A    between atoms: C_3  and  C_8
REMARK    2  A    between atoms: C_17  and  C_19
REMARK    3  A    between atoms: C_19  and  N_20
REMARK    4  A    between atoms: N_20  and  C_21
REMARK    5  A    between atoms: N_20  and  C_34
REMARK    6  A    between atoms: C_21  and  C_22
REMARK    7  A    between atoms: C_22  and  C_24
REMARK    8  A    between atoms: C_22  and  O_33
REMARK    9  A    between atoms: C_24  and  O_25
REMARK   10  A    between atoms: O_25  and  C_26
REMARK                            x       y       z     vdW  Elec       q    Type
REMARK                         _______ _______ _______ _____ _____    ______ ____
ROOT
ATOM      1  C   UNL     1       7.954   1.528   3.352  0.00  0.00    -0.003 C 
ENDROOT
BRANCH   1  11
ATOM      2  C   UNL     1       6.238   3.014   8.580  0.00  0.00    +0.004 A 
ATOM      3  C   UNL     1       6.878   4.115   9.043  0.00  0.00    +0.056 A 
ATOM      4  S   UNL     1       7.974   4.548   7.705  0.00  0.00    -0.076 S 
ATOM      5  C   UNL     1       7.551   3.255   6.567  0.00  0.00    +0.116 A 
ATOM      6  C   UNL     1       6.574   2.514   7.253  0.00  0.00    +0.080 A 
ATOM      7  C   UNL     1       6.048   1.382   6.551  0.00  0.00    +0.260 A 
ATOM      8  O   UNL     1       5.193   0.680   7.062  0.00  0.00    -0.267 OA
ATOM      9  N   UNL     1       6.512   1.106   5.319  0.00  0.00    -0.312 N 
ATOM     10  H   UNL     1       6.160   0.340   4.838  0.00  0.00    +0.170 HD
ATOM     11  C   UNL     1       7.464   1.877   4.734  0.00  0.00    +0.094 A 
ATOM     12  N   UNL     1       7.956   2.921   5.345  0.00  0.00    -0.229 NA
BRANCH   2  15
ATOM     13  C   UNL     1       4.552   1.355  11.502  0.00  0.00    +0.002 A 
ATOM     14  C   UNL     1       5.504   1.993  10.733  0.00  0.00    +0.008 A 
ATOM     15  C   UNL     1       5.219   2.329   9.410  0.00  0.00    -0.015 A 
ATOM     16  C   UNL     1       3.971   2.017   8.871  0.00  0.00    +0.028 A 
ATOM     17  C   UNL     1       3.026   1.379   9.649  0.00  0.00    +0.042 A 
ATOM     18  C   UNL     1       3.316   1.048  10.962  0.00  0.00    +0.020 A 
ATOM     19 CL   UNL     1       1.472   0.989   8.980  0.00  0.00    -0.084 Cl
ENDBRANCH   2  15
ENDBRANCH   1  11
BRANCH   1  20
ATOM     20  N   UNL     1       9.067   2.416   2.989  0.00  0.00    +0.388 N 
ATOM     21  H   UNL     1       8.783   3.377   3.107  0.00  0.00    -0.081 HD
BRANCH  20  22
ATOM     22  C   UNL     1       9.440   2.185   1.587  0.00  0.00    -0.068 C 
ATOM     23  C   UNL     1       9.413   3.388   0.641  0.00  0.00    -0.017 C 
ATOM     24  C   UNL     1       8.337   2.306   0.533  0.00  0.00    -0.017 C 
ENDBRANCH  20  22
BRANCH  20  25
ATOM     25  C   UNL     1      10.220   2.135   3.854  0.00  0.00    -0.043 C 
BRANCH  25  26
ATOM     26  C   UNL     1      11.335   3.141   3.561  0.00  0.00    +0.135 C 
BRANCH  26  27
ATOM     27  O   UNL     1      11.729   3.030   2.192  0.00  0.00    -0.390 OA
ATOM     28  H   UNL     1      12.062   2.155   1.948  0.00  0.00    +0.210 HD
ENDBRANCH  26  27
BRANCH  26  29
ATOM     29  C   UNL     1      12.536   2.849   4.463  0.00  0.00    +0.258 C 
BRANCH  29  30
ATOM     30  O   UNL     1      13.531   3.857   4.272  0.00  0.00    -0.489 OA
BRANCH  30  31
ATOM     31  C   UNL     1      14.671   3.744   5.004  0.00  0.00    +0.121 A 
ATOM     32  C   UNL     1      14.830   2.683   5.883  0.00  0.00    +0.047 A 
ATOM     33  C   UNL     1      15.989   2.571   6.626  0.00  0.00    +0.023 A 
ATOM     34  C   UNL     1      16.991   3.517   6.495  0.00  0.00    +0.041 A 
ATOM     35  C   UNL     1      16.833   4.576   5.619  0.00  0.00    +0.023 A 
ATOM     36  C   UNL     1      15.678   4.688   4.869  0.00  0.00    +0.047 A 
ATOM     37 CL   UNL     1      18.446   3.374   7.430  0.00  0.00    -0.084 Cl
ENDBRANCH  30  31
ENDBRANCH  29  30
ENDBRANCH  26  29
ENDBRANCH  25  26
ENDBRANCH  20  25
ENDBRANCH   1  20
TORSDOF 10
