REMARK  Name = ZINC02106326
REMARK  12 active torsions:
REMARK  status: ('A' for Active; 'I' for Inactive)
REMARK    1  A    between atoms: C_1  and  O_2
REMARK    2  A    between atoms: O_2  and  C_3
REMARK    3  A    between atoms: C_3  and  C_5
REMARK    4  A    between atoms: C_5  and  C_7
REMARK    5  A    between atoms: C_5  and  N_58
REMARK    6  A    between atoms: C_7  and  C_8
REMARK    7  A    between atoms: C_14  and  C_15
REMARK    8  A    between atoms: C_14  and  N_58
REMARK    9  A    between atoms: C_16  and  O_37
REMARK   10  A    between atoms: C_22  and  C_33
REMARK   11  A    between atoms: C_23  and  O_26
REMARK   12  A    between atoms: O_26  and  C_27
REMARK                            x       y       z     vdW  Elec       q    Type
REMARK                         _______ _______ _______ _____ _____    ______ ____
ROOT
ATOM      1  C   UNL     1       1.396   1.986  -0.001  0.00  0.00    +0.020 A 
ATOM      2  C   UNL     1       2.037   2.233  -1.203  0.00  0.00    +0.122 A 
ATOM      3  C   UNL     1       3.344   2.715  -1.224  0.00  0.00    +0.046 A 
ATOM      4  C   UNL     1       4.012   2.951  -0.056  0.00  0.00    +0.019 A 
ATOM      5  C   UNL     1       3.380   2.708   1.164  0.00  0.00    +0.068 A 
ATOM      6  C   UNL     1       2.059   2.226   1.194  0.00  0.00    +0.144 A 
ATOM      7  O   UNL     1       1.460   1.989   2.379  0.00  0.00    -0.447 OA
ATOM      8  C   UNL     1       2.074   2.206   3.550  0.00  0.00    +0.254 A 
ATOM      9  C   UNL     1       3.337   2.670   3.636  0.00  0.00    +0.222 A 
ATOM     10  C   UNL     1       4.066   2.949   2.445  0.00  0.00    +0.235 A 
ATOM     11  O   UNL     1       5.210   3.370   2.484  0.00  0.00    -0.283 OA
ENDROOT
BRANCH   8  12
ATOM     12  C   UNL     1       1.322   1.918   4.824  0.00  0.00    +0.454 C 
ATOM     13  F   UNL     1       0.634   3.066   5.229  0.00  0.00    -0.163 F 
ATOM     14  F   UNL     1       0.410   0.881   4.602  0.00  0.00    -0.163 F 
ATOM     15  F   UNL     1       2.225   1.539   5.823  0.00  0.00    -0.163 F 
ENDBRANCH   8  12
BRANCH   2  16
ATOM     16  O   UNL     1       1.386   2.004  -2.372  0.00  0.00    -0.506 OA
ATOM     17  H   UNL     1       0.891   2.766  -2.703  0.00  0.00    +0.292 HD
ENDBRANCH   2  16
BRANCH   1  18
ATOM     18  C   UNL     1      -0.018   1.465   0.010  0.00  0.00    -0.038 C 
BRANCH  18  19
ATOM     19  N   UNL     1       0.011  -0.010   0.002  0.00  0.00    +0.391 N 
ATOM     20  H   UNL     1       0.496  -0.335  -0.843  0.00  0.00    -0.084 HD
ATOM     21  H   UNL     1       0.512  -0.344   0.834  0.00  0.00    -0.084 HD
BRANCH  19  22
ATOM     22  C   UNL     1      -1.362  -0.549   0.012  0.00  0.00    +0.044 C 
BRANCH  22  23
ATOM     23  C   UNL     1      -1.888  -0.613  -1.399  0.00  0.00    +0.293 C 
ATOM     24  O   UNL     1      -1.197  -0.242  -2.318  0.00  0.00    -0.253 OA
BRANCH  23  26
ATOM     25  C   UNL     1      -3.564  -1.114  -3.017  0.00  0.00    +0.280 C 
ATOM     26  O   UNL     1      -3.124  -1.081  -1.634  0.00  0.00    -0.469 OA
ENDBRANCH  23  26
ENDBRANCH  22  23
BRANCH  22  27
ATOM     27  C   UNL     1      -1.345  -1.956   0.614  0.00  0.00    +0.030 C 
BRANCH  27  28
ATOM     28  C   UNL     1      -0.936  -1.877   2.062  0.00  0.00    -0.048 A 
ATOM     29  C   UNL     1       0.399  -1.969   2.410  0.00  0.00    +0.003 A 
ATOM     30  C   UNL     1       0.774  -1.892   3.738  0.00  0.00    +0.000 A 
ATOM     31  C   UNL     1      -0.186  -1.734   4.720  0.00  0.00    +0.000 A 
ATOM     32  C   UNL     1      -1.522  -1.648   4.373  0.00  0.00    +0.000 A 
ATOM     33  C   UNL     1      -1.897  -1.720   3.044  0.00  0.00    +0.003 A 
ENDBRANCH  27  28
ENDBRANCH  22  27
ENDBRANCH  19  22
ENDBRANCH  18  19
ENDBRANCH   1  18
BRANCH   9  34
ATOM     34  O   UNL     1       3.911   2.871   4.854  0.00  0.00    -0.448 OA
BRANCH  34  35
ATOM     35  C   UNL     1       3.766   4.091   5.434  0.00  0.00    +0.129 A 
ATOM     36  C   UNL     1       3.054   5.089   4.785  0.00  0.00    +0.046 A 
ATOM     37  C   UNL     1       2.904   6.327   5.380  0.00  0.00    +0.004 A 
ATOM     38  C   UNL     1       3.471   6.574   6.616  0.00  0.00    +0.000 A 
ATOM     39  C   UNL     1       4.186   5.583   7.263  0.00  0.00    +0.004 A 
ATOM     40  C   UNL     1       4.334   4.342   6.675  0.00  0.00    +0.046 A 
ENDBRANCH  34  35
ENDBRANCH   9  34
TORSDOF 11
