REMARK  Name = ZINC63372407
REMARK  9 active torsions:
REMARK  status: ('A' for Active; 'I' for Inactive)
REMARK    1  A    between atoms: C_1  and  C_2
REMARK    2  A    between atoms: C_2  and  C_3
REMARK    3  A    between atoms: C_2  and  C_4
REMARK    4  A    between atoms: C_4  and  C_5
REMARK    5  A    between atoms: C_5  and  C_7
REMARK    6  A    between atoms: C_5  and  N_18
REMARK    7  A    between atoms: N_9  and  C_10
REMARK    8  A    between atoms: C_10  and  C_11
REMARK    9  A    between atoms: C_21  and  C_37
REMARK                            x       y       z     vdW  Elec       q    Type
REMARK                         _______ _______ _______ _____ _____    ______ ____
ROOT
ATOM      1  N   UNL     1      -2.173   1.101  -1.559  0.00  0.00    -0.212 N 
ATOM      2  C   UNL     1      -1.534   1.803  -2.517  0.00  0.00    +0.249 C 
ATOM      3  O   UNL     1      -0.750   1.377  -3.339  0.00  0.00    -0.273 OA
ATOM      4  C   UNL     1      -1.998   3.233  -2.352  0.00  0.00    +0.136 C 
ATOM      5  C   UNL     1      -0.812   4.158  -2.080  0.00  0.00    +0.139 C 
ATOM      6  C   UNL     1      -0.929   4.635  -0.640  0.00  0.00    -0.034 C 
ATOM      7  C   UNL     1       0.216   4.307  -0.046  0.00  0.00    -0.001 A 
ATOM      8  C   UNL     1       0.718   4.561   1.313  0.00  0.00    +0.010 A 
ATOM      9  C   UNL     1       1.953   4.067   1.598  0.00  0.00    +0.001 A 
ATOM     10  C   UNL     1       2.728   3.356   0.676  0.00  0.00    +0.002 A 
ATOM     11  C   UNL     1       2.346   3.082  -0.597  0.00  0.00    +0.026 A 
ATOM     12  C   UNL     1       1.068   3.553  -1.015  0.00  0.00    +0.043 A 
ATOM     13  N   UNL     1       0.466   3.450  -2.179  0.00  0.00    -0.375 N 
ATOM     14  C   UNL     1      -2.170   5.275  -0.069  0.00  0.00    +0.052 C 
ATOM     15  C   UNL     1      -3.354   4.350  -0.415  0.00  0.00    +0.115 C 
ATOM     16  N   UNL     1      -2.822   3.184  -1.127  0.00  0.00    -0.269 N 
ATOM     17  C   UNL     1      -2.939   1.891  -0.794  0.00  0.00    +0.313 C 
ATOM     18  O   UNL     1      -3.654   1.483   0.100  0.00  0.00    -0.252 OA
ATOM     19  C   UNL     1      -2.818   3.695  -3.558  0.00  0.00    +0.044 C 
ATOM     20  H   UNL     1       0.799   2.988  -2.964  0.00  0.00    +0.160 HD
ENDROOT
BRANCH   1  21
ATOM     21  C   UNL     1      -2.050  -0.348  -1.381  0.00  0.00    +0.171 C 
BRANCH  21  22
ATOM     22  C   UNL     1      -3.379  -1.003  -1.659  0.00  0.00    +0.234 C 
ATOM     23  O   UNL     1      -4.334  -0.326  -1.976  0.00  0.00    -0.274 OA
ATOM     24  N   UNL     1      -3.505  -2.341  -1.557  0.00  0.00    -0.310 N 
ATOM     25  H   UNL     1      -2.741  -2.882  -1.304  0.00  0.00    +0.149 HD
BRANCH  24  26
ATOM     26  C   UNL     1      -4.797  -2.978  -1.827  0.00  0.00    +0.141 C 
BRANCH  26  27
ATOM     27  C   UNL     1      -4.670  -4.468  -1.644  0.00  0.00    -0.012 A 
ATOM     28  C   UNL     1      -4.512  -5.289  -2.745  0.00  0.00    +0.006 A 
ATOM     29  C   UNL     1      -4.396  -6.656  -2.577  0.00  0.00    +0.000 A 
ATOM     30  C   UNL     1      -4.438  -7.203  -1.308  0.00  0.00    +0.001 A 
ATOM     31  C   UNL     1      -4.596  -6.383  -0.206  0.00  0.00    +0.020 A 
ATOM     32  C   UNL     1      -4.707  -5.014  -0.374  0.00  0.00    +0.046 A 
ATOM     33 CL   UNL     1      -4.898  -3.983   1.010  0.00  0.00    -0.083 Cl
ENDBRANCH  26  27
ENDBRANCH  24  26
ENDBRANCH  21  22
BRANCH  21  34
ATOM     34  C   UNL     1      -1.624  -0.651   0.058  0.00  0.00    +0.035 C 
BRANCH  34  36
ATOM     35  C   UNL     1       0.135  -0.249   1.786  0.00  0.00    +0.007 C 
ATOM     36  C   UNL     1      -0.237  -0.058   0.314  0.00  0.00    -0.015 C 
ATOM     37  C   UNL     1       0.792  -0.768  -0.568  0.00  0.00    +0.007 C 
ENDBRANCH  34  36
ENDBRANCH  21  34
ENDBRANCH   1  21
TORSDOF 6
