REMARK  Name = ZINC00844312
REMARK  11 active torsions:
REMARK  status: ('A' for Active; 'I' for Inactive)
REMARK    1  A    between atoms: C_1  and  C_2
REMARK    2  A    between atoms: C_2  and  O_3
REMARK    3  A    between atoms: O_3  and  C_4
REMARK    4  A    between atoms: C_6  and  C_11
REMARK    5  A    between atoms: C_9  and  O_10
REMARK    6  A    between atoms: C_16  and  C_21
REMARK    7  A    between atoms: C_29  and  C_36
REMARK    8  A    between atoms: C_30  and  C_31
REMARK    9  A    between atoms: C_31  and  O_33
REMARK   10  A    between atoms: O_33  and  C_34
REMARK   11  A    between atoms: C_34  and  C_35
REMARK                            x       y       z     vdW  Elec       q    Type
REMARK                         _______ _______ _______ _____ _____    ______ ____
ROOT
ATOM      1  C   UNL     1      -0.229  -4.969   0.477  0.00  0.00    +0.092 C 
ATOM      2  C   UNL     1       0.877  -5.812   1.061  0.00  0.00    +0.024 C 
ATOM      3  C   UNL     1       1.042  -7.095   0.675  0.00  0.00    +0.016 C 
ATOM      4  C   UNL     1       2.154  -7.941   1.246  0.00  0.00    +0.059 C 
ATOM      5  C   UNL     1       2.458  -7.493   2.677  0.00  0.00    +0.032 C 
ATOM      6  C   UNL     1       2.842  -6.010   2.651  0.00  0.00    +0.088 C 
ATOM      7  C   UNL     1       1.726  -5.226   2.016  0.00  0.00    +0.162 C 
ATOM      8  O   UNL     1       1.556  -4.066   2.334  0.00  0.00    -0.292 OA
ATOM      9  N   UNL     1       0.198  -7.658  -0.244  0.00  0.00    -0.321 N 
ATOM     10  C   UNL     1      -1.026  -7.105  -0.498  0.00  0.00    +0.016 C 
ATOM     11  C   UNL     1      -1.276  -5.828  -0.168  0.00  0.00    +0.065 C 
ATOM     12  C   UNL     1      -2.101  -7.935  -1.151  0.00  0.00    +0.061 C 
ATOM     13  H   UNL     1       0.472  -8.458  -0.720  0.00  0.00    +0.152 HD
ENDROOT
BRANCH   5  14
ATOM     14  C   UNL     1       3.600  -8.306   3.230  0.00  0.00    -0.043 A 
ATOM     15  C   UNL     1       4.834  -8.276   2.608  0.00  0.00    +0.005 A 
ATOM     16  C   UNL     1       5.882  -9.022   3.115  0.00  0.00    +0.020 A 
ATOM     17  C   UNL     1       5.695  -9.799   4.245  0.00  0.00    +0.041 A 
ATOM     18  C   UNL     1       4.459  -9.828   4.866  0.00  0.00    +0.020 A 
ATOM     19  C   UNL     1       3.414  -9.078   4.362  0.00  0.00    +0.005 A 
ATOM     20 CL   UNL     1       7.010 -10.736   4.881  0.00  0.00    -0.084 Cl
ENDBRANCH   5  14
BRANCH   1  23
ATOM     21  C   UNL     1       0.777  -1.811  -1.336  0.00  0.00    +0.162 A 
ATOM     22  C   UNL     1       0.243  -2.669  -0.388  0.00  0.00    +0.054 A 
ATOM     23  C   UNL     1       0.352  -4.037  -0.555  0.00  0.00    -0.032 A 
ATOM     24  C   UNL     1       0.992  -4.552  -1.667  0.00  0.00    +0.008 A 
ATOM     25  C   UNL     1       1.526  -3.702  -2.616  0.00  0.00    +0.049 A 
ATOM     26  C   UNL     1       1.416  -2.330  -2.458  0.00  0.00    +0.158 A 
BRANCH  26  27
ATOM     27  O   UNL     1       1.936  -1.492  -3.394  0.00  0.00    -0.503 OA
ATOM     28  H   UNL     1       2.856  -1.241  -3.231  0.00  0.00    +0.292 HD
ENDBRANCH  26  27
BRANCH  21  29
ATOM     29  O   UNL     1       0.671  -0.465  -1.174  0.00  0.00    -0.489 OA
BRANCH  29  31
ATOM     30  C   UNL     1      -0.019   1.526   0.010  0.00  0.00    +0.048 C 
ATOM     31  C   UNL     1       0.002  -0.004   0.002  0.00  0.00    +0.226 C 
ENDBRANCH  29  31
ENDBRANCH  21  29
ENDBRANCH   1  23
BRANCH  11  32
ATOM     32  C   UNL     1      -2.554  -5.282  -0.434  0.00  0.00    +0.338 C 
ATOM     33  O   UNL     1      -3.412  -5.968  -0.957  0.00  0.00    -0.245 OA
BRANCH  32  34
ATOM     34  O   UNL     1      -2.821  -4.000  -0.109  0.00  0.00    -0.462 OA
BRANCH  34  35
ATOM     35  C   UNL     1      -4.132  -3.514  -0.407  0.00  0.00    +0.229 C 
ATOM     36  C   UNL     1      -4.246  -2.053   0.030  0.00  0.00    +0.048 C 
ENDBRANCH  34  35
ENDBRANCH  32  34
ENDBRANCH  11  32
TORSDOF 8
