REMARK  Name = ZINC09641515
REMARK  7 active torsions:
REMARK  status: ('A' for Active; 'I' for Inactive)
REMARK    1  A    between atoms: C_1  and  C_2
REMARK    2  A    between atoms: C_5  and  C_36
REMARK    3  A    between atoms: C_9  and  C_10
REMARK    4  A    between atoms: C_9  and  N_71
REMARK    5  A    between atoms: C_10  and  N_11
REMARK    6  A    between atoms: N_11  and  C_12
REMARK    7  A    between atoms: C_14  and  N_29
REMARK                            x       y       z     vdW  Elec       q    Type
REMARK                         _______ _______ _______ _____ _____    ______ ____
ROOT
ATOM      1  C   UNL     1       1.175   1.671   0.038  0.00  0.00    +0.041 A 
ATOM      2  C   UNL     1       1.157   3.072   0.037  0.00  0.00    +0.049 A 
ATOM      3  C   UNL     1       2.279   3.876   0.002  0.00  0.00    +0.061 A 
ATOM      4  C   UNL     1       3.607   3.250  -0.051  0.00  0.00    +0.136 A 
ATOM      5  C   UNL     1       3.590   1.792  -0.055  0.00  0.00    +0.063 A 
ATOM      6  C   UNL     1       2.399   0.988  -0.011  0.00  0.00    +0.056 A 
ATOM      7  C   UNL     1       2.582  -0.414  -0.023  0.00  0.00    +0.196 C 
ATOM      8  O   UNL     1       1.626  -1.173   0.013  0.00  0.00    -0.287 OA
ATOM      9  C   UNL     1       3.966  -0.935  -0.081  0.00  0.00    +0.033 A 
ATOM     10  C   UNL     1       4.168  -2.320  -0.096  0.00  0.00    +0.012 A 
ATOM     11  C   UNL     1       5.443  -2.832  -0.150  0.00  0.00    +0.001 A 
ATOM     12  C   UNL     1       6.545  -1.988  -0.190  0.00  0.00    +0.001 A 
ATOM     13  C   UNL     1       6.377  -0.623  -0.175  0.00  0.00    +0.012 A 
ATOM     14  C   UNL     1       5.092  -0.076  -0.122  0.00  0.00    +0.031 A 
ATOM     15  C   UNL     1       4.895   1.372  -0.108  0.00  0.00    +0.176 A 
ATOM     16  O   UNL     1       5.588   2.517  -0.130  0.00  0.00    -0.353 OA
ATOM     17  N   UNL     1       4.880   3.522  -0.100  0.00  0.00    -0.076 NA
ENDROOT
BRANCH   3  18
ATOM     18  N   UNL     1       2.154   5.250   0.011  0.00  0.00    -0.328 N 
ATOM     19  C   UNL     1       1.502   5.715   1.255  0.00  0.00    +0.105 C 
ATOM     20  C   UNL     1       1.099   7.163   1.196  0.00  0.00    +0.019 C 
ATOM     21  C   UNL     1      -0.369   7.244   0.726  0.00  0.00    +0.002 C 
ATOM     22  C   UNL     1      -0.496   7.067  -0.716  0.00  0.00    +0.002 C 
ATOM     23  C   UNL     1       0.017   5.689  -1.182  0.00  0.00    +0.019 C 
ATOM     24  C   UNL     1       1.520   5.732  -1.236  0.00  0.00    +0.105 C 
ENDBRANCH   3  18
BRANCH   1  25
ATOM     25  N   UNL     1      -0.009   0.966   0.082  0.00  0.00    -0.345 N 
ATOM     26  H   UNL     1       0.004  -0.004   0.079  0.00  0.00    +0.146 HD
BRANCH  25  27
ATOM     27  C   UNL     1      -1.287   1.681   0.127  0.00  0.00    +0.083 C 
BRANCH  27  28
ATOM     28  C   UNL     1      -2.436   0.670   0.164  0.00  0.00    -0.060 C 
BRANCH  28  36
ATOM     29  C   UNL     1      -5.039   3.977   0.264  0.00  0.00    +0.005 C 
ATOM     30  C   UNL     1      -5.133   2.979   1.419  0.00  0.00    -0.031 C 
ATOM     31  C   UNL     1      -6.342   2.063   1.207  0.00  0.00    +0.003 C 
ATOM     32  C   UNL     1      -6.146   1.264  -0.085  0.00  0.00    -0.031 C 
ATOM     33  C   UNL     1      -4.843   0.467   0.007  0.00  0.00    -0.076 C 
ATOM     34  C   UNL     1      -3.859   2.131   1.467  0.00  0.00    -0.076 C 
ATOM     35  C   UNL     1      -7.321   0.303  -0.274  0.00  0.00    +0.005 C 
ATOM     36  N   UNL     1      -3.716   1.407   0.186  0.00  0.00    +0.381 N 
ATOM     37  H   UNL     1      -3.724   2.086  -0.583  0.00  0.00    -0.082 HD
ENDBRANCH  28  36
ENDBRANCH  27  28
ENDBRANCH  25  27
ENDBRANCH   1  25
TORSDOF 5
