REMARK  Name = ZINC52634506
REMARK  10 active torsions:
REMARK  status: ('A' for Active; 'I' for Inactive)
REMARK    1  A    between atoms: C_1  and  C_2
REMARK    2  A    between atoms: C_2  and  C_3
REMARK    3  A    between atoms: C_3  and  C_4
REMARK    4  A    between atoms: C_8  and  C_39
REMARK    5  A    between atoms: C_10  and  C_38
REMARK    6  A    between atoms: N_13  and  C_14
REMARK    7  A    between atoms: C_14  and  C_15
REMARK    8  A    between atoms: C_18  and  C_21
REMARK    9  A    between atoms: N_30  and  C_37
REMARK   10  A    between atoms: C_31  and  C_32
REMARK                            x       y       z     vdW  Elec       q    Type
REMARK                         _______ _______ _______ _____ _____    ______ ____
ROOT
ATOM      1  C   UNL     1      -3.575  -3.431  -2.212  0.00  0.00    -0.030 A 
ATOM      2  C   UNL     1      -2.683  -3.253  -3.255  0.00  0.00    +0.006 A 
ATOM      3  C   UNL     1      -2.534  -4.234  -4.214  0.00  0.00    +0.009 A 
ATOM      4  C   UNL     1      -3.285  -5.407  -4.130  0.00  0.00    -0.015 A 
ATOM      5  C   UNL     1      -4.182  -5.580  -3.075  0.00  0.00    +0.009 A 
ATOM      6  C   UNL     1      -4.318  -4.594  -2.120  0.00  0.00    +0.006 A 
ENDROOT
BRANCH   4   7
ATOM      7  C   UNL     1      -3.130  -6.463  -5.155  0.00  0.00    +0.017 A 
ATOM      8  C   UNL     1      -4.246  -6.803  -6.048  0.00  0.00    -0.003 A 
ATOM      9  C   UNL     1      -5.477  -6.153  -5.966  0.00  0.00    +0.009 A 
ATOM     10  C   UNL     1      -6.492  -6.507  -6.827  0.00  0.00    +0.001 A 
ATOM     11  C   UNL     1      -6.301  -7.505  -7.774  0.00  0.00    +0.001 A 
ATOM     12  C   UNL     1      -5.094  -8.160  -7.873  0.00  0.00    +0.014 A 
ATOM     13  C   UNL     1      -4.051  -7.818  -7.012  0.00  0.00    +0.047 A 
ATOM     14  C   UNL     1      -2.746  -8.486  -7.078  0.00  0.00    +0.259 A 
ATOM     15  O   UNL     1      -2.551  -9.364  -7.899  0.00  0.00    -0.267 OA
ATOM     16  N   UNL     1      -1.765  -8.127  -6.229  0.00  0.00    -0.307 N 
ATOM     17  C   UNL     1      -1.934  -7.138  -5.289  0.00  0.00    +0.101 A 
ATOM     18  C   UNL     1      -0.471  -8.808  -6.314  0.00  0.00    +0.152 C 
BRANCH  17  19
ATOM     19  C   UNL     1      -0.813  -6.796  -4.398  0.00  0.00    +0.224 A 
ATOM     20  N   UNL     1      -0.812  -5.874  -3.430  0.00  0.00    -0.104 NA
ATOM     21  N   UNL     1       0.357  -5.885  -2.887  0.00  0.00    -0.021 NA
ATOM     22  N   UNL     1       1.089  -6.769  -3.469  0.00  0.00    -0.021 NA
ATOM     23  N   UNL     1       0.404  -7.348  -4.395  0.00  0.00    -0.104 NA
ENDBRANCH  17  19
ENDBRANCH   4   7
BRANCH   1  24
ATOM     24  C   UNL     1      -3.732  -2.355  -1.168  0.00  0.00    +0.143 C 
BRANCH  24  33
ATOM     25  C   UNL     1      -1.413  -2.063   0.004  0.00  0.00    +0.160 C 
ATOM     26  N   UNL     1      -0.866  -2.570   1.270  0.00  0.00    -0.323 N 
ATOM     27  C   UNL     1      -1.868  -3.339   1.873  0.00  0.00    +0.070 A 
ATOM     28  C   UNL     1      -1.878  -4.041   3.073  0.00  0.00    -0.025 A 
ATOM     29  C   UNL     1      -3.029  -4.730   3.429  0.00  0.00    +0.026 A 
ATOM     30  C   UNL     1      -4.121  -4.697   2.586  0.00  0.00    +0.015 A 
ATOM     31  N   UNL     1      -4.085  -4.023   1.452  0.00  0.00    -0.346 N 
ATOM     32  C   UNL     1      -3.007  -3.349   1.070  0.00  0.00    +0.122 A 
ATOM     33  N   UNL     1      -2.781  -2.588  -0.079  0.00  0.00    -0.292 N 
ATOM     34  C   UNL     1      -5.374  -5.442   2.966  0.00  0.00    +0.063 C 
ATOM     35  C   UNL     1      -0.665  -4.054   3.967  0.00  0.00    +0.046 C 
ATOM     36  H   UNL     1       0.022  -2.403   1.621  0.00  0.00    +0.148 HD
ATOM     37  H   UNL     1      -4.870  -4.021   0.881  0.00  0.00    +0.167 HD
BRANCH  25  38
ATOM     38  C   UNL     1      -1.433  -0.534   0.013  0.00  0.00    +0.042 C 
BRANCH  38  40
ATOM     39  C   UNL     1      -0.019   1.526   0.010  0.00  0.00    +0.004 C 
ATOM     40  C   UNL     1       0.002  -0.004   0.002  0.00  0.00    +0.000 C 
ENDBRANCH  38  40
ENDBRANCH  25  38
ENDBRANCH  24  33
ENDBRANCH   1  24
TORSDOF 6
