REMARK  Name = ZINC31919949
REMARK  5 active torsions:
REMARK  status: ('A' for Active; 'I' for Inactive)
REMARK    1  A    between atoms: C_1  and  C_2
REMARK    2  A    between atoms: C_9  and  C_15
REMARK    3  A    between atoms: C_10  and  C_11
REMARK    4  A    between atoms: C_11  and  C_13
REMARK    5  A    between atoms: C_11  and  O_14
REMARK                            x       y       z     vdW  Elec       q    Type
REMARK                         _______ _______ _______ _____ _____    ______ ____
ROOT
ATOM      1  C   UNL     1       1.308   5.266  -0.268  0.00  0.00    +0.044 C 
ATOM      2  C   UNL     1       0.943   3.805  -0.326  0.00  0.00    -0.046 A 
ATOM      3  C   UNL     1      -0.402   3.417  -0.439  0.00  0.00    +0.021 A 
ATOM      4  C   UNL     1      -0.733   2.110  -0.486  0.00  0.00    +0.093 A 
ATOM      5  N   UNL     1       0.233   1.146  -0.435  0.00  0.00    -0.300 N 
ATOM      6  C   UNL     1       1.555   1.493  -0.325  0.00  0.00    +0.139 A 
ATOM      7  C   UNL     1       1.915   2.855  -0.269  0.00  0.00    +0.050 A 
ATOM      8  N   UNL     1       2.275   0.382  -0.290  0.00  0.00    -0.227 NA
ATOM      9  C   UNL     1       1.454  -0.677  -0.376  0.00  0.00    +0.095 A 
ATOM     10  C   UNL     1       0.174  -0.219  -0.467  0.00  0.00    +0.079 A 
ENDROOT
BRANCH   9  11
ATOM     11  C   UNL     1       1.869  -2.102  -0.372  0.00  0.00    +0.002 A 
ATOM     12  C   UNL     1       1.150  -3.037   0.369  0.00  0.00    +0.011 A 
ATOM     13  C   UNL     1       1.538  -4.362   0.366  0.00  0.00    +0.016 A 
ATOM     14  C   UNL     1       2.644  -4.760  -0.364  0.00  0.00    +0.018 A 
ATOM     15  C   UNL     1       3.365  -3.833  -1.098  0.00  0.00    +0.016 A 
ATOM     16  C   UNL     1       2.983  -2.507  -1.105  0.00  0.00    +0.011 A 
ATOM     17 BR   UNL     1       3.174  -6.575  -0.358  0.00  0.00    -0.050 Br
ENDBRANCH   9  11
BRANCH  10  18
ATOM     18  C   UNL     1      -1.071  -1.060  -0.581  0.00  0.00    +0.160 C 
ATOM     19  C   UNL     1      -1.824  -1.040   0.751  0.00  0.00    +0.044 C 
BRANCH  18  20
ATOM     20  O   UNL     1      -1.910  -0.530  -1.610  0.00  0.00    -0.386 OA
ATOM     21  H   UNL     1      -2.870  -1.015  -1.840  0.00  0.00    +0.210 HD
ENDBRANCH  18  20
ENDBRANCH  10  18
TORSDOF 3
