REMARK  Name = ZINC09335115
REMARK  7 active torsions:
REMARK  status: ('A' for Active; 'I' for Inactive)
REMARK    1  A    between atoms: C_1  and  C_2
REMARK    2  A    between atoms: C_4  and  C_33
REMARK    3  A    between atoms: C_6  and  N_8
REMARK    4  A    between atoms: N_8  and  C_9
REMARK    5  A    between atoms: C_10  and  C_11
REMARK    6  A    between atoms: C_10  and  C_13
REMARK    7  A    between atoms: C_15  and  C_18
REMARK                            x       y       z     vdW  Elec       q    Type
REMARK                         _______ _______ _______ _____ _____    ______ ____
ROOT
ATOM      1  C   UNL     1      -4.830   8.275   0.100  0.00  0.00    +0.120 A 
ATOM      2  N   UNL     1      -3.705   7.575   0.108  0.00  0.00    -0.238 NA
ATOM      3  C   UNL     1      -2.526   8.174   0.114  0.00  0.00    +0.086 A 
ATOM      4  C   UNL     1      -2.467   9.543   0.098  0.00  0.00    +0.075 A 
ATOM      5  S   UNL     1      -4.208   9.950   0.084  0.00  0.00    -0.074 S 
ENDROOT
BRANCH   3   6
ATOM      6  C   UNL     1      -1.281   7.373   0.130  0.00  0.00    +0.086 A 
ATOM      7  C   UNL     1      -1.331   5.992   0.146  0.00  0.00    +0.029 A 
ATOM      8  C   UNL     1      -0.119   5.268   0.161  0.00  0.00    +0.026 A 
ATOM      9  C   UNL     1      -0.126   3.804   0.178  0.00  0.00    -0.007 A 
ATOM     10  C   UNL     1      -1.320   3.077   0.179  0.00  0.00    +0.009 A 
ATOM     11  C   UNL     1      -1.281   1.713   0.188  0.00  0.00    +0.001 A 
ATOM     12  C   UNL     1      -0.066   1.035   0.210  0.00  0.00    +0.001 A 
ATOM     13  C   UNL     1       1.116   1.713   0.210  0.00  0.00    +0.008 A 
ATOM     14  C   UNL     1       1.111   3.117   0.194  0.00  0.00    -0.017 A 
ATOM     15  C   UNL     1       2.312   3.853   0.193  0.00  0.00    +0.012 A 
ATOM     16  C   UNL     1       2.303   5.209   0.177  0.00  0.00    +0.047 A 
ATOM     17  C   UNL     1       1.109   5.940   0.161  0.00  0.00    +0.140 A 
ATOM     18  O   UNL     1       1.152   7.290   0.145  0.00  0.00    -0.422 OA
ATOM     19  C   UNL     1       0.030   8.027   0.130  0.00  0.00    +0.347 A 
ATOM     20  O   UNL     1       0.102   9.243   0.116  0.00  0.00    -0.244 OA
ENDBRANCH   3   6
BRANCH   1  22
ATOM     21  C   UNL     1      -6.556   6.660  -0.577  0.00  0.00    +0.093 C 
ATOM     22  C   UNL     1      -6.226   7.797   0.097  0.00  0.00    +0.098 C 
BRANCH  21  23
ATOM     23  N   UNL     1      -5.583   5.922  -1.190  0.00  0.00    -0.319 N 
ATOM     24  H   UNL     1      -4.650   6.161  -1.077  0.00  0.00    +0.152 HD
BRANCH  23  30
ATOM     25  C   UNL     1      -9.058   3.016  -3.096  0.00  0.00    +0.044 C 
ATOM     26  C   UNL     1      -7.609   3.390  -2.920  0.00  0.00    -0.048 A 
ATOM     27  C   UNL     1      -6.623   2.645  -3.539  0.00  0.00    +0.006 A 
ATOM     28  C   UNL     1      -5.292   2.985  -3.380  0.00  0.00    -0.048 A 
ATOM     29  C   UNL     1      -4.943   4.071  -2.601  0.00  0.00    +0.026 A 
ATOM     30  C   UNL     1      -5.932   4.822  -1.978  0.00  0.00    +0.031 A 
ATOM     31  C   UNL     1      -7.268   4.474  -2.135  0.00  0.00    +0.026 A 
ATOM     32  C   UNL     1      -4.220   2.169  -4.057  0.00  0.00    +0.044 C 
ENDBRANCH  23  30
ENDBRANCH  21  23
BRANCH  22  33
ATOM     33  C   UNL     1      -7.234   8.529   0.804  0.00  0.00    +0.103 C 
ATOM     34  N   UNL     1      -8.034   9.109   1.364  0.00  0.00    -0.191 NA
ENDBRANCH  22  33
ENDBRANCH   1  22
TORSDOF 5
