REMARK  Name = ZINC20167620
REMARK  10 active torsions:
REMARK  status: ('A' for Active; 'I' for Inactive)
REMARK    1  A    between atoms: C_1  and  C_2
REMARK    2  A    between atoms: C_2  and  O_3
REMARK    3  A    between atoms: O_3  and  C_4
REMARK    4  A    between atoms: C_4  and  C_6
REMARK    5  A    between atoms: C_6  and  N_7
REMARK    6  A    between atoms: C_8  and  C_35
REMARK    7  A    between atoms: C_9  and  C_25
REMARK    8  A    between atoms: C_25  and  O_27
REMARK    9  A    between atoms: O_27  and  C_28
REMARK   10  A    between atoms: C_28  and  C_29
REMARK                            x       y       z     vdW  Elec       q    Type
REMARK                         _______ _______ _______ _____ _____    ______ ____
ROOT
ATOM      1  N   UNL     1       2.036   5.570   0.013  0.00  0.00    -0.263 N 
ATOM      2  C   UNL     1       2.337   4.240   0.008  0.00  0.00    +0.023 C 
ATOM      3  C   UNL     1       1.231   3.468   0.009  0.00  0.00    +0.079 C 
ATOM      4  C   UNL     1       0.066   4.424   0.025  0.00  0.00    +0.151 C 
ATOM      5  C   UNL     1       0.705   5.790   0.026  0.00  0.00    +0.241 C 
ATOM      6  O   UNL     1       0.140   6.862   0.037  0.00  0.00    -0.273 OA
ATOM      7  C   UNL     1      -0.799   4.219   1.235  0.00  0.00    -0.011 A 
ATOM      8  C   UNL     1      -0.556   4.261   2.590  0.00  0.00    +0.006 A 
ATOM      9  C   UNL     1      -1.583   4.024   3.487  0.00  0.00    +0.000 A 
ATOM     10  C   UNL     1      -2.858   3.745   3.026  0.00  0.00    +0.001 A 
ATOM     11  C   UNL     1      -3.114   3.699   1.673  0.00  0.00    +0.012 A 
ATOM     12  C   UNL     1      -2.083   3.937   0.759  0.00  0.00    +0.024 A 
ATOM     13  C   UNL     1      -2.067   3.950  -0.718  0.00  0.00    +0.162 A 
ATOM     14  C   UNL     1      -0.821   4.233  -1.172  0.00  0.00    +0.113 A 
ATOM     15  N   UNL     1      -0.864   4.231  -2.514  0.00  0.00    -0.198 NA
ATOM     16  C   UNL     1      -2.089   3.960  -2.897  0.00  0.00    +0.286 A 
ATOM     17  O   UNL     1      -2.854   3.783  -1.810  0.00  0.00    -0.424 OA
ATOM     18  N   UNL     1      -2.519   3.872  -4.205  0.00  0.00    -0.313 N 
ATOM     19  C   UNL     1       3.743   3.696  -0.000  0.00  0.00    +0.061 C 
ATOM     20  H   UNL     1      -3.572   3.638  -4.423  0.00  0.00    +0.147 HD
ATOM     21  H   UNL     1      -1.810   4.035  -5.030  0.00  0.00    +0.147 HD
ENDROOT
BRANCH   3  22
ATOM     22  C   UNL     1       1.177   2.054   0.002  0.00  0.00    +0.339 C 
ATOM     23  O   UNL     1       2.206   1.405  -0.011  0.00  0.00    -0.245 OA
BRANCH  22  24
ATOM     24  O   UNL     1      -0.017   1.425   0.010  0.00  0.00    -0.457 OA
BRANCH  24  25
ATOM     25  C   UNL     1       0.002  -0.004   0.002  0.00  0.00    +0.268 C 
BRANCH  25  26
ATOM     26  C   UNL     1      -1.412  -0.526   0.013  0.00  0.00    -0.010 A 
ATOM     27  C   UNL     1      -2.047  -0.777   1.215  0.00  0.00    +0.007 A 
ATOM     28  C   UNL     1      -3.345  -1.251   1.224  0.00  0.00    +0.000 A 
ATOM     29  C   UNL     1      -4.005  -1.483   0.032  0.00  0.00    +0.000 A 
ATOM     30  C   UNL     1      -3.369  -1.237  -1.170  0.00  0.00    +0.000 A 
ATOM     31  C   UNL     1      -2.072  -0.758  -1.179  0.00  0.00    +0.007 A 
ENDBRANCH  25  26
ENDBRANCH  24  25
ENDBRANCH  22  24
ENDBRANCH   3  22
BRANCH   1  32
ATOM     32  C   UNL     1       3.041   6.636   0.009  0.00  0.00    +0.233 C 
BRANCH  32  33
ATOM     33  C   UNL     1       3.398   6.994   1.429  0.00  0.00    +0.325 C 
ATOM     34  O   UNL     1       2.868   6.417   2.349  0.00  0.00    -0.249 OA
BRANCH  33  35
ATOM     35  O   UNL     1       4.305   7.953   1.671  0.00  0.00    -0.464 OA
BRANCH  35  37
ATOM     36  C   UNL     1       5.649   9.356   3.140  0.00  0.00    +0.048 C 
ATOM     37  C   UNL     1       4.600   8.245   3.063  0.00  0.00    +0.229 C 
ENDBRANCH  35  37
ENDBRANCH  33  35
ENDBRANCH  32  33
ENDBRANCH   1  32
TORSDOF 8
