REMARK  Name = ZINC21337180
REMARK  7 active torsions:
REMARK  status: ('A' for Active; 'I' for Inactive)
REMARK    1  A    between atoms: C_1  and  C_2
REMARK    2  A    between atoms: N_11  and  C_15
REMARK    3  A    between atoms: C_15  and  C_16
REMARK    4  A    between atoms: N_18  and  C_19
REMARK    5  A    between atoms: C_22  and  C_25
REMARK    6  A    between atoms: C_25  and  C_26
REMARK    7  A    between atoms: C_25  and  C_27
REMARK                            x       y       z     vdW  Elec       q    Type
REMARK                         _______ _______ _______ _____ _____    ______ ____
ROOT
ATOM      1  C   UNL     1      -3.136  -1.992   2.607  0.00  0.00    +0.244 C 
ATOM      2  O   UNL     1      -2.135  -2.425   2.076  0.00  0.00    -0.273 OA
ATOM      3  N   UNL     1      -4.237  -2.763   2.700  0.00  0.00    -0.217 N 
ATOM      4  C   UNL     1      -5.346  -2.307   3.397  0.00  0.00    +0.173 A 
ATOM      5  N   UNL     1      -5.548  -1.132   3.946  0.00  0.00    -0.224 NA
ATOM      6  C   UNL     1      -6.688  -0.823   4.601  0.00  0.00    +0.080 A 
ATOM      7  C   UNL     1      -7.029   0.397   5.231  0.00  0.00    +0.029 A 
ATOM      8  C   UNL     1      -8.239   0.546   5.856  0.00  0.00    +0.002 A 
ATOM      9  C   UNL     1      -9.168  -0.483   5.895  0.00  0.00    +0.001 A 
ATOM     10  C   UNL     1      -8.867  -1.689   5.289  0.00  0.00    +0.017 A 
ATOM     11  C   UNL     1      -7.658  -1.849   4.660  0.00  0.00    +0.041 A 
ATOM     12  S   UNL     1      -6.867  -3.168   3.770  0.00  0.00    -0.052 S 
ENDROOT
BRANCH   3  13
ATOM     13  C   UNL     1      -4.261  -4.026   2.094  0.00  0.00    +0.043 A 
ATOM     14  C   UNL     1      -4.256  -4.132   0.709  0.00  0.00    +0.024 A 
ATOM     15  C   UNL     1      -4.275  -5.378   0.114  0.00  0.00    +0.006 A 
ATOM     16  C   UNL     1      -4.310  -6.519   0.895  0.00  0.00    -0.045 A 
ATOM     17  C   UNL     1      -4.321  -6.416   2.274  0.00  0.00    +0.006 A 
ATOM     18  C   UNL     1      -4.297  -5.173   2.875  0.00  0.00    +0.024 A 
BRANCH  16  19
ATOM     19  C   UNL     1      -4.336  -7.877   0.242  0.00  0.00    +0.013 C 
ATOM     20  C   UNL     1      -5.580  -7.995  -0.641  0.00  0.00    +0.012 C 
ATOM     21  C   UNL     1      -3.083  -8.054  -0.617  0.00  0.00    +0.012 C 
ENDBRANCH  16  19
ENDBRANCH   3  13
BRANCH   1  22
ATOM     22  C   UNL     1      -3.148  -0.591   3.163  0.00  0.00    +0.214 C 
BRANCH  22  32
ATOM     23  C   UNL     1      -0.939   3.256   3.156  0.00  0.00    +0.010 C 
ATOM     24  C   UNL     1      -0.005   2.712   2.074  0.00  0.00    +0.018 C 
ATOM     25  C   UNL     1      -0.423   3.271   0.711  0.00  0.00    +0.006 C 
ATOM     26  C   UNL     1       0.498   2.710  -0.373  0.00  0.00    +0.000 C 
ATOM     27  C   UNL     1       0.386   1.184  -0.403  0.00  0.00    +0.003 C 
ATOM     28  C   UNL     1       0.807   0.617   0.956  0.00  0.00    +0.035 C 
ATOM     29  C   UNL     1      -0.092   1.189   2.047  0.00  0.00    +0.115 C 
ATOM     30  C   UNL     1      -1.522   0.746   1.838  0.00  0.00    +0.247 C 
ATOM     31  O   UNL     1      -2.231   0.981   0.883  0.00  0.00    -0.273 OA
ATOM     32  N   UNL     1      -1.842   0.034   2.939  0.00  0.00    -0.215 N 
ATOM     33  C   UNL     1      -0.820  -0.029   3.800  0.00  0.00    +0.310 C 
ATOM     34  O   UNL     1      -0.867  -0.615   4.864  0.00  0.00    -0.252 OA
ATOM     35  N   UNL     1       0.268   0.630   3.356  0.00  0.00    -0.285 N 
ATOM     36  H   UNL     1       1.273   0.800   3.769  0.00  0.00    +0.151 HD
ENDBRANCH  22  32
ENDBRANCH   1  22
TORSDOF 4
