REMARK  Name = ZINC36827882
REMARK  4 active torsions:
REMARK  status: ('A' for Active; 'I' for Inactive)
REMARK    1  A    between atoms: C_1  and  C_2
REMARK    2  A    between atoms: C_4  and  C_20
REMARK    3  A    between atoms: C_6  and  C_11
REMARK    4  A    between atoms: C_16  and  N_17
REMARK                            x       y       z     vdW  Elec       q    Type
REMARK                         _______ _______ _______ _____ _____    ______ ____
ROOT
ATOM      1  C   UNL     1       0.013   1.492   0.526  0.00  0.00    +0.066 C 
ATOM      2  C   UNL     1       0.018  -0.005   0.362  0.00  0.00    +0.044 A 
ATOM      3  C   UNL     1      -1.190  -0.717   0.425  0.00  0.00    +0.044 A 
ATOM      4  C   UNL     1      -1.176  -2.065   0.276  0.00  0.00    +0.027 A 
ATOM      5  N   UNL     1       0.016  -2.694   0.069  0.00  0.00    -0.264 N 
ATOM      6  C   UNL     1       0.378  -4.001  -0.116  0.00  0.00    +0.172 A 
ATOM      7  N   UNL     1       1.686  -4.022  -0.271  0.00  0.00    -0.127 NA
ATOM      8  N   UNL     1       2.162  -2.830  -0.196  0.00  0.00    -0.108 NA
ATOM      9  C   UNL     1       1.180  -1.966   0.012  0.00  0.00    +0.256 A 
ATOM     10  N   UNL     1       1.151  -0.635   0.156  0.00  0.00    -0.216 NA
ATOM     11  C   UNL     1      -2.457  -2.855   0.340  0.00  0.00    +0.064 C 
ENDROOT
BRANCH   6  12
ATOM     12  C   UNL     1      -0.527  -5.168  -0.137  0.00  0.00    +0.043 A 
ATOM     13  C   UNL     1      -1.571  -5.229  -1.062  0.00  0.00    +0.033 A 
ATOM     14  C   UNL     1      -2.414  -6.322  -1.077  0.00  0.00    +0.043 A 
ATOM     15  C   UNL     1      -2.229  -7.359  -0.177  0.00  0.00    +0.042 A 
ATOM     16  C   UNL     1      -1.199  -7.311   0.744  0.00  0.00    +0.064 A 
ATOM     17  C   UNL     1      -0.339  -6.221   0.768  0.00  0.00    +0.054 A 
ATOM     18 CL   UNL     1      -0.977  -8.616   1.866  0.00  0.00    -0.082 Cl
ATOM     19 CL   UNL     1      -3.712  -6.396  -2.227  0.00  0.00    -0.083 Cl
BRANCH  17  20
ATOM     20  N   UNL     1       0.706  -6.173   1.693  0.00  0.00    -0.356 N 
ATOM     21  H   UNL     1       1.303  -5.409   1.710  0.00  0.00    +0.142 HD
ATOM     22  H   UNL     1       0.834  -6.904   2.318  0.00  0.00    +0.142 HD
ENDBRANCH  17  20
ENDBRANCH   6  12
TORSDOF 2
