REMARK  Name = ZINC59828957
REMARK  6 active torsions:
REMARK  status: ('A' for Active; 'I' for Inactive)
REMARK    1  A    between atoms: C_1  and  C_2
REMARK    2  A    between atoms: C_2  and  C_3
REMARK    3  A    between atoms: C_5  and  C_24
REMARK    4  A    between atoms: C_6  and  N_8
REMARK    5  A    between atoms: C_9  and  C_11
REMARK    6  A    between atoms: C_11  and  C_12
REMARK                            x       y       z     vdW  Elec       q    Type
REMARK                         _______ _______ _______ _____ _____    ______ ____
ROOT
ATOM      1  N   UNL     1       1.498  -1.737  -4.981  0.00  0.00    -0.279 N 
ATOM      2  C   UNL     1       0.400  -1.789  -5.761  0.00  0.00    +0.222 C 
ATOM      3  O   UNL     1      -0.681  -1.476  -5.308  0.00  0.00    -0.275 OA
ATOM      4  H   UNL     1       2.362  -1.987  -5.344  0.00  0.00    +0.155 HD
ENDROOT
BRANCH   1   8
ATOM      5  C   UNL     1       0.707  -0.490  -1.238  0.00  0.00    -0.007 A 
ATOM      6  C   UNL     1       2.017  -0.755  -1.405  0.00  0.00    +0.032 A 
ATOM      7  C   UNL     1       2.405  -1.211  -2.719  0.00  0.00    +0.080 A 
ATOM      8  C   UNL     1       1.393  -1.325  -3.660  0.00  0.00    +0.089 A 
ATOM      9  S   UNL     1       0.009  -0.859  -2.832  0.00  0.00    -0.077 S 
BRANCH   5  11
ATOM     10  C   UNL     1      -0.019   1.526   0.010  0.00  0.00    +0.009 C 
ATOM     11  C   UNL     1       0.002  -0.004   0.002  0.00  0.00    +0.039 C 
ENDBRANCH   5  11
BRANCH   7  12
ATOM     12  C   UNL     1       3.765  -1.529  -3.035  0.00  0.00    +0.102 C 
ATOM     13  N   UNL     1       4.844  -1.780  -3.286  0.00  0.00    -0.191 NA
ENDBRANCH   7  12
ENDBRANCH   1   8
BRANCH   2  14
ATOM     14  C   UNL     1       0.515  -2.236  -7.195  0.00  0.00    +0.135 C 
BRANCH  14  15
ATOM     15  C   UNL     1      -0.846  -2.205  -7.841  0.00  0.00    +0.007 A 
ATOM     16  C   UNL     1      -1.704  -3.228  -7.960  0.00  0.00    +0.200 A 
ATOM     17  O   UNL     1      -2.820  -2.825  -8.593  0.00  0.00    -0.463 OA
ATOM     18  C   UNL     1      -2.744  -1.519  -8.919  0.00  0.00    +0.135 A 
ATOM     19  C   UNL     1      -1.502  -1.048  -8.462  0.00  0.00    +0.024 A 
ATOM     20  C   UNL     1      -1.146   0.285  -8.658  0.00  0.00    +0.015 A 
ATOM     21  C   UNL     1      -2.018   1.141  -9.298  0.00  0.00    -0.043 A 
ATOM     22  C   UNL     1      -3.248   0.678  -9.747  0.00  0.00    -0.041 A 
ATOM     23  C   UNL     1      -3.606  -0.644  -9.563  0.00  0.00    +0.050 A 
ATOM     24  C   UNL     1      -4.006   1.810 -10.408  0.00  0.00    +0.036 C 
ATOM     25  C   UNL     1      -3.308   3.100  -9.930  0.00  0.00    +0.009 C 
ATOM     26  C   UNL     1      -1.875   2.611  -9.630  0.00  0.00    +0.036 C 
ENDBRANCH  14  15
ENDBRANCH   2  14
TORSDOF 5
