REMARK  Name = ZINC11980593
REMARK  10 active torsions:
REMARK  status: ('A' for Active; 'I' for Inactive)
REMARK    1  A    between atoms: C_1  and  C_2
REMARK    2  A    between atoms: C_2  and  O_3
REMARK    3  A    between atoms: O_3  and  C_4
REMARK    4  A    between atoms: C_9  and  N_12
REMARK    5  A    between atoms: C_13  and  C_15
REMARK    6  A    between atoms: C_23  and  C_25
REMARK    7  A    between atoms: C_23  and  C_26
REMARK    8  A    between atoms: C_23  and  N_75
REMARK    9  A    between atoms: C_26  and  C_27
REMARK   10  A    between atoms: C_27  and  C_28
REMARK                            x       y       z     vdW  Elec       q    Type
REMARK                         _______ _______ _______ _____ _____    ______ ____
ROOT
ATOM      1  C   UNL     1       1.574   2.510  -0.366  0.00  0.00    +0.082 C 
ATOM      2  C   UNL     1       2.102   2.304   1.055  0.00  0.00    +0.020 C 
ATOM      3  C   UNL     1       2.597   1.412  -0.082  0.00  0.00    -0.021 C 
ATOM      4  C   UNL     1       4.029   1.623  -0.584  0.00  0.00    -0.011 C 
ATOM      5  C   UNL     1       4.169   0.955  -1.957  0.00  0.00    -0.078 C 
ATOM      6  C   UNL     1       2.367  -0.610  -1.514  0.00  0.00    -0.078 C 
ATOM      7  C   UNL     1       2.113  -0.041  -0.114  0.00  0.00    -0.011 C 
ATOM      8  N   UNL     1       3.805  -0.473  -1.832  0.00  0.00    +0.381 N 
ATOM      9  H   UNL     1       4.354  -0.890  -1.071  0.00  0.00    -0.081 HD
ENDROOT
BRANCH   1  11
ATOM     10  N   UNL     1      -0.386   2.313  -1.863  0.00  0.00    -0.312 N 
ATOM     11  C   UNL     1       0.157   2.083  -0.651  0.00  0.00    +0.217 C 
ATOM     12  O   UNL     1      -0.494   1.529   0.209  0.00  0.00    -0.275 OA
ATOM     13  H   UNL     1       0.135   2.756  -2.551  0.00  0.00    +0.149 HD
BRANCH  10  19
ATOM     14  C   UNL     1      -4.405   0.431  -4.924  0.00  0.00    +0.403 C 
ATOM     15  O   UNL     1      -4.909   1.202  -5.717  0.00  0.00    -0.226 OA
ATOM     16  N   UNL     1      -3.825   0.901  -3.803  0.00  0.00    -0.267 N 
ATOM     17  C   UNL     1      -3.793   2.343  -3.524  0.00  0.00    +0.113 C 
ATOM     18  C   UNL     1      -2.343   2.762  -3.259  0.00  0.00    +0.041 C 
ATOM     19  C   UNL     1      -1.761   1.893  -2.142  0.00  0.00    +0.076 C 
ATOM     20  C   UNL     1      -1.768   0.426  -2.579  0.00  0.00    +0.041 C 
ATOM     21  C   UNL     1      -3.211  -0.019  -2.836  0.00  0.00    +0.113 C 
BRANCH  14  22
ATOM     22  O   UNL     1      -4.428  -0.893  -5.167  0.00  0.00    -0.451 OA
BRANCH  22  24
ATOM     23  C   UNL     1      -4.997  -2.853  -6.496  0.00  0.00    +0.048 C 
ATOM     24  C   UNL     1      -5.070  -1.328  -6.394  0.00  0.00    +0.230 C 
ENDBRANCH  22  24
ENDBRANCH  14  22
ENDBRANCH  10  19
ENDBRANCH   1  11
BRANCH   8  25
ATOM     25  C   UNL     1       4.113  -1.183  -3.090  0.00  0.00    -0.071 C 
ATOM     26  C   UNL     1       3.238  -0.663  -4.232  0.00  0.00    -0.013 C 
BRANCH  25  27
ATOM     27  C   UNL     1       3.854  -2.677  -2.888  0.00  0.00    -0.011 C 
BRANCH  27  28
ATOM     28  C   UNL     1       4.783  -3.213  -1.798  0.00  0.00    +0.036 C 
BRANCH  28  29
ATOM     29  C   UNL     1       4.450  -4.656  -1.518  0.00  0.00    -0.022 A 
ATOM     30  C   UNL     1       3.636  -5.115  -0.554  0.00  0.00    +0.087 A 
ATOM     31  N   UNL     1       3.576  -6.481  -0.606  0.00  0.00    -0.360 N 
ATOM     32  H   UNL     1       3.052  -7.039  -0.009  0.00  0.00    +0.165 HD
ATOM     33  C   UNL     1       4.369  -6.946  -1.631  0.00  0.00    +0.047 A 
ATOM     34  C   UNL     1       4.947  -5.823  -2.251  0.00  0.00    +0.003 A 
ATOM     35  C   UNL     1       5.813  -5.993  -3.332  0.00  0.00    +0.010 A 
ATOM     36  C   UNL     1       6.088  -7.251  -3.790  0.00  0.00    +0.001 A 
ATOM     37  C   UNL     1       5.516  -8.362  -3.185  0.00  0.00    +0.002 A 
ATOM     38  C   UNL     1       4.662  -8.217  -2.114  0.00  0.00    +0.026 A 
ENDBRANCH  28  29
ENDBRANCH  27  28
ENDBRANCH  25  27
ENDBRANCH   8  25
TORSDOF 8
