REMARK  Name = ZINC39690264
REMARK  7 active torsions:
REMARK  status: ('A' for Active; 'I' for Inactive)
REMARK    1  A    between atoms: C_1  and  O_2
REMARK    2  A    between atoms: O_2  and  C_3
REMARK    3  A    between atoms: C_4  and  C_9
REMARK    4  A    between atoms: C_13  and  C_22
REMARK    5  A    between atoms: N_24  and  C_25
REMARK    6  A    between atoms: C_25  and  C_26
REMARK    7  A    between atoms: C_29  and  N_32
REMARK                            x       y       z     vdW  Elec       q    Type
REMARK                         _______ _______ _______ _____ _____    ______ ____
ROOT
ATOM      1  C   UNL     1       2.872  -0.629  -0.149  0.00  0.00    +0.251 C 
ATOM      2  O   UNL     1       2.198  -0.823   0.844  0.00  0.00    -0.270 OA
ATOM      3  N   UNL     1       4.156  -1.037  -0.182  0.00  0.00    -0.296 N 
ATOM      4  C   UNL     1       4.889  -1.814   0.845  0.00  0.00    +0.121 C 
ATOM      5  C   UNL     1       5.767  -2.797   0.038  0.00  0.00    +0.100 C 
ATOM      6  C   UNL     1       5.939  -2.131  -1.337  0.00  0.00    -0.004 C 
ATOM      7  C   UNL     1       5.153  -0.815  -1.257  0.00  0.00    +0.115 C 
ATOM      8  C   UNL     1       5.356  -3.021  -2.431  0.00  0.00    -0.010 C 
ATOM      9  C   UNL     1       5.590  -2.365  -3.795  0.00  0.00    -0.082 C 
ATOM     10  N   UNL     1       7.030  -2.173  -4.007  0.00  0.00    +0.379 N 
ATOM     11  C   UNL     1       7.564  -1.243  -3.006  0.00  0.00    -0.082 C 
ATOM     12  C   UNL     1       7.414  -1.851  -1.609  0.00  0.00    -0.010 C 
ATOM     13  H   UNL     1       7.501  -3.061  -3.925  0.00  0.00    -0.086 HD
ATOM     14  H   UNL     1       7.185  -1.797  -4.931  0.00  0.00    -0.086 HD
ENDROOT
BRANCH   1  16
ATOM     15  C   UNL     1       0.903  -0.145  -1.688  0.00  0.00    +0.158 A 
ATOM     16  C   UNL     1       2.286   0.049  -1.315  0.00  0.00    +0.087 A 
ATOM     17  C   UNL     1       3.029   0.902  -2.103  0.00  0.00    +0.063 A 
ATOM     18  S   UNL     1       1.952   1.421  -3.280  0.00  0.00    -0.081 S 
ATOM     19  C   UNL     1       0.492   0.534  -2.782  0.00  0.00    +0.120 A 
ATOM     20 CL   UNL     1      -1.079   0.541  -3.521  0.00  0.00    -0.072 Cl
BRANCH  15  22
ATOM     21  C   UNL     1       0.017  -2.333  -1.390  0.00  0.00    +0.277 C 
ATOM     22  O   UNL     1       0.071  -0.964  -0.987  0.00  0.00    -0.492 OA
ENDBRANCH  15  22
ENDBRANCH   1  16
BRANCH   5  23
ATOM     23  C   UNL     1       7.105  -2.976   0.708  0.00  0.00    +0.218 C 
ATOM     24  O   UNL     1       7.545  -2.105   1.427  0.00  0.00    -0.275 OA
ATOM     25  N   UNL     1       7.813  -4.105   0.507  0.00  0.00    -0.311 N 
ATOM     26  H   UNL     1       7.462  -4.802  -0.069  0.00  0.00    +0.149 HD
BRANCH  25  27
ATOM     27  C   UNL     1       9.114  -4.280   1.158  0.00  0.00    +0.139 C 
BRANCH  27  28
ATOM     28  C   UNL     1       9.694  -5.616   0.772  0.00  0.00    -0.030 A 
ATOM     29  C   UNL     1       9.415  -6.735   1.535  0.00  0.00    +0.007 A 
ATOM     30  C   UNL     1       9.944  -7.962   1.183  0.00  0.00    +0.026 A 
ATOM     31  C   UNL     1      10.757  -8.070   0.063  0.00  0.00    +0.046 A 
ATOM     32  C   UNL     1      11.035  -6.945  -0.701  0.00  0.00    +0.026 A 
ATOM     33  C   UNL     1      10.498  -5.722  -0.347  0.00  0.00    +0.007 A 
BRANCH  31  34
ATOM     34  N   UNL     1      11.297  -9.313  -0.295  0.00  0.00    -0.323 N 
ATOM     35  C   UNL     1      11.095 -10.490   0.368  0.00  0.00    +0.091 A 
ATOM     36  C   UNL     1      11.776 -11.459  -0.278  0.00  0.00    +0.019 A 
ATOM     37  C   UNL     1      12.421 -10.861  -1.379  0.00  0.00    +0.019 A 
ATOM     38  C   UNL     1      12.107  -9.550  -1.369  0.00  0.00    +0.091 A 
ENDBRANCH  31  34
ENDBRANCH  27  28
ENDBRANCH  25  27
ENDBRANCH   5  23
TORSDOF 6
