REMARK  Name = ZINC22321390
REMARK  13 active torsions:
REMARK  status: ('A' for Active; 'I' for Inactive)
REMARK    1  A    between atoms: C_1  and  C_2
REMARK    2  A    between atoms: C_5  and  S_8
REMARK    3  A    between atoms: S_8  and  N_11
REMARK    4  A    between atoms: N_11  and  C_12
REMARK    5  A    between atoms: N_11  and  C_31
REMARK    6  A    between atoms: C_12  and  C_13
REMARK    7  A    between atoms: N_15  and  C_16
REMARK    8  A    between atoms: C_19  and  C_29
REMARK    9  A    between atoms: C_19  and  C_30
REMARK   10  A    between atoms: C_24  and  O_27
REMARK   11  A    between atoms: O_27  and  C_28
REMARK   12  A    between atoms: C_35  and  O_37
REMARK   13  A    between atoms: O_37  and  C_38
REMARK                            x       y       z     vdW  Elec       q    Type
REMARK                         _______ _______ _______ _____ _____    ______ ____
ROOT
ATOM      1  N   UNL     1      -0.422   2.335   0.005  0.00  0.00    -0.194 N 
ENDROOT
BRANCH   1   2
ATOM      2  C   UNL     1       0.229   3.472  -0.479  0.00  0.00    +0.055 A 
ATOM      3  C   UNL     1       1.016   3.390  -1.622  0.00  0.00    +0.025 A 
ATOM      4  C   UNL     1       1.659   4.515  -2.100  0.00  0.00    +0.005 A 
ATOM      5  C   UNL     1       1.523   5.724  -1.445  0.00  0.00    +0.046 A 
ATOM      6  C   UNL     1       0.739   5.811  -0.303  0.00  0.00    +0.122 A 
ATOM      7  C   UNL     1       0.088   4.686   0.178  0.00  0.00    +0.070 A 
BRANCH   6   8
ATOM      8  O   UNL     1       0.607   7.001   0.341  0.00  0.00    -0.495 OA
ATOM      9  C   UNL     1       1.302   8.120  -0.213  0.00  0.00    +0.277 C 
ENDBRANCH   6   8
ENDBRANCH   1   2
BRANCH   1  10
ATOM     10  S   UNL     1       0.197   0.831  -0.305  0.00  0.00    +0.075 S 
ATOM     11  O   UNL     1       1.574   1.013  -0.608  0.00  0.00    -0.150 OA
ATOM     12  O   UNL     1      -0.245  -0.015   0.747  0.00  0.00    -0.150 OA
BRANCH  10  17
ATOM     13  C   UNL     1      -2.429  -1.174  -5.354  0.00  0.00    +0.044 C 
ATOM     14  C   UNL     1      -1.773  -0.674  -4.093  0.00  0.00    -0.050 A 
ATOM     15  C   UNL     1      -0.533  -0.064  -4.154  0.00  0.00    +0.005 A 
ATOM     16  C   UNL     1       0.068   0.396  -2.997  0.00  0.00    +0.029 A 
ATOM     17  C   UNL     1      -0.570   0.245  -1.780  0.00  0.00    +0.109 A 
ATOM     18  C   UNL     1      -1.806  -0.369  -1.718  0.00  0.00    +0.029 A 
ATOM     19  C   UNL     1      -2.410  -0.825  -2.875  0.00  0.00    +0.005 A 
ENDBRANCH  10  17
ENDBRANCH   1  10
BRANCH   1  20
ATOM     20  C   UNL     1      -1.657   2.473   0.781  0.00  0.00    +0.227 C 
BRANCH  20  21
ATOM     21  C   UNL     1      -1.316   2.675   2.235  0.00  0.00    +0.233 C 
ATOM     22  O   UNL     1      -0.156   2.751   2.581  0.00  0.00    -0.274 OA
ATOM     23  N   UNL     1      -2.300   2.773   3.151  0.00  0.00    -0.307 N 
ATOM     24  H   UNL     1      -3.347   2.622   2.851  0.00  0.00    +0.149 HD
BRANCH  23  25
ATOM     25  C   UNL     1      -1.975   3.080   4.546  0.00  0.00    +0.111 C 
ATOM     26  C   UNL     1      -3.137   3.845   5.183  0.00  0.00    +0.074 C 
ATOM     27  C   UNL     1      -2.907   3.896   6.699  0.00  0.00    +0.107 C 
ATOM     28  O   UNL     1      -2.969   2.563   7.208  0.00  0.00    -0.486 OA
ATOM     29  C   UNL     1      -2.238   1.606   6.577  0.00  0.00    +0.126 A 
ATOM     30  C   UNL     1      -1.738   1.796   5.300  0.00  0.00    +0.018 A 
ATOM     31  C   UNL     1      -1.002   0.793   4.692  0.00  0.00    +0.054 A 
ATOM     32  C   UNL     1      -0.762  -0.399   5.357  0.00  0.00    +0.121 A 
ATOM     33  C   UNL     1      -1.260  -0.588   6.637  0.00  0.00    +0.049 A 
ATOM     34  C   UNL     1      -1.995   0.410   7.243  0.00  0.00    +0.049 A 
ATOM     35  C   UNL     1      -1.530   4.495   6.992  0.00  0.00    +0.055 C 
ATOM     36  C   UNL     1      -3.992   4.750   7.357  0.00  0.00    +0.055 C 
BRANCH  32  37
ATOM     37  O   UNL     1      -0.039  -1.381   4.755  0.00  0.00    -0.495 OA
ATOM     38  C   UNL     1       0.169  -2.583   5.500  0.00  0.00    +0.277 C 
ENDBRANCH  32  37
ENDBRANCH  23  25
ENDBRANCH  20  21
ENDBRANCH   1  20
TORSDOF 8
