REMARK  Name = ZINC34980212
REMARK  9 active torsions:
REMARK  status: ('A' for Active; 'I' for Inactive)
REMARK    1  A    between atoms: C_1  and  C_2
REMARK    2  A    between atoms: C_2  and  C_3
REMARK    3  A    between atoms: C_3  and  C_5
REMARK    4  A    between atoms: C_3  and  C_6
REMARK    5  A    between atoms: C_6  and  C_8
REMARK    6  A    between atoms: C_6  and  N_26
REMARK    7  A    between atoms: C_14  and  C_17
REMARK    8  A    between atoms: C_18  and  C_20
REMARK    9  A    between atoms: N_29  and  C_30
REMARK                            x       y       z     vdW  Elec       q    Type
REMARK                         _______ _______ _______ _____ _____    ______ ____
ROOT
ATOM      1  C   UNL     1       0.985  -3.179  -1.943  0.00  0.00    +0.163 C 
ENDROOT
BRANCH   1   2
ATOM      2  C   UNL     1      -0.485  -3.508  -1.895  0.00  0.00    +0.236 C 
ATOM      3  O   UNL     1      -0.914  -4.245  -1.033  0.00  0.00    -0.274 OA
ATOM      4  N   UNL     1      -1.323  -2.982  -2.811  0.00  0.00    -0.297 N 
ATOM      5  C   UNL     1      -0.835  -2.013  -3.802  0.00  0.00    +0.127 C 
ATOM      6  C   UNL     1      -1.691  -0.744  -3.709  0.00  0.00    +0.127 C 
ATOM      7  N   UNL     1      -3.108  -1.131  -3.735  0.00  0.00    -0.295 N 
ATOM      8  C   UNL     1      -3.596  -2.100  -2.743  0.00  0.00    +0.090 C 
ATOM      9  C   UNL     1      -2.739  -3.373  -2.840  0.00  0.00    +0.130 C 
ATOM     10  C   UNL     1      -3.482  -1.501  -1.340  0.00  0.00    +0.029 C 
ATOM     11  C   UNL     1      -3.946  -0.605  -4.650  0.00  0.00    +0.219 C 
ATOM     12  O   UNL     1      -5.137  -0.826  -4.580  0.00  0.00    -0.275 OA
BRANCH  11  13
ATOM     13  C   UNL     1      -3.404   0.256  -5.761  0.00  0.00    +0.075 C 
ATOM     14  C   UNL     1      -2.908   1.583  -5.182  0.00  0.00    +0.013 C 
ATOM     15  C   UNL     1      -2.357   2.458  -6.310  0.00  0.00    +0.001 C 
ATOM     16  C   UNL     1      -3.463   2.729  -7.332  0.00  0.00    +0.000 C 
ATOM     17  C   UNL     1      -3.959   1.403  -7.911  0.00  0.00    +0.001 C 
ATOM     18  C   UNL     1      -4.510   0.528  -6.783  0.00  0.00    +0.013 C 
ENDBRANCH  11  13
ENDBRANCH   1   2
BRANCH   1  19
ATOM     19  N   UNL     1       1.763  -4.367  -1.583  0.00  0.00    -0.288 N 
ATOM     20  C   UNL     1       3.031  -4.500  -2.019  0.00  0.00    +0.305 C 
ATOM     21  O   UNL     1       3.530  -3.634  -2.711  0.00  0.00    -0.252 OA
ATOM     22  N   UNL     1       3.746  -5.593  -1.687  0.00  0.00    -0.268 N 
ATOM     23  H   UNL     1       1.365  -5.058  -1.030  0.00  0.00    +0.151 HD
ATOM     24  H   UNL     1       3.332  -6.309  -1.180  0.00  0.00    +0.156 HD
BRANCH  22  25
ATOM     25  C   UNL     1       5.088  -5.696  -2.075  0.00  0.00    +0.055 A 
ATOM     26  C   UNL     1       5.531  -5.055  -3.224  0.00  0.00    +0.025 A 
ATOM     27  C   UNL     1       6.854  -5.158  -3.605  0.00  0.00    +0.003 A 
ATOM     28  C   UNL     1       7.740  -5.898  -2.843  0.00  0.00    +0.021 A 
ATOM     29  C   UNL     1       7.303  -6.539  -1.697  0.00  0.00    +0.061 A 
ATOM     30  C   UNL     1       5.979  -6.435  -1.308  0.00  0.00    +0.080 A 
ATOM     31 CL   UNL     1       5.432  -7.233   0.134  0.00  0.00    -0.080 Cl
ATOM     32 CL   UNL     1       8.418  -7.468  -0.744  0.00  0.00    -0.082 Cl
ENDBRANCH  22  25
ENDBRANCH   1  19
BRANCH   1  33
ATOM     33  C   UNL     1       1.288  -2.052  -0.954  0.00  0.00    +0.015 C 
ATOM     34  C   UNL     1       0.494  -0.804  -1.344  0.00  0.00    +0.010 C 
BRANCH  33  36
ATOM     35  C   UNL     1       1.305  -1.415   1.462  0.00  0.00    +0.004 C 
ATOM     36  C   UNL     1       0.888  -2.490   0.457  0.00  0.00    +0.002 C 
ENDBRANCH  33  36
ENDBRANCH   1  33
TORSDOF 6
