REMARK  Name = ZINC13032750
REMARK  9 active torsions:
REMARK  status: ('A' for Active; 'I' for Inactive)
REMARK    1  A    between atoms: C_1  and  C_2
REMARK    2  A    between atoms: C_7  and  C_14
REMARK    3  A    between atoms: C_14  and  N_60
REMARK    4  A    between atoms: C_15  and  C_16
REMARK    5  A    between atoms: C_15  and  N_60
REMARK    6  A    between atoms: C_23  and  C_24
REMARK    7  A    between atoms: C_23  and  N_60
REMARK    8  A    between atoms: N_28  and  C_29
REMARK    9  A    between atoms: C_29  and  C_30
REMARK                            x       y       z     vdW  Elec       q    Type
REMARK                         _______ _______ _______ _____ _____    ______ ____
ROOT
ATOM      1  N   UNL     1       1.575  -2.085  -1.325  0.00  0.00    +0.390 N 
ATOM      2  H   UNL     1       0.852  -1.855  -2.018  0.00  0.00    -0.080 HD
ENDROOT
BRANCH   1   3
ATOM      3  C   UNL     1       1.384  -3.481  -0.878  0.00  0.00    -0.036 C 
BRANCH   3  10
ATOM      4  C   UNL     1      -6.419  -5.134  -0.813  0.00  0.00    +0.044 C 
ATOM      5  C   UNL     1      -4.949  -4.901  -1.045  0.00  0.00    -0.048 A 
ATOM      6  C   UNL     1      -4.388  -5.220  -2.274  0.00  0.00    +0.004 A 
ATOM      7  C   UNL     1      -3.057  -5.016  -2.505  0.00  0.00    +0.010 A 
ATOM      8  C   UNL     1      -2.252  -4.481  -1.494  0.00  0.00    -0.001 A 
ATOM      9  C   UNL     1      -0.822  -4.251  -1.708  0.00  0.00    +0.017 A 
ATOM     10  C   UNL     1      -0.091  -3.731  -0.691  0.00  0.00    +0.001 A 
ATOM     11  C   UNL     1      -0.704  -3.428   0.543  0.00  0.00    +0.251 A 
ATOM     12  O   UNL     1      -0.028  -2.966   1.446  0.00  0.00    -0.268 OA
ATOM     13  N   UNL     1      -2.018  -3.631   0.747  0.00  0.00    -0.322 N 
ATOM     14  H   UNL     1      -2.409  -3.408   1.606  0.00  0.00    +0.169 HD
ATOM     15  C   UNL     1      -2.816  -4.157  -0.246  0.00  0.00    +0.049 A 
ATOM     16  C   UNL     1      -4.174  -4.373  -0.034  0.00  0.00    +0.029 A 
ENDBRANCH   3  10
ENDBRANCH   1   3
BRANCH   1  17
ATOM     17  C   UNL     1       2.905  -1.933  -1.951  0.00  0.00    -0.042 C 
BRANCH  17  18
ATOM     18  C   UNL     1       2.885  -2.602  -3.300  0.00  0.00    -0.064 A 
ATOM     19  C   UNL     1       3.363  -3.892  -3.438  0.00  0.00    +0.004 A 
ATOM     20  C   UNL     1       3.340  -4.509  -4.675  0.00  0.00    +0.038 A 
ATOM     21  C   UNL     1       2.849  -3.831  -5.778  0.00  0.00    +0.123 A 
ATOM     22  C   UNL     1       2.376  -2.537  -5.639  0.00  0.00    +0.038 A 
ATOM     23  C   UNL     1       2.394  -1.924  -4.401  0.00  0.00    +0.004 A 
ATOM     24  F   UNL     1       2.832  -4.431  -6.988  0.00  0.00    -0.205 F 
ENDBRANCH  17  18
ENDBRANCH   1  17
BRANCH   1  25
ATOM     25  C   UNL     1       1.448  -1.165  -0.176  0.00  0.00    +0.001 C 
BRANCH  25  26
ATOM     26  C   UNL     1       1.492   0.255  -0.681  0.00  0.00    +0.135 A 
ATOM     27  N   UNL     1       2.565   0.972  -0.908  0.00  0.00    -0.115 NA
ATOM     28  N   UNL     1       2.188   2.129  -1.332  0.00  0.00    -0.023 NA
ATOM     29  N   UNL     1       0.902   2.168  -1.381  0.00  0.00    -0.044 NA
ATOM     30  N   UNL     1       0.436   1.031  -0.987  0.00  0.00    -0.227 N 
BRANCH  30  31
ATOM     31  C   UNL     1      -0.977   0.656  -0.892  0.00  0.00    +0.182 C 
BRANCH  31  32
ATOM     32  C   UNL     1      -1.471   0.211  -2.244  0.00  0.00    -0.026 A 
ATOM     33  C   UNL     1      -1.916   1.148  -3.159  0.00  0.00    +0.008 A 
ATOM     34  C   UNL     1      -2.365   0.742  -4.402  0.00  0.00    +0.038 A 
ATOM     35  C   UNL     1      -2.379  -0.605  -4.726  0.00  0.00    +0.123 A 
ATOM     36  C   UNL     1      -1.939  -1.542  -3.807  0.00  0.00    +0.038 A 
ATOM     37  C   UNL     1      -1.485  -1.133  -2.567  0.00  0.00    +0.008 A 
ATOM     38  F   UNL     1      -2.822  -1.003  -5.938  0.00  0.00    -0.205 F 
ENDBRANCH  31  32
ENDBRANCH  30  31
ENDBRANCH  25  26
ENDBRANCH   1  25
TORSDOF 8
