REMARK  Name = ZINC09291036
REMARK  8 active torsions:
REMARK  status: ('A' for Active; 'I' for Inactive)
REMARK    1  A    between atoms: C_4  and  C_7
REMARK    2  A    between atoms: C_7  and  O_8
REMARK    3  A    between atoms: O_8  and  C_9
REMARK    4  A    between atoms: C_12  and  C_15
REMARK    5  A    between atoms: C_22  and  N_36
REMARK    6  A    between atoms: C_23  and  C_34
REMARK    7  A    between atoms: C_24  and  C_26
REMARK    8  A    between atoms: C_31  and  O_32
REMARK                            x       y       z     vdW  Elec       q    Type
REMARK                         _______ _______ _______ _____ _____    ______ ____
ROOT
ATOM      1  C   UNL     1       9.358  -4.030   2.143  0.00  0.00    +0.100 A 
ATOM      2  C   UNL     1      10.214  -3.488   3.106  0.00  0.00    +0.054 A 
ATOM      3  C   UNL     1      11.367  -4.218   3.106  0.00  0.00    +0.223 A 
ATOM      4  N   UNL     1      11.239  -5.187   2.175  0.00  0.00    -0.246 N 
ATOM      5  H   UNL     1      11.904  -5.858   1.955  0.00  0.00    +0.192 HD
ATOM      6  N   UNL     1       9.972  -5.056   1.586  0.00  0.00    -0.171 NA
ATOM      7  O   UNL     1      12.408  -3.943   3.931  0.00  0.00    -0.423 OA
ATOM      8  C   UNL     1      12.400  -2.758   4.573  0.00  0.00    +0.200 C 
ATOM      9  C   UNL     1      11.317  -1.954   4.654  0.00  0.00    +0.098 C 
ATOM     10  C   UNL     1       9.994  -2.314   4.026  0.00  0.00    +0.105 C 
ENDROOT
BRANCH  10  11
ATOM     11  C   UNL     1       9.006  -2.689   5.101  0.00  0.00    +0.008 A 
ATOM     12  C   UNL     1       9.221  -3.812   5.876  0.00  0.00    +0.028 A 
ATOM     13  C   UNL     1       8.315  -4.156   6.863  0.00  0.00    +0.041 A 
ATOM     14  C   UNL     1       7.191  -3.377   7.075  0.00  0.00    +0.023 A 
ATOM     15  C   UNL     1       6.973  -2.254   6.302  0.00  0.00    +0.047 A 
ATOM     16  C   UNL     1       7.883  -1.904   5.316  0.00  0.00    +0.121 A 
ATOM     17 CL   UNL     1       8.588  -5.568   7.836  0.00  0.00    -0.084 Cl
BRANCH  16  18
ATOM     18  O   UNL     1       7.673  -0.795   4.558  0.00  0.00    -0.506 OA
ATOM     19  H   UNL     1       7.091  -0.942   3.800  0.00  0.00    +0.292 HD
ENDBRANCH  16  18
ENDBRANCH  10  11
BRANCH   1  23
ATOM     20  C   UNL     1       5.454  -2.630   1.193  0.00  0.00    +0.121 A 
ATOM     21  C   UNL     1       5.693  -3.993   1.306  0.00  0.00    +0.046 A 
ATOM     22  C   UNL     1       6.958  -4.450   1.614  0.00  0.00    +0.013 A 
ATOM     23  C   UNL     1       7.996  -3.542   1.811  0.00  0.00    +0.003 A 
ATOM     24  C   UNL     1       7.753  -2.174   1.697  0.00  0.00    +0.013 A 
ATOM     25  C   UNL     1       6.488  -1.723   1.384  0.00  0.00    +0.046 A 
BRANCH  20  26
ATOM     26  O   UNL     1       4.208  -2.183   0.889  0.00  0.00    -0.487 OA
BRANCH  26  27
ATOM     27  C   UNL     1       3.191  -3.170   0.706  0.00  0.00    +0.264 C 
BRANCH  27  31
ATOM     28  C   UNL     1      -0.510  -1.251  -0.223  0.00  0.00    +0.000 A 
ATOM     29  C   UNL     1       0.353  -1.616  -1.239  0.00  0.00    +0.000 A 
ATOM     30  C   UNL     1       1.551  -2.237  -0.938  0.00  0.00    +0.007 A 
ATOM     31  C   UNL     1       1.886  -2.493   0.379  0.00  0.00    -0.010 A 
ATOM     32  C   UNL     1       1.023  -2.127   1.395  0.00  0.00    +0.007 A 
ATOM     33  C   UNL     1      -0.176  -1.507   1.094  0.00  0.00    +0.000 A 
ENDBRANCH  27  31
ENDBRANCH  26  27
ENDBRANCH  20  26
ENDBRANCH   1  23
BRANCH   8  34
ATOM     34  N   UNL     1      13.559  -2.344   5.181  0.00  0.00    -0.328 N 
ATOM     35  H   UNL     1      14.353  -2.900   5.141  0.00  0.00    +0.145 HD
ATOM     36  H   UNL     1      13.584  -1.496   5.651  0.00  0.00    +0.145 HD
ENDBRANCH   8  34
BRANCH   9  37
ATOM     37  C   UNL     1      11.429  -0.714   5.362  0.00  0.00    +0.101 C 
ATOM     38  N   UNL     1      11.518   0.270   5.923  0.00  0.00    -0.191 NA
ENDBRANCH   9  37
TORSDOF 8
