REMARK  Name = ZINC39764420
REMARK  8 active torsions:
REMARK  status: ('A' for Active; 'I' for Inactive)
REMARK    1  A    between atoms: C_1  and  C_2
REMARK    2  A    between atoms: C_2  and  C_3
REMARK    3  A    between atoms: C_2  and  C_4
REMARK    4  A    between atoms: C_2  and  O_20
REMARK    5  A    between atoms: N_6  and  N_7
REMARK    6  A    between atoms: C_8  and  C_9
REMARK    7  A    between atoms: C_18  and  O_19
REMARK    8  A    between atoms: O_20  and  C_21
REMARK                            x       y       z     vdW  Elec       q    Type
REMARK                         _______ _______ _______ _____ _____    ______ ____
ROOT
ATOM      1  C   UNL     1      -1.153  -0.353   0.535  0.00  0.00    +0.275 C 
ATOM      2  O   UNL     1      -1.928  -0.947  -0.185  0.00  0.00    -0.270 OA
ATOM      3  N   UNL     1      -1.536   0.028   1.770  0.00  0.00    -0.204 N 
ATOM      4  H   UNL     1      -0.917   0.503   2.345  0.00  0.00    +0.177 HD
ENDROOT
BRANCH   1   6
ATOM      5  C   UNL     1       0.453   1.474   0.051  0.00  0.00    +0.065 C 
ATOM      6  C   UNL     1       0.239  -0.041   0.049  0.00  0.00    +0.182 C 
ATOM      7  C   UNL     1       1.263  -0.702   0.974  0.00  0.00    +0.065 C 
BRANCH   6   8
ATOM      8  O   UNL     1       0.404  -0.543  -1.279  0.00  0.00    -0.477 OA
BRANCH   8   9
ATOM      9  C   UNL     1       0.266  -1.884  -1.453  0.00  0.00    +0.122 A 
ATOM     10  C   UNL     1      -0.146  -2.683  -0.397  0.00  0.00    +0.047 A 
ATOM     11  C   UNL     1      -0.286  -4.046  -0.576  0.00  0.00    +0.023 A 
ATOM     12  C   UNL     1      -0.014  -4.614  -1.808  0.00  0.00    +0.041 A 
ATOM     13  C   UNL     1       0.398  -3.819  -2.863  0.00  0.00    +0.023 A 
ATOM     14  C   UNL     1       0.532  -2.455  -2.689  0.00  0.00    +0.047 A 
ATOM     15 CL   UNL     1      -0.189  -6.327  -2.030  0.00  0.00    -0.084 Cl
ENDBRANCH   8   9
ENDBRANCH   6   8
ENDBRANCH   1   6
BRANCH   3  16
ATOM     16  N   UNL     1      -2.830  -0.262   2.221  0.00  0.00    -0.187 NA
ATOM     17  C   UNL     1      -3.201   0.105   3.412  0.00  0.00    +0.142 C 
BRANCH  17  18
ATOM     18  C   UNL     1      -4.558  -0.199   3.886  0.00  0.00    +0.044 A 
ATOM     19  C   UNL     1      -4.993   0.212   5.220  0.00  0.00    -0.006 A 
ATOM     20  C   UNL     1      -4.138   0.904   6.086  0.00  0.00    +0.009 A 
ATOM     21  C   UNL     1      -4.583   1.270   7.322  0.00  0.00    +0.001 A 
ATOM     22  C   UNL     1      -5.877   0.964   7.735  0.00  0.00    +0.001 A 
ATOM     23  C   UNL     1      -6.734   0.292   6.918  0.00  0.00    +0.008 A 
ATOM     24  C   UNL     1      -6.309  -0.101   5.637  0.00  0.00    -0.017 A 
ATOM     25  C   UNL     1      -7.167  -0.795   4.766  0.00  0.00    +0.012 A 
ATOM     26  C   UNL     1      -6.746  -1.169   3.528  0.00  0.00    +0.046 A 
ATOM     27  C   UNL     1      -5.461  -0.881   3.071  0.00  0.00    +0.126 A 
BRANCH  27  28
ATOM     28  O   UNL     1      -5.086  -1.269   1.825  0.00  0.00    -0.506 OA
ATOM     29  H   UNL     1      -4.691  -2.151   1.791  0.00  0.00    +0.292 HD
ENDBRANCH  27  28
ENDBRANCH  17  18
ENDBRANCH   3  16
TORSDOF 6
