REMARK  Name = ZINC39992403
REMARK  9 active torsions:
REMARK  status: ('A' for Active; 'I' for Inactive)
REMARK    1  A    between atoms: C_1  and  O_2
REMARK    2  A    between atoms: O_2  and  C_3
REMARK    3  A    between atoms: C_3  and  C_4
REMARK    4  A    between atoms: C_4  and  N_5
REMARK    5  A    between atoms: C_6  and  C_8
REMARK    6  A    between atoms: C_10  and  N_19
REMARK    7  A    between atoms: C_20  and  C_22
REMARK    8  A    between atoms: C_22  and  C_33
REMARK    9  A    between atoms: C_23  and  C_24
REMARK                            x       y       z     vdW  Elec       q    Type
REMARK                         _______ _______ _______ _____ _____    ______ ____
ROOT
ATOM      1  N   UNL     1       1.677  -2.459  -2.667  0.00  0.00    -0.298 N 
ATOM      2  C   UNL     1       1.800  -1.380  -3.466  0.00  0.00    +0.255 C 
ATOM      3  O   UNL     1       2.561  -1.409  -4.414  0.00  0.00    -0.269 OA
ATOM      4  H   UNL     1       1.020  -2.462  -1.954  0.00  0.00    +0.150 HD
ENDROOT
BRANCH   1   6
ATOM      5  C   UNL     1       3.131  -4.141  -1.543  0.00  0.00    +0.132 C 
ATOM      6  C   UNL     1       2.536  -3.627  -2.876  0.00  0.00    +0.152 C 
ATOM      7  S   UNL     1       1.554  -5.116  -3.337  0.00  0.00    -0.106 S 
ATOM      8  C   UNL     1       2.434  -6.316  -2.364  0.00  0.00    -0.013 C 
ATOM      9  C   UNL     1       3.194  -5.647  -1.509  0.00  0.00    -0.046 C 
ATOM     10  C   UNL     1       4.103  -6.383  -0.526  0.00  0.00    +0.032 C 
ATOM     11  C   UNL     1       3.624  -7.827  -0.387  0.00  0.00    +0.005 C 
ATOM     12  C   UNL     1       3.498  -8.461  -1.776  0.00  0.00    +0.005 C 
ATOM     13  C   UNL     1       2.322  -7.809  -2.499  0.00  0.00    +0.042 C 
BRANCH   5  15
ATOM     14  N   UNL     1       2.523  -2.466   0.172  0.00  0.00    -0.313 N 
ATOM     15  C   UNL     1       2.272  -3.659  -0.403  0.00  0.00    +0.223 C 
ATOM     16  O   UNL     1       1.356  -4.344  -0.002  0.00  0.00    -0.275 OA
ATOM     17  H   UNL     1       3.208  -1.885  -0.195  0.00  0.00    +0.149 HD
BRANCH  14  18
ATOM     18  C   UNL     1       1.760  -2.045   1.350  0.00  0.00    +0.132 C 
BRANCH  18  19
ATOM     19  C   UNL     1       2.319  -0.721   1.874  0.00  0.00    +0.178 C 
BRANCH  19  21
ATOM     20  C   UNL     1       2.701   1.559   1.240  0.00  0.00    +0.194 C 
ATOM     21  O   UNL     1       2.115   0.302   0.897  0.00  0.00    -0.381 OA
ENDBRANCH  19  21
ENDBRANCH  18  19
ENDBRANCH  14  18
ENDBRANCH   5  15
ENDBRANCH   1   6
BRANCH   2  22
ATOM     22  C   UNL     1       1.013  -0.165  -3.190  0.00  0.00    +0.114 C 
ATOM     23  C   UNL     1       1.082   0.916  -4.053  0.00  0.00    +0.030 C 
BRANCH  23  24
ATOM     24  C   UNL     1       0.437   2.115  -3.728  0.00  0.00    -0.018 C 
ATOM     25  C   UNL     1       0.327   3.253  -4.518  0.00  0.00    +0.003 A 
ATOM     26  C   UNL     1       0.789   3.570  -5.814  0.00  0.00    +0.010 A 
ATOM     27  C   UNL     1       0.533   4.785  -6.352  0.00  0.00    +0.001 A 
ATOM     28  C   UNL     1      -0.189   5.772  -5.668  0.00  0.00    +0.002 A 
ATOM     29  C   UNL     1      -0.675   5.567  -4.422  0.00  0.00    +0.026 A 
ATOM     30  C   UNL     1      -0.439   4.273  -3.767  0.00  0.00    +0.043 A 
ATOM     31  N   UNL     1      -0.787   3.814  -2.594  0.00  0.00    -0.380 N 
ATOM     32  C   UNL     1      -0.294   2.441  -2.444  0.00  0.00    +0.149 C 
ATOM     33  H   UNL     1      -1.294   4.303  -1.928  0.00  0.00    +0.160 HD
ENDBRANCH  23  24
BRANCH  22  34
ATOM     34  C   UNL     1       0.176  -0.103  -2.029  0.00  0.00    +0.104 C 
ATOM     35  N   UNL     1      -0.488  -0.053  -1.109  0.00  0.00    -0.191 NA
ENDBRANCH  22  34
ENDBRANCH   2  22
TORSDOF 8
