REMARK  Name = ZINC33436928
REMARK  8 active torsions:
REMARK  status: ('A' for Active; 'I' for Inactive)
REMARK    1  A    between atoms: C_1  and  C_2
REMARK    2  A    between atoms: C_2  and  C_3
REMARK    3  A    between atoms: C_2  and  C_4
REMARK    4  A    between atoms: C_4  and  C_5
REMARK    5  A    between atoms: C_5  and  C_32
REMARK    6  A    between atoms: C_10  and  C_13
REMARK    7  A    between atoms: C_18  and  O_19
REMARK    8  A    between atoms: N_23  and  C_26
REMARK                            x       y       z     vdW  Elec       q    Type
REMARK                         _______ _______ _______ _____ _____    ______ ____
ROOT
ATOM      1  C   UNL     1      -1.666  -2.091  -0.015  0.00  0.00    +0.048 C 
ATOM      2  C   UNL     1      -3.068  -2.710   0.168  0.00  0.00    +0.086 C 
ATOM      3  C   UNL     1      -2.814  -4.067   0.878  0.00  0.00    +0.077 C 
ATOM      4  C   UNL     1      -1.282  -4.147   1.042  0.00  0.00    -0.023 C 
ATOM      5  N   UNL     1      -0.833  -2.724   1.039  0.00  0.00    +0.396 N 
ATOM      6  C   UNL     1      -3.464  -3.881   2.230  0.00  0.00    +0.225 C 
ATOM      7  O   UNL     1      -3.498  -4.713   3.112  0.00  0.00    -0.275 OA
ATOM      8  N   UNL     1      -3.996  -2.656   2.302  0.00  0.00    -0.239 N 
ATOM      9  C   UNL     1      -3.838  -1.903   1.189  0.00  0.00    +0.225 C 
ATOM     10  O   UNL     1      -4.241  -0.771   1.028  0.00  0.00    -0.275 OA
ATOM     11  H   UNL     1       0.145  -2.668   0.797  0.00  0.00    -0.083 HD
ATOM     12  H   UNL     1      -1.004  -2.289   1.933  0.00  0.00    -0.083 HD
ENDROOT
BRANCH   4  13
ATOM     13  C   UNL     1      -0.927  -4.793   2.357  0.00  0.00    -0.018 A 
ATOM     14  C   UNL     1      -0.678  -4.009   3.467  0.00  0.00    +0.025 A 
ATOM     15  C   UNL     1      -0.352  -4.601   4.674  0.00  0.00    +0.041 A 
ATOM     16  C   UNL     1      -0.277  -5.979   4.773  0.00  0.00    +0.023 A 
ATOM     17  C   UNL     1      -0.526  -6.766   3.666  0.00  0.00    +0.047 A 
ATOM     18  C   UNL     1      -0.858  -6.174   2.455  0.00  0.00    +0.119 A 
ATOM     19 CL   UNL     1      -0.038  -3.613   6.067  0.00  0.00    -0.084 Cl
BRANCH  18  20
ATOM     20  O   UNL     1      -1.109  -6.948   1.366  0.00  0.00    -0.507 OA
ATOM     21  H   UNL     1      -0.326  -7.144   0.834  0.00  0.00    +0.292 HD
ENDBRANCH  18  20
ENDBRANCH   4  13
BRANCH   8  22
ATOM     22  C   UNL     1      -4.702  -2.167   3.490  0.00  0.00    +0.084 C 
ATOM     23  C   UNL     1      -5.905  -3.068   3.775  0.00  0.00    +0.023 C 
ATOM     24  C   UNL     1      -6.641  -2.557   5.015  0.00  0.00    +0.002 C 
ATOM     25  C   UNL     1      -5.693  -2.577   6.216  0.00  0.00    +0.000 C 
ATOM     26  C   UNL     1      -4.490  -1.676   5.930  0.00  0.00    +0.002 C 
ATOM     27  C   UNL     1      -3.754  -2.187   4.690  0.00  0.00    +0.023 C 
ENDBRANCH   8  22
BRANCH   1  28
ATOM     28  C   UNL     1      -1.121  -2.416  -1.382  0.00  0.00    +0.346 C 
ATOM     29  O   UNL     1      -0.165  -3.164  -1.494  0.00  0.00    -0.248 OA
ATOM     30  O   UNL     1      -1.635  -1.930  -2.375  0.00  0.00    -0.248 OA
ENDBRANCH   1  28
BRANCH   1  31
ATOM     31  C   UNL     1      -1.722  -0.576   0.189  0.00  0.00    +0.002 C 
BRANCH  31  33
ATOM     32  C   UNL     1       0.378  -0.160  -1.099  0.00  0.00    +0.007 C 
ATOM     33  C   UNL     1      -0.299  -0.018   0.265  0.00  0.00    -0.018 C 
ATOM     34  C   UNL     1      -0.351   1.460   0.658  0.00  0.00    +0.007 C 
ENDBRANCH  31  33
ENDBRANCH   1  31
TORSDOF 6
