REMARK  Name = ZINC08789964
REMARK  7 active torsions:
REMARK  status: ('A' for Active; 'I' for Inactive)
REMARK    1  A    between atoms: C_1  and  C_2
REMARK    2  A    between atoms: C_7  and  C_8
REMARK    3  A    between atoms: C_17  and  C_19
REMARK    4  A    between atoms: C_19  and  C_20
REMARK    5  A    between atoms: N_28  and  C_31
REMARK    6  A    between atoms: C_31  and  C_32
REMARK    7  A    between atoms: C_32  and  C_33
REMARK                            x       y       z     vdW  Elec       q    Type
REMARK                         _______ _______ _______ _____ _____    ______ ____
ROOT
ATOM      1  C   UNL     1       4.675   0.848   5.630  0.00  0.00    +0.044 C 
ATOM      2  C   UNL     1       3.775   1.240   4.487  0.00  0.00    -0.046 A 
ATOM      3  C   UNL     1       2.700   0.437   4.150  0.00  0.00    +0.004 A 
ATOM      4  C   UNL     1       1.874   0.797   3.100  0.00  0.00    +0.005 A 
ATOM      5  C   UNL     1       2.121   1.953   2.393  0.00  0.00    -0.027 A 
ATOM      6  C   UNL     1       3.199   2.769   2.725  0.00  0.00    +0.039 A 
ATOM      7  C   UNL     1       4.026   2.399   3.783  0.00  0.00    -0.026 A 
ATOM      8  C   UNL     1       5.199   3.267   4.158  0.00  0.00    +0.046 C 
ATOM      9  N   UNL     1       3.245   3.877   1.875  0.00  0.00    -0.286 N 
ATOM     10  C   UNL     1       2.248   3.864   0.970  0.00  0.00    +0.211 C 
ATOM     11  O   UNL     1       2.038   4.695   0.112  0.00  0.00    -0.277 OA
ATOM     12  C   UNL     1       1.443   2.620   1.230  0.00  0.00    +0.050 C 
ATOM     13  C   UNL     1       1.412   1.708  -0.002  0.00  0.00    +0.088 C 
ATOM     14  C   UNL     1      -0.013   1.086   0.008  0.00  0.00    +0.073 C 
ATOM     15  C   UNL     1      -0.688   1.663   1.270  0.00  0.00    -0.053 C 
ATOM     16  C   UNL     1      -0.656   1.666  -1.231  0.00  0.00    +0.224 C 
ATOM     17  O   UNL     1      -1.790   1.446  -1.600  0.00  0.00    -0.275 OA
ATOM     18  N   UNL     1       0.221   2.459  -1.857  0.00  0.00    -0.241 N 
ATOM     19  C   UNL     1       1.413   2.552  -1.257  0.00  0.00    +0.225 C 
ATOM     20  O   UNL     1       2.349   3.211  -1.657  0.00  0.00    -0.275 OA
ATOM     21  H   UNL     1       3.918   4.574   1.930  0.00  0.00    +0.155 HD
ATOM     22  N   UNL     1       0.051   2.908   1.521  0.00  0.00    +0.394 N 
ATOM     23  H   UNL     1      -0.293   3.656   0.908  0.00  0.00    -0.083 HD
ATOM     24  H   UNL     1      -0.056   3.193   2.502  0.00  0.00    -0.083 HD
ENDROOT
BRANCH  15  25
ATOM     25  C   UNL     1      -2.166   1.953   0.997  0.00  0.00    +0.020 C 
BRANCH  25  26
ATOM     26  C   UNL     1      -2.834   2.398   2.272  0.00  0.00    -0.049 A 
ATOM     27  C   UNL     1      -3.416   1.466   3.109  0.00  0.00    +0.003 A 
ATOM     28  C   UNL     1      -4.025   1.874   4.282  0.00  0.00    +0.000 A 
ATOM     29  C   UNL     1      -4.061   3.216   4.611  0.00  0.00    +0.000 A 
ATOM     30  C   UNL     1      -3.483   4.149   3.771  0.00  0.00    +0.000 A 
ATOM     31  C   UNL     1      -2.870   3.740   2.601  0.00  0.00    +0.003 A 
ENDBRANCH  25  26
ENDBRANCH  15  25
BRANCH  18  32
ATOM     32  C   UNL     1      -0.098   3.168  -3.099  0.00  0.00    +0.121 C 
BRANCH  32  33
ATOM     33  C   UNL     1       0.264   2.288  -4.296  0.00  0.00    +0.054 C 
BRANCH  33  34
ATOM     34  C   UNL     1      -0.065   3.017  -5.574  0.00  0.00    -0.046 A 
ATOM     35  C   UNL     1      -1.314   2.876  -6.148  0.00  0.00    +0.004 A 
ATOM     36  C   UNL     1      -1.617   3.549  -7.317  0.00  0.00    +0.000 A 
ATOM     37  C   UNL     1      -0.667   4.355  -7.917  0.00  0.00    +0.000 A 
ATOM     38  C   UNL     1       0.584   4.492  -7.345  0.00  0.00    +0.000 A 
ATOM     39  C   UNL     1       0.885   3.823  -6.173  0.00  0.00    +0.004 A 
ENDBRANCH  33  34
ENDBRANCH  32  33
ENDBRANCH  18  32
TORSDOF 5
