REMARK  Name = ZINC28175635
REMARK  13 active torsions:
REMARK  status: ('A' for Active; 'I' for Inactive)
REMARK    1  A    between atoms: C_1  and  C_2
REMARK    2  A    between atoms: C_2  and  O_3
REMARK    3  A    between atoms: O_3  and  C_4
REMARK    4  A    between atoms: C_4  and  C_6
REMARK    5  A    between atoms: C_7  and  C_31
REMARK    6  A    between atoms: C_8  and  C_26
REMARK    7  A    between atoms: C_10  and  N_11
REMARK    8  A    between atoms: C_12  and  C_14
REMARK    9  A    between atoms: C_14  and  C_16
REMARK   10  A    between atoms: C_14  and  N_17
REMARK   11  A    between atoms: C_26  and  O_28
REMARK   12  A    between atoms: O_28  and  C_29
REMARK   13  A    between atoms: C_29  and  C_30
REMARK                            x       y       z     vdW  Elec       q    Type
REMARK                         _______ _______ _______ _____ _____    ______ ____
ROOT
ATOM      1  C   UNL     1      -1.944   4.357   3.573  0.00  0.00    +0.091 A 
ATOM      2  C   UNL     1      -2.582   4.302   4.803  0.00  0.00    -0.014 A 
ATOM      3  C   UNL     1      -2.829   3.065   5.336  0.00  0.00    +0.102 A 
ATOM      4  S   UNL     1      -2.165   1.966   4.099  0.00  0.00    -0.066 S 
ATOM      5  C   UNL     1      -1.597   3.146   2.965  0.00  0.00    +0.087 A 
ATOM      6  C   UNL     1      -2.990   5.559   5.527  0.00  0.00    +0.046 C 
ENDROOT
BRANCH   5   7
ATOM      7  N   UNL     1      -0.963   2.942   1.755  0.00  0.00    -0.281 N 
ATOM      8  C   UNL     1      -0.710   1.688   1.330  0.00  0.00    +0.204 C 
ATOM      9  O   UNL     1      -1.039   0.739   2.010  0.00  0.00    -0.277 OA
ATOM     10  H   UNL     1      -0.664   3.802   1.138  0.00  0.00    +0.155 HD
BRANCH   8  11
ATOM     11  C   UNL     1      -0.018   1.465   0.010  0.00  0.00    +0.017 C 
ATOM     12  C   UNL     1       1.442   1.910   0.118  0.00  0.00    -0.004 C 
BRANCH  11  13
ATOM     13  N   UNL     1      -0.070   0.038  -0.335  0.00  0.00    +0.390 N 
ATOM     14  C   UNL     1       0.769  -0.755   0.574  0.00  0.00    -0.072 C 
ATOM     15  C   UNL     1       0.372  -2.236   0.450  0.00  0.00    +0.024 C 
ATOM     16  C   UNL     1       0.278  -2.562  -1.005  0.00  0.00    -0.011 A 
ATOM     17  C   UNL     1       0.238  -1.673  -2.036  0.00  0.00    -0.054 A 
ATOM     18  C   UNL     1       0.152  -2.211  -3.318  0.00  0.00    +0.009 A 
ATOM     19  C   UNL     1       0.112  -3.553  -3.488  0.00  0.00    +0.045 A 
ATOM     20  S   UNL     1       0.196  -4.140  -1.802  0.00  0.00    -0.101 S 
ATOM     21  C   UNL     1       0.287  -0.176  -1.743  0.00  0.00    -0.041 C 
ATOM     22  H   UNL     1      -1.106  -0.310  -0.208  0.00  0.00    -0.080 HD
ENDBRANCH  11  13
ENDBRANCH   8  11
ENDBRANCH   5   7
BRANCH   1  23
ATOM     23  C   UNL     1      -1.642   5.642   2.932  0.00  0.00    +0.342 C 
ATOM     24  O   UNL     1      -2.451   6.152   2.181  0.00  0.00    -0.245 OA
BRANCH  23  25
ATOM     25  O   UNL     1      -0.468   6.258   3.177  0.00  0.00    -0.461 OA
BRANCH  25  27
ATOM     26  C   UNL     1       1.137   8.070   2.906  0.00  0.00    +0.048 C 
ATOM     27  C   UNL     1      -0.237   7.527   2.509  0.00  0.00    +0.229 C 
ENDBRANCH  25  27
ENDBRANCH  23  25
ENDBRANCH   1  23
BRANCH   3  28
ATOM     28  C   UNL     1      -3.479   2.729   6.602  0.00  0.00    +0.346 C 
ATOM     29  O   UNL     1      -3.881   3.615   7.332  0.00  0.00    -0.244 OA
BRANCH  28  30
ATOM     30  O   UNL     1      -3.633   1.438   6.960  0.00  0.00    -0.461 OA
BRANCH  30  31
ATOM     31  C   UNL     1      -4.277   1.183   8.210  0.00  0.00    +0.229 C 
ATOM     32  C   UNL     1      -4.360  -0.327   8.442  0.00  0.00    +0.048 C 
ENDBRANCH  30  31
ENDBRANCH  28  30
ENDBRANCH   3  28
TORSDOF 9
