REMARK  Name = ZINC39891899
REMARK  6 active torsions:
REMARK  status: ('A' for Active; 'I' for Inactive)
REMARK    1  A    between atoms: C_1  and  C_2
REMARK    2  A    between atoms: C_5  and  N_8
REMARK    3  A    between atoms: C_12  and  S_16
REMARK    4  A    between atoms: S_16  and  C_17
REMARK    5  A    between atoms: C_20  and  C_22
REMARK    6  A    between atoms: C_27  and  N_28
REMARK                            x       y       z     vdW  Elec       q    Type
REMARK                         _______ _______ _______ _____ _____    ______ ____
ROOT
ATOM      1  S   UNL     1      -1.321  -7.290   1.478  0.00  0.00    -0.052 S 
ENDROOT
BRANCH   1   6
ATOM      2  N   UNL     1      -0.228  -4.188  -0.089  0.00  0.00    -0.209 N 
ATOM      3  C   UNL     1      -0.256  -4.933  -1.202  0.00  0.00    +0.228 C 
ATOM      4  O   UNL     1      -0.388  -4.506  -2.329  0.00  0.00    -0.275 OA
ATOM      5  C   UNL     1      -0.095  -6.390  -0.830  0.00  0.00    +0.120 C 
ATOM      6  C   UNL     1       0.032  -6.359   0.707  0.00  0.00    +0.151 C 
ATOM      7  C   UNL     1      -0.065  -4.887   1.041  0.00  0.00    +0.240 C 
ATOM      8  O   UNL     1      -0.007  -4.414   2.156  0.00  0.00    -0.274 OA
BRANCH   2  13
ATOM      9  C   UNL     1      -0.737   1.464  -0.163  0.00  0.00    +0.044 C 
ATOM     10  C   UNL     1      -0.602  -0.037  -0.143  0.00  0.00    -0.050 A 
ATOM     11  C   UNL     1       0.599  -0.617   0.223  0.00  0.00    +0.005 A 
ATOM     12  C   UNL     1       0.725  -1.992   0.242  0.00  0.00    +0.024 A 
ATOM     13  C   UNL     1      -0.354  -2.792  -0.107  0.00  0.00    +0.044 A 
ATOM     14  C   UNL     1      -1.558  -2.207  -0.474  0.00  0.00    +0.024 A 
ATOM     15  C   UNL     1      -1.681  -0.831  -0.486  0.00  0.00    +0.005 A 
ENDBRANCH   2  13
ENDBRANCH   1   6
BRANCH   1  16
ATOM     16  C   UNL     1      -0.929  -7.267   3.196  0.00  0.00    +0.278 A 
ATOM     17  N   UNL     1       0.113  -6.690   3.747  0.00  0.00    -0.101 NA
ATOM     18  N   UNL     1       0.081  -6.873   5.020  0.00  0.00    -0.106 NA
ATOM     19  C   UNL     1      -0.982  -7.574   5.333  0.00  0.00    +0.251 A 
ATOM     20  O   UNL     1      -1.646  -7.834   4.185  0.00  0.00    -0.411 OA
BRANCH  19  21
ATOM     21  C   UNL     1      -1.382  -7.998   6.689  0.00  0.00    +0.059 A 
ATOM     22  C   UNL     1      -1.361  -7.084   7.744  0.00  0.00    +0.015 A 
ATOM     23  C   UNL     1      -1.737  -7.486   9.009  0.00  0.00    +0.001 A 
ATOM     24  C   UNL     1      -2.134  -8.792   9.239  0.00  0.00    +0.002 A 
ATOM     25  C   UNL     1      -2.159  -9.707   8.204  0.00  0.00    +0.023 A 
ATOM     26  C   UNL     1      -1.790  -9.319   6.924  0.00  0.00    +0.037 A 
BRANCH  26  27
ATOM     27  N   UNL     1      -1.821 -10.239   5.877  0.00  0.00    -0.357 N 
ATOM     28  H   UNL     1      -1.474  -9.993   5.005  0.00  0.00    +0.142 HD
ATOM     29  H   UNL     1      -2.188 -11.125   6.020  0.00  0.00    +0.142 HD
ENDBRANCH  26  27
ENDBRANCH  19  21
ENDBRANCH   1  16
TORSDOF 5
