REMARK  Name = ZINC39431132
REMARK  7 active torsions:
REMARK  status: ('A' for Active; 'I' for Inactive)
REMARK    1  A    between atoms: C_1  and  C_2
REMARK    2  A    between atoms: C_2  and  C_4
REMARK    3  A    between atoms: C_2  and  S_16
REMARK    4  A    between atoms: S_16  and  C_17
REMARK    5  A    between atoms: C_21  and  C_31
REMARK    6  A    between atoms: N_23  and  C_24
REMARK    7  A    between atoms: C_24  and  C_25
REMARK                            x       y       z     vdW  Elec       q    Type
REMARK                         _______ _______ _______ _____ _____    ______ ____
ROOT
ATOM      1  C   UNL     1      -2.511  -0.356  -1.443  0.00  0.00    +0.257 C 
ATOM      2  N   UNL     1      -2.153   1.069  -1.457  0.00  0.00    -0.184 NA
ATOM      3  N   UNL     1      -1.641   1.390  -2.534  0.00  0.00    -0.289 N 
ATOM      4  C   UNL     1      -1.558   0.242  -3.446  0.00  0.00    +0.203 C 
ATOM      5  N   UNL     1      -1.762  -0.948  -2.579  0.00  0.00    -0.242 NA
ATOM      6  H   UNL     1      -1.333   2.284  -2.749  0.00  0.00    +0.184 HD
ENDROOT
BRANCH   4   7
ATOM      7  C   UNL     1      -2.643   0.322  -4.490  0.00  0.00    +0.009 A 
ATOM      8  C   UNL     1      -3.836  -0.350  -4.301  0.00  0.00    +0.008 A 
ATOM      9  C   UNL     1      -4.830  -0.277  -5.258  0.00  0.00    +0.000 A 
ATOM     10  C   UNL     1      -4.632   0.469  -6.405  0.00  0.00    +0.001 A 
ATOM     11  C   UNL     1      -3.440   1.142  -6.595  0.00  0.00    +0.020 A 
ATOM     12  C   UNL     1      -2.447   1.073  -5.635  0.00  0.00    +0.047 A 
ATOM     13 CL   UNL     1      -0.951   1.924  -5.870  0.00  0.00    -0.083 Cl
ENDBRANCH   4   7
BRANCH   1  14
ATOM     14  S   UNL     1      -1.998  -1.121   0.120  0.00  0.00    -0.106 S 
BRANCH  14  16
ATOM     15  C   UNL     1      -4.604  -1.301   0.934  0.00  0.00    +0.027 C 
ATOM     16  C   UNL     1      -3.284  -0.618   1.297  0.00  0.00    +0.112 C 
BRANCH  16  17
ATOM     17  C   UNL     1      -2.876  -1.023   2.690  0.00  0.00    +0.123 A 
ATOM     18  N   UNL     1      -3.761  -0.831   3.703  0.00  0.00    -0.309 N 
ATOM     19  H   UNL     1      -4.629  -0.441   3.515  0.00  0.00    +0.170 HD
ATOM     20  C   UNL     1      -3.442  -1.179   4.971  0.00  0.00    +0.259 A 
ATOM     21  O   UNL     1      -4.226  -1.013   5.888  0.00  0.00    -0.267 OA
ATOM     22  C   UNL     1      -2.113  -1.765   5.199  0.00  0.00    +0.065 A 
ATOM     23  C   UNL     1      -1.688  -2.156   6.467  0.00  0.00    +0.015 A 
ATOM     24  C   UNL     1      -0.431  -2.700   6.624  0.00  0.00    +0.001 A 
ATOM     25  C   UNL     1       0.410  -2.860   5.531  0.00  0.00    +0.002 A 
ATOM     26  C   UNL     1       0.009  -2.480   4.270  0.00  0.00    +0.028 A 
ATOM     27  C   UNL     1      -1.260  -1.927   4.085  0.00  0.00    +0.078 A 
ATOM     28  N   UNL     1      -1.698  -1.543   2.860  0.00  0.00    -0.233 NA
ENDBRANCH  16  17
ENDBRANCH  14  16
ENDBRANCH   1  14
BRANCH   5  29
ATOM     29  C   UNL     1      -0.475  -1.499  -2.131  0.00  0.00    +0.124 C 
BRANCH  29  30
ATOM     30  C   UNL     1       0.204  -2.191  -3.285  0.00  0.00    -0.033 A 
ATOM     31  C   UNL     1      -0.116  -3.500  -3.591  0.00  0.00    +0.005 A 
ATOM     32  C   UNL     1       0.507  -4.135  -4.649  0.00  0.00    +0.000 A 
ATOM     33  C   UNL     1       1.450  -3.460  -5.402  0.00  0.00    +0.000 A 
ATOM     34  C   UNL     1       1.769  -2.150  -5.096  0.00  0.00    +0.000 A 
ATOM     35  C   UNL     1       1.143  -1.514  -4.041  0.00  0.00    +0.005 A 
ENDBRANCH  29  30
ENDBRANCH   5  29
TORSDOF 6
