REMARK  Name = ZINC39963400
REMARK  7 active torsions:
REMARK  status: ('A' for Active; 'I' for Inactive)
REMARK    1  A    between atoms: C_1  and  C_2
REMARK    2  A    between atoms: C_4  and  C_16
REMARK    3  A    between atoms: C_6  and  C_14
REMARK    4  A    between atoms: C_7  and  N_13
REMARK    5  A    between atoms: C_20  and  O_22
REMARK    6  A    between atoms: O_22  and  C_23
REMARK    7  A    between atoms: C_23  and  C_24
REMARK                            x       y       z     vdW  Elec       q    Type
REMARK                         _______ _______ _______ _____ _____    ______ ____
ROOT
ATOM      1  C   UNL     1      -0.018   1.503   0.010  0.00  0.00    +0.067 C 
ATOM      2  C   UNL     1       0.002  -0.004   0.002  0.00  0.00    +0.066 C 
ATOM      3  C   UNL     1      -1.064  -0.768   0.003  0.00  0.00    +0.030 C 
ATOM      4  C   UNL     1      -2.536  -0.493   0.145  0.00  0.00    +0.098 C 
ATOM      5  C   UNL     1      -3.065  -1.577   1.066  0.00  0.00    +0.097 C 
ATOM      6  C   UNL     1      -2.303  -2.628   1.436  0.00  0.00    +0.195 C 
ATOM      7  O   UNL     1      -1.023  -2.853   1.091  0.00  0.00    -0.448 OA
ATOM      8  C   UNL     1      -0.529  -2.198  -0.081  0.00  0.00    +0.343 C 
ATOM      9  N   UNL     1       0.921  -1.985  -0.028  0.00  0.00    -0.138 NA
ATOM     10  N   UNL     1       1.127  -0.765  -0.013  0.00  0.00    -0.155 NA
ENDROOT
BRANCH   4  11
ATOM     11  C   UNL     1      -3.212  -0.572  -1.199  0.00  0.00    -0.031 A 
ATOM     12  C   UNL     1      -3.177  -1.749  -1.923  0.00  0.00    +0.005 A 
ATOM     13  C   UNL     1      -3.796  -1.824  -3.156  0.00  0.00    +0.004 A 
ATOM     14  C   UNL     1      -4.453  -0.722  -3.669  0.00  0.00    +0.045 A 
ATOM     15  C   UNL     1      -4.491   0.460  -2.945  0.00  0.00    +0.121 A 
ATOM     16  C   UNL     1      -3.873   0.531  -1.705  0.00  0.00    +0.050 A 
BRANCH  15  17
ATOM     17  O   UNL     1      -5.136   1.546  -3.447  0.00  0.00    -0.487 OA
BRANCH  17  18
ATOM     18  C   UNL     1      -5.754   1.398  -4.727  0.00  0.00    +0.267 C 
BRANCH  18  19
ATOM     19  C   UNL     1      -6.415   2.695  -5.118  0.00  0.00    +0.025 A 
ATOM     20  C   UNL     1      -6.351   3.786  -4.272  0.00  0.00    +0.010 A 
ATOM     21  C   UNL     1      -6.957   4.976  -4.630  0.00  0.00    +0.001 A 
ATOM     22  C   UNL     1      -7.629   5.075  -5.834  0.00  0.00    +0.003 A 
ATOM     23  C   UNL     1      -7.695   3.985  -6.681  0.00  0.00    +0.039 A 
ATOM     24  C   UNL     1      -7.083   2.795  -6.326  0.00  0.00    +0.130 A 
ATOM     25  F   UNL     1      -7.143   1.730  -7.156  0.00  0.00    -0.205 F 
ENDBRANCH  18  19
ENDBRANCH  17  18
ENDBRANCH  15  17
ENDBRANCH   4  11
BRANCH   6  26
ATOM     26  N   UNL     1      -2.896  -3.562   2.247  0.00  0.00    -0.329 N 
ATOM     27  H   UNL     1      -3.818  -3.448   2.526  0.00  0.00    +0.145 HD
ATOM     28  H   UNL     1      -2.393  -4.337   2.542  0.00  0.00    +0.145 HD
ENDBRANCH   6  26
BRANCH   5  29
ATOM     29  C   UNL     1      -4.407  -1.482   1.556  0.00  0.00    +0.101 C 
ATOM     30  N   UNL     1      -5.472  -1.407   1.944  0.00  0.00    -0.191 NA
ENDBRANCH   5  29
TORSDOF 6
