REMARK  Name = ZINC00817728
REMARK  6 active torsions:
REMARK  status: ('A' for Active; 'I' for Inactive)
REMARK    1  A    between atoms: C_1  and  C_2
REMARK    2  A    between atoms: C_10  and  C_25
REMARK    3  A    between atoms: C_13  and  C_16
REMARK    4  A    between atoms: C_19  and  N_22
REMARK    5  A    between atoms: N_22  and  C_23
REMARK    6  A    between atoms: N_22  and  C_24
REMARK                            x       y       z     vdW  Elec       q    Type
REMARK                         _______ _______ _______ _____ _____    ______ ____
ROOT
ATOM      1  C   UNL     1      -0.006   1.488  -0.071  0.00  0.00    +0.044 C 
ATOM      2  C   UNL     1       0.011  -0.019  -0.061  0.00  0.00    -0.050 A 
ATOM      3  C   UNL     1       0.014  -0.717  -1.257  0.00  0.00    +0.005 A 
ATOM      4  C   UNL     1       0.035  -2.099  -1.269  0.00  0.00    +0.024 A 
ATOM      5  C   UNL     1       0.052  -2.798  -0.074  0.00  0.00    +0.038 A 
ATOM      6  C   UNL     1       0.040  -2.085   1.141  0.00  0.00    +0.021 A 
ATOM      7  C   UNL     1       0.031  -0.700   1.142  0.00  0.00    +0.015 A 
ATOM      8  C   UNL     1       0.029  -2.893   2.375  0.00  0.00    +0.073 A 
ATOM      9  C   UNL     1       0.234  -2.562   3.669  0.00  0.00    +0.052 A 
ATOM     10  C   UNL     1       0.115  -3.731   4.430  0.00  0.00    +0.061 A 
ATOM     11  N   UNL     1      -0.154  -4.733   3.624  0.00  0.00    -0.174 NA
ATOM     12  N   UNL     1      -0.222  -4.246   2.325  0.00  0.00    -0.238 N 
ATOM     13  C   UNL     1      -0.509  -4.942   1.068  0.00  0.00    +0.222 C 
ATOM     14  N   UNL     1       0.089  -4.192  -0.045  0.00  0.00    -0.319 N 
ATOM     15  C   UNL     1       0.271  -3.825   5.926  0.00  0.00    +0.067 C 
ATOM     16  H   UNL     1       0.516  -4.673  -0.770  0.00  0.00    +0.148 HD
ENDROOT
BRANCH  13  17
ATOM     17  C   UNL     1      -2.000  -5.035   0.872  0.00  0.00    -0.005 A 
ATOM     18  C   UNL     1      -2.700  -3.948   0.383  0.00  0.00    +0.009 A 
ATOM     19  C   UNL     1      -4.067  -4.029   0.202  0.00  0.00    +0.023 A 
ATOM     20  C   UNL     1      -4.739  -5.205   0.512  0.00  0.00    +0.029 A 
ATOM     21  C   UNL     1      -4.032  -6.295   1.004  0.00  0.00    +0.023 A 
ATOM     22  C   UNL     1      -2.664  -6.209   1.177  0.00  0.00    +0.009 A 
BRANCH  20  23
ATOM     23  N   UNL     1      -6.121  -5.291   0.331  0.00  0.00    -0.336 N 
ATOM     24  C   UNL     1      -6.882  -4.104  -0.067  0.00  0.00    +0.129 C 
ATOM     25  C   UNL     1      -6.809  -6.567   0.539  0.00  0.00    +0.129 C 
ENDBRANCH  20  23
ENDBRANCH  13  17
TORSDOF 2
