REMARK  Name = ZINC38688686
REMARK  8 active torsions:
REMARK  status: ('A' for Active; 'I' for Inactive)
REMARK    1  A    between atoms: C_1  and  C_2
REMARK    2  A    between atoms: C_5  and  C_7
REMARK    3  A    between atoms: C_12  and  O_21
REMARK    4  A    between atoms: C_16  and  N_20
REMARK    5  A    between atoms: C_17  and  C_18
REMARK    6  A    between atoms: O_21  and  C_22
REMARK    7  A    between atoms: C_22  and  C_24
REMARK    8  A    between atoms: C_25  and  C_34
REMARK                            x       y       z     vdW  Elec       q    Type
REMARK                         _______ _______ _______ _____ _____    ______ ____
ROOT
ATOM      1  C   UNL     1       1.722  -3.201   0.005  0.00  0.00    +0.134 C 
ATOM      2  C   UNL     1       2.567  -3.156  -1.241  0.00  0.00    +0.011 A 
ATOM      3  C   UNL     1       2.046  -3.623  -2.434  0.00  0.00    +0.012 A 
ATOM      4  C   UNL     1       2.806  -3.589  -3.586  0.00  0.00    +0.047 A 
ATOM      5  C   UNL     1       4.099  -3.084  -3.550  0.00  0.00    +0.136 A 
ATOM      6  C   UNL     1       4.623  -2.615  -2.357  0.00  0.00    +0.093 A 
ATOM      7  C   UNL     1       3.857  -2.650  -1.199  0.00  0.00    +0.138 A 
ATOM      8  O   UNL     1       4.385  -2.187  -0.039  0.00  0.00    -0.441 OA
ATOM      9  C   UNL     1       3.845  -2.551   1.136  0.00  0.00    +0.199 C 
ATOM     10  C   UNL     1       2.588  -3.038   1.222  0.00  0.00    +0.101 C 
ENDROOT
BRANCH   1  15
ATOM     11  C   UNL     1      -0.278   1.425  -0.195  0.00  0.00    +0.086 C 
ATOM     12  C   UNL     1      -0.162  -0.076  -0.126  0.00  0.00    +0.102 A 
ATOM     13  C   UNL     1      -1.189  -0.943  -0.075  0.00  0.00    +0.044 A 
ATOM     14  C   UNL     1      -0.628  -2.240  -0.019  0.00  0.00    +0.046 A 
ATOM     15  C   UNL     1       0.708  -2.088  -0.039  0.00  0.00    +0.118 A 
ATOM     16  O   UNL     1       0.985  -0.775  -0.109  0.00  0.00    -0.464 OA
ENDBRANCH   1  15
BRANCH   9  17
ATOM     17  N   UNL     1       4.592  -2.424   2.280  0.00  0.00    -0.328 N 
ATOM     18  H   UNL     1       5.496  -2.075   2.233  0.00  0.00    +0.145 HD
ATOM     19  H   UNL     1       4.216  -2.683   3.136  0.00  0.00    +0.145 HD
ENDBRANCH   9  17
BRANCH  10  20
ATOM     20  C   UNL     1       2.071  -3.407   2.506  0.00  0.00    +0.101 C 
ATOM     21  N   UNL     1       1.660  -3.700   3.524  0.00  0.00    -0.191 NA
ENDBRANCH  10  20
BRANCH   5  22
ATOM     22  O   UNL     1       4.848  -3.051  -4.683  0.00  0.00    -0.420 OA
BRANCH  22  23
ATOM     23  C   UNL     1       5.907  -3.882  -4.767  0.00  0.00    +0.380 C 
ATOM     24  O   UNL     1       6.106  -4.704  -3.893  0.00  0.00    -0.241 OA
BRANCH  23  25
ATOM     25  C   UNL     1       6.820  -3.795  -5.913  0.00  0.00    +0.216 A 
ATOM     26  C   UNL     1       7.912  -4.581  -6.105  0.00  0.00    +0.010 A 
ATOM     27  C   UNL     1       8.511  -4.142  -7.365  0.00  0.00    +0.025 A 
ATOM     28  C   UNL     1       9.629  -4.539  -8.102  0.00  0.00    +0.027 A 
ATOM     29  C   UNL     1       9.926  -3.906  -9.276  0.00  0.00    +0.019 A 
ATOM     30  C   UNL     1       9.123  -2.872  -9.740  0.00  0.00    +0.019 A 
ATOM     31  C   UNL     1       8.016  -2.465  -9.027  0.00  0.00    +0.048 A 
ATOM     32  C   UNL     1       7.694  -3.094  -7.830  0.00  0.00    +0.136 A 
ATOM     33  O   UNL     1       6.699  -2.926  -6.938  0.00  0.00    -0.448 OA
ATOM     34 BR   UNL     1      11.439  -4.442 -10.276  0.00  0.00    -0.050 Br
ATOM     35  C   UNL     1       8.405  -5.683  -5.203  0.00  0.00    +0.048 C 
ENDBRANCH  23  25
ENDBRANCH  22  23
ENDBRANCH   5  22
TORSDOF 6
