REMARK  Name = ZINC05530713
REMARK  5 active torsions:
REMARK  status: ('A' for Active; 'I' for Inactive)
REMARK    1  A    between atoms: C_3  and  C_9
REMARK    2  A    between atoms: N_10  and  N_11
REMARK    3  A    between atoms: C_12  and  C_14
REMARK    4  A    between atoms: C_14  and  C_15
REMARK    5  A    between atoms: C_15  and  C_16
REMARK                            x       y       z     vdW  Elec       q    Type
REMARK                         _______ _______ _______ _____ _____    ______ ____
ROOT
ATOM      1  N   UNL     1       4.751   4.033  -0.020  0.00  0.00    -0.207 N 
ATOM      2  C   UNL     1       5.931   3.381  -0.035  0.00  0.00    +0.233 C 
ATOM      3  O   UNL     1       5.952   2.168  -0.041  0.00  0.00    -0.274 OA
ATOM      4  H   UNL     1       4.734   5.003  -0.015  0.00  0.00    +0.177 HD
ENDROOT
BRANCH   1   6
ATOM      5  C   UNL     1       2.416   3.939   0.001  0.00  0.00    +0.139 C 
ATOM      6  N   UNL     1       3.551   3.311  -0.013  0.00  0.00    -0.188 NA
BRANCH   5   9
ATOM      7  C   UNL     1      -1.250   3.135   0.031  0.00  0.00    +0.021 A 
ATOM      8  C   UNL     1      -0.071   3.852   0.023  0.00  0.00    +0.012 A 
ATOM      9  C   UNL     1       1.152   3.179   0.008  0.00  0.00    +0.013 A 
ATOM     10  C   UNL     1       1.174   1.781   0.000  0.00  0.00    +0.051 A 
ATOM     11  C   UNL     1      -0.013   1.076   0.008  0.00  0.00    +0.040 A 
ATOM     12  C   UNL     1      -1.222   1.750   0.017  0.00  0.00    +0.042 A 
ATOM     13 CL   UNL     1      -2.710   0.857   0.019  0.00  0.00    -0.083 Cl
ATOM     14 CL   UNL     1       2.689   0.934  -0.018  0.00  0.00    -0.083 Cl
ENDBRANCH   5   9
ENDBRANCH   1   6
BRANCH   2  15
ATOM     15  C   UNL     1       7.222   4.157  -0.042  0.00  0.00    +0.104 C 
BRANCH  15  16
ATOM     16  C   UNL     1       8.402   3.184  -0.058  0.00  0.00    +0.072 C 
BRANCH  16  17
ATOM     17  C   UNL     1       9.694   3.962  -0.066  0.00  0.00    +0.126 A 
ATOM     18  C   UNL     1      10.982   3.262  -0.082  0.00  0.00    +0.276 A 
ATOM     19  O   UNL     1      11.023   2.046  -0.088  0.00  0.00    -0.266 OA
ATOM     20  N   UNL     1      12.122   3.984  -0.089  0.00  0.00    -0.272 N 
ATOM     21  H   UNL     1      12.981   3.534  -0.099  0.00  0.00    +0.174 HD
ATOM     22  C   UNL     1      12.068   5.329  -0.081  0.00  0.00    +0.343 A 
ATOM     23  O   UNL     1      13.101   5.970  -0.087  0.00  0.00    -0.245 OA
ATOM     24  N   UNL     1      10.888   5.975  -0.067  0.00  0.00    -0.228 N 
ATOM     25  H   UNL     1      10.873   6.945  -0.061  0.00  0.00    +0.194 HD
ATOM     26  N   UNL     1       9.681   5.266  -0.064  0.00  0.00    -0.169 NA
ENDBRANCH  16  17
ENDBRANCH  15  16
ENDBRANCH   2  15
TORSDOF 5
