REMARK  Name = ZINC32992711
REMARK  12 active torsions:
REMARK  status: ('A' for Active; 'I' for Inactive)
REMARK    1  A    between atoms: C_1  and  C_2
REMARK    2  A    between atoms: C_5  and  S_9
REMARK    3  A    between atoms: C_7  and  C_8
REMARK    4  A    between atoms: S_9  and  N_12
REMARK    5  A    between atoms: N_12  and  C_13
REMARK    6  A    between atoms: N_12  and  C_14
REMARK    7  A    between atoms: C_17  and  O_20
REMARK    8  A    between atoms: O_20  and  C_21
REMARK    9  A    between atoms: C_21  and  C_23
REMARK   10  A    between atoms: C_23  and  N_24
REMARK   11  A    between atoms: C_27  and  C_31
REMARK   12  A    between atoms: C_27  and  C_32
REMARK                            x       y       z     vdW  Elec       q    Type
REMARK                         _______ _______ _______ _____ _____    ______ ____
ROOT
ATOM      1  C   UNL     1      -2.399   1.817   1.068  0.00  0.00    +0.051 A 
ATOM      2  C   UNL     1      -3.083   2.661   1.933  0.00  0.00    +0.028 A 
ATOM      3  C   UNL     1      -4.461   2.727   1.886  0.00  0.00    +0.048 A 
ATOM      4  C   UNL     1      -5.163   1.942   0.982  0.00  0.00    +0.132 A 
ATOM      5  C   UNL     1      -4.481   1.095   0.121  0.00  0.00    +0.048 A 
ATOM      6  C   UNL     1      -3.102   1.032   0.163  0.00  0.00    +0.028 A 
ENDROOT
BRANCH   1   7
ATOM      7  N   UNL     1      -1.002   1.753   1.111  0.00  0.00    -0.206 N 
ATOM      8  C   UNL     1      -0.221   1.954  -0.112  0.00  0.00    +0.157 C 
BRANCH   7   9
ATOM      9  S   UNL     1      -0.231   1.450   2.545  0.00  0.00    +0.074 S 
ATOM     10  O   UNL     1      -1.203   0.890   3.418  0.00  0.00    -0.150 OA
ATOM     11  O   UNL     1       0.979   0.778   2.222  0.00  0.00    -0.150 OA
BRANCH   9  16
ATOM     12  C   UNL     1       1.329   6.784   4.895  0.00  0.00    +0.044 C 
ATOM     13  C   UNL     1       0.939   5.451   4.308  0.00  0.00    -0.047 A 
ATOM     14  C   UNL     1       1.758   4.840   3.377  0.00  0.00    +0.005 A 
ATOM     15  C   UNL     1       1.403   3.616   2.842  0.00  0.00    +0.029 A 
ATOM     16  C   UNL     1       0.224   3.007   3.232  0.00  0.00    +0.109 A 
ATOM     17  C   UNL     1      -0.594   3.618   4.163  0.00  0.00    +0.032 A 
ATOM     18  C   UNL     1      -0.236   4.840   4.702  0.00  0.00    -0.046 A 
ATOM     19  C   UNL     1      -1.129   5.506   5.718  0.00  0.00    +0.044 C 
ENDBRANCH   9  16
ENDBRANCH   7   9
ENDBRANCH   1   7
BRANCH   4  20
ATOM     20  O   UNL     1      -6.521   2.003   0.941  0.00  0.00    -0.425 OA
BRANCH  20  21
ATOM     21  C   UNL     1      -7.194   0.968   1.467  0.00  0.00    +0.330 C 
ATOM     22  O   UNL     1      -6.594   0.071   2.010  0.00  0.00    -0.249 OA
BRANCH  21  23
ATOM     23  C   UNL     1      -8.698   0.924   1.379  0.00  0.00    +0.238 C 
BRANCH  23  24
ATOM     24  N   UNL     1      -9.189  -0.297   2.022  0.00  0.00    -0.213 N 
ATOM     25  C   UNL     1      -9.515  -0.388   3.326  0.00  0.00    +0.251 C 
ATOM     26  O   UNL     1      -9.460   0.492   4.158  0.00  0.00    -0.272 OA
ATOM     27  C   UNL     1      -9.967  -1.819   3.538  0.00  0.00    +0.135 C 
ATOM     28  N   UNL     1      -9.830  -2.426   2.202  0.00  0.00    -0.281 N 
ATOM     29  C   UNL     1      -9.375  -1.459   1.385  0.00  0.00    +0.310 C 
ATOM     30  O   UNL     1      -9.154  -1.623   0.201  0.00  0.00    -0.252 OA
ATOM     31  C   UNL     1     -11.425  -1.861   4.001  0.00  0.00    +0.047 C 
ATOM     32  H   UNL     1     -10.089  -3.484   2.049  0.00  0.00    +0.152 HD
BRANCH  27  33
ATOM     33  C   UNL     1      -9.073  -2.517   4.530  0.00  0.00    -0.016 A 
ATOM     34  C   UNL     1      -8.454  -1.792   5.532  0.00  0.00    +0.006 A 
ATOM     35  C   UNL     1      -7.639  -2.432   6.446  0.00  0.00    +0.000 A 
ATOM     36  C   UNL     1      -7.433  -3.796   6.352  0.00  0.00    +0.000 A 
ATOM     37  C   UNL     1      -8.048  -4.520   5.348  0.00  0.00    +0.000 A 
ATOM     38  C   UNL     1      -8.868  -3.881   4.437  0.00  0.00    +0.006 A 
ENDBRANCH  27  33
ENDBRANCH  23  24
ENDBRANCH  21  23
ENDBRANCH  20  21
ENDBRANCH   4  20
TORSDOF 8
