REMARK  Name = ZINC39659763
REMARK  5 active torsions:
REMARK  status: ('A' for Active; 'I' for Inactive)
REMARK    1  A    between atoms: C_5  and  N_9
REMARK    2  A    between atoms: C_10  and  C_12
REMARK    3  A    between atoms: C_23  and  C_25
REMARK    4  A    between atoms: C_25  and  C_26
REMARK    5  A    between atoms: C_26  and  C_27
REMARK                            x       y       z     vdW  Elec       q    Type
REMARK                         _______ _______ _______ _____ _____    ______ ____
ROOT
ATOM      1  C   UNL     1       6.666  -1.451  -0.349  0.00  0.00    +0.100 C 
ATOM      2  C   UNL     1       6.483  -2.960  -0.630  0.00  0.00    +0.121 C 
ATOM      3  N   UNL     1       7.724  -3.588  -0.121  0.00  0.00    -0.300 N 
ATOM      4  C   UNL     1       8.025  -2.851   1.130  0.00  0.00    +0.115 C 
ATOM      5  C   UNL     1       7.678  -1.385   0.806  0.00  0.00    -0.004 C 
ATOM      6  C   UNL     1       7.048  -0.712   2.022  0.00  0.00    -0.010 C 
ATOM      7  C   UNL     1       8.091  -0.604   3.138  0.00  0.00    -0.082 C 
ATOM      8  N   UNL     1       9.241   0.176   2.663  0.00  0.00    +0.379 N 
ATOM      9  C   UNL     1       9.897  -0.525   1.552  0.00  0.00    -0.082 C 
ATOM     10  C   UNL     1       8.930  -0.629   0.370  0.00  0.00    -0.010 C 
ATOM     11  C   UNL     1       8.423  -4.601  -0.671  0.00  0.00    +0.216 C 
ATOM     12  O   UNL     1       9.428  -5.009  -0.130  0.00  0.00    -0.276 OA
ATOM     13  H   UNL     1       8.924   1.080   2.348  0.00  0.00    -0.086 HD
ATOM     14  H   UNL     1       9.899   0.297   3.418  0.00  0.00    -0.086 HD
ENDROOT
BRANCH   1  16
ATOM     15  N   UNL     1       5.116   0.470  -0.191  0.00  0.00    -0.312 N 
ATOM     16  C   UNL     1       5.356  -0.832   0.064  0.00  0.00    +0.218 C 
ATOM     17  O   UNL     1       4.517  -1.504   0.626  0.00  0.00    -0.275 OA
ATOM     18  H   UNL     1       5.787   1.008  -0.640  0.00  0.00    +0.149 HD
BRANCH  15  23
ATOM     19  C   UNL     1       1.074   2.998   1.267  0.00  0.00    +0.000 C 
ATOM     20  C   UNL     1       2.182   2.299   2.058  0.00  0.00    +0.000 C 
ATOM     21  C   UNL     1       3.519   2.989   1.782  0.00  0.00    +0.002 C 
ATOM     22  C   UNL     1       4.028   2.579   0.398  0.00  0.00    +0.022 C 
ATOM     23  C   UNL     1       3.842   1.072   0.211  0.00  0.00    +0.073 C 
ATOM     24  C   UNL     1       2.793   0.818  -0.873  0.00  0.00    +0.022 C 
ATOM     25  C   UNL     1       1.398   1.081  -0.303  0.00  0.00    +0.002 C 
ATOM     26  C   UNL     1       1.164   2.590  -0.205  0.00  0.00    +0.000 C 
ENDBRANCH  15  23
ENDBRANCH   1  16
BRANCH  11  27
ATOM     27  C   UNL     1       7.954  -5.227  -1.960  0.00  0.00    +0.096 C 
BRANCH  27  28
ATOM     28  C   UNL     1       8.918  -6.345  -2.364  0.00  0.00    +0.013 C 
BRANCH  28  29
ATOM     29  C   UNL     1       8.442  -6.981  -3.671  0.00  0.00    -0.011 C 
ATOM     30  C   UNL     1       7.119  -7.740  -3.440  0.00  0.00    +0.003 C 
ATOM     31  C   UNL     1       7.237  -8.993  -4.342  0.00  0.00    +0.000 C 
ATOM     32  C   UNL     1       8.731  -9.376  -4.201  0.00  0.00    +0.000 C 
ATOM     33  C   UNL     1       9.467  -8.021  -4.155  0.00  0.00    +0.003 C 
ENDBRANCH  28  29
ENDBRANCH  27  28
ENDBRANCH  11  27
TORSDOF 5
