REMARK  Name = ZINC15957843
REMARK  4 active torsions:
REMARK  status: ('A' for Active; 'I' for Inactive)
REMARK    1  A    between atoms: C_4  and  N_7
REMARK    2  A    between atoms: C_12  and  C_29
REMARK    3  A    between atoms: C_29  and  C_30
REMARK    4  A    between atoms: C_33  and  O_36
REMARK                            x       y       z     vdW  Elec       q    Type
REMARK                         _______ _______ _______ _____ _____    ______ ____
ROOT
ATOM      1  N   UNL     1       3.494  -1.200   0.397  0.00  0.00    -0.210 N 
ATOM      2  C   UNL     1       4.599  -0.619  -0.083  0.00  0.00    +0.232 C 
ATOM      3  O   UNL     1       4.644   0.472  -0.610  0.00  0.00    -0.274 OA
ATOM      4  C   UNL     1       5.783  -1.533   0.134  0.00  0.00    +0.108 C 
ATOM      5  C   UNL     1       6.736  -0.896   1.167  0.00  0.00    +0.072 C 
ATOM      6  N   UNL     1       6.218  -1.339   2.489  0.00  0.00    -0.295 NA
ATOM      7  C   UNL     1       5.795  -2.733   2.260  0.00  0.00    +0.136 C 
ATOM      8  C   UNL     1       5.159  -2.764   0.848  0.00  0.00    +0.123 C 
ATOM      9  C   UNL     1       3.694  -2.404   0.945  0.00  0.00    +0.233 C 
ATOM     10  O   UNL     1       2.833  -3.100   1.439  0.00  0.00    -0.274 OA
ATOM     11  C   UNL     1       4.830  -3.196   3.314  0.00  0.00    +0.003 A 
ATOM     12  C   UNL     1       3.591  -2.756   3.726  0.00  0.00    +0.008 A 
ATOM     13  C   UNL     1       2.931  -3.408   4.753  0.00  0.00    +0.000 A 
ATOM     14  C   UNL     1       3.518  -4.501   5.364  0.00  0.00    +0.002 A 
ATOM     15  C   UNL     1       4.757  -4.946   4.955  0.00  0.00    +0.023 A 
ATOM     16  C   UNL     1       5.429  -4.296   3.921  0.00  0.00    +0.039 A 
ATOM     17  N   UNL     1       6.670  -4.554   3.337  0.00  0.00    -0.283 N 
ATOM     18  C   UNL     1       6.959  -3.682   2.352  0.00  0.00    +0.243 C 
ATOM     19  O   UNL     1       7.963  -3.663   1.672  0.00  0.00    -0.273 OA
ATOM     20  H   UNL     1       6.939  -1.291   3.194  0.00  0.00    +0.124 HD
ATOM     21  H   UNL     1       7.257  -5.277   3.608  0.00  0.00    +0.155 HD
ENDROOT
BRANCH   1  25
ATOM     22  C   UNL     1      -0.261   0.601   0.217  0.00  0.00    +0.000 A 
ATOM     23  C   UNL     1       0.727   1.146   1.016  0.00  0.00    +0.002 A 
ATOM     24  C   UNL     1       1.973   0.551   1.078  0.00  0.00    +0.024 A 
ATOM     25  C   UNL     1       2.231  -0.594   0.337  0.00  0.00    +0.044 A 
ATOM     26  C   UNL     1       1.236  -1.139  -0.464  0.00  0.00    +0.024 A 
ATOM     27  C   UNL     1      -0.007  -0.539  -0.521  0.00  0.00    +0.002 A 
ENDBRANCH   1  25
BRANCH   5  28
ATOM     28  C   UNL     1       8.165  -1.403   0.956  0.00  0.00    +0.054 C 
BRANCH  28  29
ATOM     29  C   UNL     1       8.904  -0.456   0.046  0.00  0.00    -0.046 A 
ATOM     30  C   UNL     1       8.874  -0.648  -1.322  0.00  0.00    +0.007 A 
ATOM     31  C   UNL     1       9.552   0.219  -2.158  0.00  0.00    +0.045 A 
ATOM     32  C   UNL     1      10.262   1.284  -1.622  0.00  0.00    +0.117 A 
ATOM     33  C   UNL     1      10.290   1.474  -0.248  0.00  0.00    +0.045 A 
ATOM     34  C   UNL     1       9.607   0.608   0.583  0.00  0.00    +0.007 A 
BRANCH  32  35
ATOM     35  O   UNL     1      10.930   2.138  -2.442  0.00  0.00    -0.507 OA
ATOM     36  H   UNL     1      10.403   2.893  -2.735  0.00  0.00    +0.292 HD
ENDBRANCH  32  35
ENDBRANCH  28  29
ENDBRANCH   5  28
TORSDOF 4
