REMARK  Name = ZINC39658342
REMARK  8 active torsions:
REMARK  status: ('A' for Active; 'I' for Inactive)
REMARK    1  A    between atoms: C_4  and  C_7
REMARK    2  A    between atoms: C_7  and  S_8
REMARK    3  A    between atoms: S_8  and  C_9
REMARK    4  A    between atoms: C_9  and  C_10
REMARK    5  A    between atoms: C_10  and  N_11
REMARK    6  A    between atoms: C_12  and  C_14
REMARK    7  A    between atoms: C_25  and  C_27
REMARK    8  A    between atoms: C_33  and  C_35
REMARK                            x       y       z     vdW  Elec       q    Type
REMARK                         _______ _______ _______ _____ _____    ______ ____
ROOT
ATOM      1  C   UNL     1       9.681  -4.043   3.622  0.00  0.00    +0.100 C 
ATOM      2  C   UNL     1       9.442  -5.448   3.025  0.00  0.00    +0.121 C 
ATOM      3  N   UNL     1      10.420  -6.321   3.717  0.00  0.00    -0.299 N 
ATOM      4  C   UNL     1      10.420  -5.836   5.118  0.00  0.00    +0.115 C 
ATOM      5  C   UNL     1      10.323  -4.302   4.996  0.00  0.00    -0.004 C 
ATOM      6  C   UNL     1      11.714  -3.679   5.055  0.00  0.00    -0.010 C 
ATOM      7  C   UNL     1      12.309  -3.900   6.449  0.00  0.00    -0.082 C 
ATOM      8  N   UNL     1      11.434  -3.290   7.458  0.00  0.00    +0.379 N 
ATOM      9  C   UNL     1      10.127  -3.958   7.457  0.00  0.00    -0.082 C 
ATOM     10  C   UNL     1       9.440  -3.740   6.106  0.00  0.00    -0.010 C 
ATOM     11  C   UNL     1      11.145  -7.328   3.192  0.00  0.00    +0.236 C 
ATOM     12  O   UNL     1      11.910  -7.955   3.893  0.00  0.00    -0.274 OA
ATOM     13  H   UNL     1      11.858  -3.384   8.369  0.00  0.00    -0.086 HD
ATOM     14  H   UNL     1      11.310  -2.312   7.247  0.00  0.00    -0.086 HD
ENDROOT
BRANCH  11  15
ATOM     15  C   UNL     1      11.006  -7.674   1.732  0.00  0.00    +0.162 C 
ATOM     16  C   UNL     1       9.745  -8.538   1.515  0.00  0.00    +0.033 C 
ATOM     17  C   UNL     1      10.204  -9.560   0.442  0.00  0.00    +0.021 C 
ATOM     18  C   UNL     1      11.681  -9.791   0.844  0.00  0.00    +0.109 C 
ATOM     19  N   UNL     1      12.163  -8.469   1.294  0.00  0.00    -0.283 N 
ATOM     20  C   UNL     1      13.446  -8.057   1.302  0.00  0.00    +0.320 C 
ATOM     21  O   UNL     1      13.724  -6.944   1.695  0.00  0.00    -0.266 OA
BRANCH  20  22
ATOM     22  C   UNL     1      14.537  -8.980   0.822  0.00  0.00    +0.470 C 
ATOM     23  F   UNL     1      15.773  -8.335   0.926  0.00  0.00    -0.162 F 
ATOM     24  F   UNL     1      14.547 -10.137   1.609  0.00  0.00    -0.162 F 
ATOM     25  F   UNL     1      14.301  -9.326  -0.513  0.00  0.00    -0.162 F 
ENDBRANCH  20  22
ENDBRANCH  11  15
BRANCH   1  27
ATOM     26  N   UNL     1       8.343  -1.966   3.724  0.00  0.00    -0.314 N 
ATOM     27  C   UNL     1       8.374  -3.312   3.783  0.00  0.00    +0.218 C 
ATOM     28  O   UNL     1       7.349  -3.934   3.967  0.00  0.00    -0.275 OA
ATOM     29  H   UNL     1       9.162  -1.468   3.577  0.00  0.00    +0.149 HD
BRANCH  26  30
ATOM     30  C   UNL     1       7.072  -1.254   3.880  0.00  0.00    +0.115 C 
BRANCH  30  31
ATOM     31  C   UNL     1       7.314   0.252   3.772  0.00  0.00    +0.088 C 
BRANCH  31  32
ATOM     32  S   UNL     1       5.739   1.133   3.966  0.00  0.00    -0.155 S 
BRANCH  32  33
ATOM     33  C   UNL     1       6.194   2.883   3.814  0.00  0.00    +0.104 C 
BRANCH  33  37
ATOM     34  C   UNL     1       2.699   5.304   4.223  0.00  0.00    +0.000 A 
ATOM     35  C   UNL     1       3.441   4.968   5.339  0.00  0.00    +0.000 A 
ATOM     36  C   UNL     1       4.572   4.184   5.207  0.00  0.00    +0.004 A 
ATOM     37  C   UNL     1       4.960   3.736   3.958  0.00  0.00    -0.038 A 
ATOM     38  C   UNL     1       4.218   4.072   2.842  0.00  0.00    +0.004 A 
ATOM     39  C   UNL     1       3.087   4.857   2.974  0.00  0.00    +0.000 A 
ENDBRANCH  33  37
ENDBRANCH  32  33
ENDBRANCH  31  32
ENDBRANCH  30  31
ENDBRANCH  26  30
ENDBRANCH   1  27
TORSDOF 8
