REMARK  Name = ZINC11871259
REMARK  6 active torsions:
REMARK  status: ('A' for Active; 'I' for Inactive)
REMARK    1  A    between atoms: C_1  and  C_2
REMARK    2  A    between atoms: C_5  and  C_33
REMARK    3  A    between atoms: C_6  and  C_8
REMARK    4  A    between atoms: C_15  and  C_18
REMARK    5  A    between atoms: C_18  and  N_19
REMARK    6  A    between atoms: C_20  and  C_22
REMARK                            x       y       z     vdW  Elec       q    Type
REMARK                         _______ _______ _______ _____ _____    ______ ____
ROOT
ATOM      1  C   UNL     1      -1.309   2.117   0.020  0.00  0.00    +0.003 A 
ATOM      2  C   UNL     1      -2.408   1.605  -0.669  0.00  0.00    +0.013 A 
ATOM      3  C   UNL     1      -3.609   2.278  -0.656  0.00  0.00    +0.046 A 
ATOM      4  C   UNL     1      -3.738   3.478   0.042  0.00  0.00    +0.124 A 
ATOM      5  C   UNL     1      -2.637   3.986   0.722  0.00  0.00    -0.002 A 
ATOM      6  C   UNL     1      -1.437   3.315   0.723  0.00  0.00    +0.017 A 
ATOM      7  C   UNL     1      -3.074   5.288   1.365  0.00  0.00    +0.085 C 
ATOM      8  C   UNL     1      -4.390   5.590   0.611  0.00  0.00    +0.195 C 
ATOM      9  O   UNL     1      -4.824   4.286   0.191  0.00  0.00    -0.487 OA
ENDROOT
BRANCH   1  15
ATOM     10  C   UNL     1       3.575   2.181  -0.019  0.00  0.00    +0.067 C 
ATOM     11  C   UNL     1       2.277   1.416  -0.012  0.00  0.00    +0.057 A 
ATOM     12  C   UNL     1       2.291   0.032  -0.020  0.00  0.00    +0.134 A 
ATOM     13  N   UNL     1       1.155  -0.646  -0.012  0.00  0.00    -0.256 NA
ATOM     14  C   UNL     1       0.002  -0.004   0.002  0.00  0.00    +0.064 A 
ATOM     15  C   UNL     1      -0.017   1.391   0.010  0.00  0.00    +0.092 A 
ATOM     16  N   UNL     1       1.128   2.067   0.002  0.00  0.00    -0.249 NA
ATOM     17  C   UNL     1      -1.292  -0.777   0.011  0.00  0.00    +0.068 C 
ENDBRANCH   1  15
BRANCH   8  18
ATOM     18  C   UNL     1      -5.418   6.227   1.548  0.00  0.00    +0.149 C 
BRANCH  18  19
ATOM     19  N   UNL     1      -6.691   6.388   0.841  0.00  0.00    -0.309 N 
ATOM     20  C   UNL     1      -7.750   6.932   1.473  0.00  0.00    +0.257 C 
ATOM     21  O   UNL     1      -7.649   7.288   2.628  0.00  0.00    -0.272 OA
ATOM     22  H   UNL     1      -6.772   6.103  -0.083  0.00  0.00    +0.149 HD
BRANCH  20  23
ATOM     23  C   UNL     1      -9.059   7.098   0.745  0.00  0.00    +0.296 C 
ATOM     24  C   UNL     1      -8.892   8.110  -0.396  0.00  0.00    +0.283 C 
ATOM     25  O   UNL     1     -10.154   8.253  -1.056  0.00  0.00    -0.484 OA
ATOM     26  C   UNL     1     -11.246   8.411  -0.260  0.00  0.00    +0.162 A 
ATOM     27  C   UNL     1     -12.421   8.907  -0.805  0.00  0.00    +0.049 A 
ATOM     28  C   UNL     1     -13.539   9.070  -0.010  0.00  0.00    +0.004 A 
ATOM     29  C   UNL     1     -13.490   8.739   1.332  0.00  0.00    +0.004 A 
ATOM     30  C   UNL     1     -12.323   8.245   1.882  0.00  0.00    +0.049 A 
ATOM     31  C   UNL     1     -11.197   8.080   1.089  0.00  0.00    +0.163 A 
ATOM     32  O   UNL     1     -10.052   7.597   1.647  0.00  0.00    -0.473 OA
ENDBRANCH  20  23
ENDBRANCH  18  19
ENDBRANCH   8  18
TORSDOF 4
