REMARK  Name = ZINC39656899
REMARK  5 active torsions:
REMARK  status: ('A' for Active; 'I' for Inactive)
REMARK    1  A    between atoms: C_1  and  C_2
REMARK    2  A    between atoms: C_2  and  C_4
REMARK    3  A    between atoms: C_2  and  N_11
REMARK    4  A    between atoms: C_12  and  C_14
REMARK    5  A    between atoms: C_25  and  C_27
REMARK                            x       y       z     vdW  Elec       q    Type
REMARK                         _______ _______ _______ _____ _____    ______ ____
ROOT
ATOM      1  C   UNL     1       0.276  -0.835   3.372  0.00  0.00    +0.100 C 
ATOM      2  C   UNL     1       1.598  -0.100   3.684  0.00  0.00    +0.121 C 
ATOM      3  N   UNL     1       1.269   0.797   4.817  0.00  0.00    -0.296 N 
ATOM      4  C   UNL     1       0.366  -0.008   5.675  0.00  0.00    +0.115 C 
ATOM      5  C   UNL     1      -0.528  -0.776   4.681  0.00  0.00    -0.004 C 
ATOM      6  C   UNL     1      -0.801  -2.186   5.197  0.00  0.00    -0.010 C 
ATOM      7  C   UNL     1      -1.652  -2.103   6.468  0.00  0.00    -0.082 C 
ATOM      8  N   UNL     1      -2.914  -1.416   6.171  0.00  0.00    +0.379 N 
ATOM      9  C   UNL     1      -2.647  -0.031   5.764  0.00  0.00    -0.082 C 
ATOM     10  C   UNL     1      -1.839  -0.026   4.464  0.00  0.00    -0.010 C 
ATOM     11  C   UNL     1       1.694   2.059   5.022  0.00  0.00    +0.250 C 
ATOM     12  O   UNL     1       1.411   2.636   6.054  0.00  0.00    -0.270 OA
ATOM     13  H   UNL     1      -3.390  -1.899   5.424  0.00  0.00    -0.086 HD
ATOM     14  H   UNL     1      -3.498  -1.417   6.994  0.00  0.00    -0.086 HD
ENDROOT
BRANCH  11  15
ATOM     15  C   UNL     1       2.504   2.743   3.993  0.00  0.00    +0.074 A 
ATOM     16  C   UNL     1       3.429   2.026   3.223  0.00  0.00    +0.017 A 
ATOM     17  C   UNL     1       4.162   2.712   2.272  0.00  0.00    +0.021 A 
ATOM     18  C   UNL     1       3.962   4.072   2.112  0.00  0.00    +0.112 A 
ATOM     19  N   UNL     1       3.083   4.723   2.850  0.00  0.00    -0.243 NA
ATOM     20  C   UNL     1       2.357   4.113   3.766  0.00  0.00    +0.141 A 
ATOM     21 CL   UNL     1       1.212   5.022   4.702  0.00  0.00    -0.061 Cl
ENDBRANCH  11  15
BRANCH   1  23
ATOM     22  N   UNL     1      -1.304  -0.823   1.468  0.00  0.00    -0.308 N 
ATOM     23  C   UNL     1      -0.469  -0.130   2.267  0.00  0.00    +0.219 C 
ATOM     24  O   UNL     1      -0.316   1.061   2.097  0.00  0.00    -0.275 OA
ATOM     25  H   UNL     1      -1.427  -1.776   1.604  0.00  0.00    +0.149 HD
BRANCH  22  27
ATOM     26  C   UNL     1      -1.140  -0.059  -0.849  0.00  0.00    +0.033 C 
ATOM     27  C   UNL     1      -2.028  -0.138   0.395  0.00  0.00    +0.100 C 
BRANCH  27  28
ATOM     28  C   UNL     1      -3.284  -0.903   0.067  0.00  0.00    -0.027 A 
ATOM     29  C   UNL     1      -3.265  -2.285   0.042  0.00  0.00    +0.006 A 
ATOM     30  C   UNL     1      -4.417  -2.987  -0.257  0.00  0.00    +0.015 A 
ATOM     31  C   UNL     1      -5.590  -2.306  -0.532  0.00  0.00    +0.018 A 
ATOM     32  C   UNL     1      -5.609  -0.923  -0.507  0.00  0.00    +0.015 A 
ATOM     33  C   UNL     1      -4.457  -0.222  -0.202  0.00  0.00    +0.006 A 
ATOM     34 BR   UNL     1      -7.166  -3.267  -0.943  0.00  0.00    -0.050 Br
ENDBRANCH  27  28
ENDBRANCH  22  27
ENDBRANCH   1  23
TORSDOF 4
