REMARK  Name = ZINC51037066
REMARK  6 active torsions:
REMARK  status: ('A' for Active; 'I' for Inactive)
REMARK    1  A    between atoms: C_3  and  C_18
REMARK    2  A    between atoms: C_5  and  C_6
REMARK    3  A    between atoms: C_6  and  S_7
REMARK    4  A    between atoms: S_7  and  C_8
REMARK    5  A    between atoms: C_19  and  C_20
REMARK    6  A    between atoms: C_20  and  N_21
REMARK                            x       y       z     vdW  Elec       q    Type
REMARK                         _______ _______ _______ _____ _____    ______ ____
ROOT
ATOM      1  C   UNL     1      -1.157  -0.967   0.008  0.00  0.00    +0.118 C 
ENDROOT
BRANCH   1   6
ATOM      2  C   UNL     1      -0.016   1.354   0.009  0.00  0.00    +0.013 A 
ATOM      3  C   UNL     1       1.176   2.042   0.002  0.00  0.00    +0.025 A 
ATOM      4  C   UNL     1       2.348   1.328  -0.013  0.00  0.00    +0.062 A 
ATOM      5  S   UNL     1       1.752  -0.355  -0.017  0.00  0.00    -0.084 S 
ATOM      6  C   UNL     1       0.002  -0.004   0.002  0.00  0.00    +0.001 A 
BRANCH   4   7
ATOM      7  C   UNL     1       3.697   1.808  -0.024  0.00  0.00    -0.058 C 
ATOM      8  C   UNL     1       4.803   2.201  -0.033  0.00  0.00    -0.081 C 
BRANCH   8   9
ATOM      9  C   UNL     1       6.190   2.695  -0.044  0.00  0.00    +0.168 C 
BRANCH   9  10
ATOM     10  N   UNL     1       7.115   1.554  -0.059  0.00  0.00    -0.320 NA
ATOM     11  H   UNL     1       8.075   1.867  -0.067  0.00  0.00    +0.119 HD
ATOM     12  H   UNL     1       6.942   0.938   0.721  0.00  0.00    +0.119 HD
ENDBRANCH   9  10
ENDBRANCH   8   9
ENDBRANCH   4   7
ENDBRANCH   1   6
BRANCH   1  13
ATOM     13  S   UNL     1      -1.639  -1.344  -1.700  0.00  0.00    -0.099 S 
BRANCH  13  14
ATOM     14  C   UNL     1      -2.986  -2.466  -1.525  0.00  0.00    +0.126 A 
ATOM     15  C   UNL     1      -3.628  -2.992  -2.649  0.00  0.00    +0.117 A 
ATOM     16  C   UNL     1      -4.697  -3.882  -2.458  0.00  0.00    +0.182 A 
ATOM     17  N   UNL     1      -5.133  -4.236  -3.681  0.00  0.00    -0.216 NA
ATOM     18  H   UNL     1      -2.824  -2.310  -4.470  0.00  0.00    +0.167 HD
ATOM     19  C   UNL     1      -4.421  -3.637  -4.594  0.00  0.00    +0.199 A 
ATOM     20  N   UNL     1      -3.480  -2.859  -4.013  0.00  0.00    -0.341 N 
ATOM     21  N   UNL     1      -5.058  -4.192  -1.208  0.00  0.00    -0.214 NA
ATOM     22  C   UNL     1      -4.424  -3.672  -0.180  0.00  0.00    +0.224 A 
ATOM     23  N   UNL     1      -3.412  -2.836  -0.319  0.00  0.00    -0.227 NA
ENDBRANCH  13  14
ENDBRANCH   1  13
TORSDOF 6
