REMARK  Name = ZINC40035004
REMARK  9 active torsions:
REMARK  status: ('A' for Active; 'I' for Inactive)
REMARK    1  A    between atoms: C_1  and  C_2
REMARK    2  A    between atoms: C_2  and  N_3
REMARK    3  A    between atoms: N_10  and  N_11
REMARK    4  A    between atoms: C_12  and  C_13
REMARK    5  A    between atoms: C_17  and  O_19
REMARK    6  A    between atoms: O_19  and  C_20
REMARK    7  A    between atoms: C_20  and  C_21
REMARK    8  A    between atoms: C_35  and  C_36
REMARK    9  A    between atoms: C_35  and  C_37
REMARK                            x       y       z     vdW  Elec       q    Type
REMARK                         _______ _______ _______ _____ _____    ______ ____
ROOT
ATOM      1  N   UNL     1       0.862  -0.205  -1.328  0.00  0.00    -0.280 N 
ATOM      2  C   UNL     1       0.103  -0.513  -2.402  0.00  0.00    +0.260 A 
ATOM      3  O   UNL     1      -1.103  -0.328  -2.387  0.00  0.00    -0.267 OA
ATOM      4  C   UNL     1       0.730  -1.047  -3.536  0.00  0.00    +0.049 A 
ATOM      5  C   UNL     1       2.104  -1.239  -3.511  0.00  0.00    +0.084 A 
ATOM      6  N   UNL     1       2.803  -0.923  -2.416  0.00  0.00    -0.214 NA
ATOM      7  C   UNL     1       2.207  -0.415  -1.356  0.00  0.00    +0.219 A 
ATOM      8  N   UNL     1       2.958  -0.097  -0.254  0.00  0.00    -0.206 N 
ATOM      9  C   UNL     1       2.771  -1.790  -4.713  0.00  0.00    +0.004 A 
ATOM     10  C   UNL     1       4.043  -2.349  -4.631  0.00  0.00    +0.010 A 
ATOM     11  C   UNL     1       4.640  -2.859  -5.767  0.00  0.00    +0.001 A 
ATOM     12  C   UNL     1       3.975  -2.815  -6.979  0.00  0.00    +0.000 A 
ATOM     13  C   UNL     1       2.711  -2.258  -7.065  0.00  0.00    +0.004 A 
ATOM     14  C   UNL     1       2.105  -1.743  -5.938  0.00  0.00    -0.037 A 
ATOM     15  C   UNL     1       0.736  -1.124  -6.025  0.00  0.00    +0.047 C 
ATOM     16  C   UNL     1      -0.064  -1.412  -4.757  0.00  0.00    +0.001 C 
ATOM     17  C   UNL     1      -0.411  -2.901  -4.707  0.00  0.00    +0.016 C 
ATOM     18  C   UNL     1      -1.357  -0.594  -4.780  0.00  0.00    +0.016 C 
ATOM     19  H   UNL     1       2.530   0.274   0.534  0.00  0.00    +0.177 HD
ENDROOT
BRANCH   1  21
ATOM     20  C   UNL     1       0.215   1.888  -0.241  0.00  0.00    +0.027 C 
ATOM     21  C   UNL     1       0.236   0.362  -0.131  0.00  0.00    +0.125 C 
ENDBRANCH   1  21
BRANCH   8  22
ATOM     22  N   UNL     1       4.343  -0.306  -0.265  0.00  0.00    -0.188 NA
ATOM     23  C   UNL     1       5.053  -0.005   0.778  0.00  0.00    +0.138 C 
BRANCH  23  24
ATOM     24  C   UNL     1       6.511  -0.225   0.766  0.00  0.00    -0.002 A 
ATOM     25  C   UNL     1       7.131  -0.754  -0.369  0.00  0.00    +0.010 A 
ATOM     26  C   UNL     1       8.495  -0.959  -0.376  0.00  0.00    +0.004 A 
ATOM     27  C   UNL     1       9.253  -0.643   0.737  0.00  0.00    +0.046 A 
ATOM     28  C   UNL     1       8.646  -0.118   1.870  0.00  0.00    +0.122 A 
ATOM     29  C   UNL     1       7.278   0.098   1.887  0.00  0.00    +0.055 A 
BRANCH  28  30
ATOM     30  O   UNL     1       9.395   0.190   2.961  0.00  0.00    -0.487 OA
BRANCH  30  31
ATOM     31  C   UNL     1      10.801  -0.052   2.872  0.00  0.00    +0.264 C 
BRANCH  31  32
ATOM     32  C   UNL     1      11.462   0.347   4.166  0.00  0.00    -0.010 A 
ATOM     33  C   UNL     1      11.925   1.639   4.336  0.00  0.00    +0.008 A 
ATOM     34  C   UNL     1      12.531   2.005   5.522  0.00  0.00    +0.020 A 
ATOM     35  C   UNL     1      12.676   1.079   6.540  0.00  0.00    +0.041 A 
ATOM     36  C   UNL     1      12.213  -0.213   6.369  0.00  0.00    +0.020 A 
ATOM     37  C   UNL     1      11.601  -0.577   5.185  0.00  0.00    +0.008 A 
ATOM     38 CL   UNL     1      13.439   1.539   8.030  0.00  0.00    -0.084 Cl
ENDBRANCH  31  32
ENDBRANCH  30  31
ENDBRANCH  28  30
ENDBRANCH  23  24
ENDBRANCH   8  22
TORSDOF 6
