REMARK  Name = ZINC51713735
REMARK  8 active torsions:
REMARK  status: ('A' for Active; 'I' for Inactive)
REMARK    1  A    between atoms: C_1  and  C_2
REMARK    2  A    between atoms: C_5  and  C_8
REMARK    3  A    between atoms: C_8  and  C_10
REMARK    4  A    between atoms: C_8  and  N_24
REMARK    5  A    between atoms: C_10  and  N_11
REMARK    6  A    between atoms: C_18  and  C_21
REMARK    7  A    between atoms: N_24  and  C_25
REMARK    8  A    between atoms: N_24  and  C_26
REMARK                            x       y       z     vdW  Elec       q    Type
REMARK                         _______ _______ _______ _____ _____    ______ ____
ROOT
ATOM      1  N   UNL     1       1.986  -4.875  -0.670  0.00  0.00    -0.300 N 
ATOM      2  C   UNL     1       3.162  -5.526  -0.568  0.00  0.00    +0.302 C 
ATOM      3  O   UNL     1       3.454  -6.095   0.466  0.00  0.00    -0.253 OA
ATOM      4  N   UNL     1       4.013  -5.548  -1.613  0.00  0.00    -0.281 N 
ATOM      5  C   UNL     1       3.735  -4.774  -2.833  0.00  0.00    +0.137 C 
ATOM      6  C   UNL     1       3.878  -5.707  -4.041  0.00  0.00    +0.180 C 
ATOM      7  O   UNL     1       5.146  -6.364  -3.981  0.00  0.00    -0.364 OA
ATOM      8  C   UNL     1       5.317  -7.204  -2.837  0.00  0.00    +0.221 C 
ATOM      9  C   UNL     1       5.251  -6.343  -1.565  0.00  0.00    +0.150 C 
ATOM     10  H   UNL     1       1.783  -4.363  -1.468  0.00  0.00    +0.150 HD
ENDROOT
BRANCH   8  11
ATOM     11  C   UNL     1       6.657  -7.888  -2.910  0.00  0.00    +0.241 C 
ATOM     12  O   UNL     1       7.432  -7.611  -3.801  0.00  0.00    -0.273 OA
ATOM     13  N   UNL     1       6.995  -8.810  -1.987  0.00  0.00    -0.327 N 
ATOM     14  H   UNL     1       6.376  -9.032  -1.274  0.00  0.00    +0.145 HD
ATOM     15  H   UNL     1       7.858  -9.250  -2.034  0.00  0.00    +0.145 HD
ENDBRANCH   8  11
BRANCH   1  16
ATOM     16  C   UNL     1       1.016  -4.939   0.425  0.00  0.00    +0.095 C 
BRANCH  16  17
ATOM     17  C   UNL     1      -0.270  -4.222   0.010  0.00  0.00    -0.021 C 
BRANCH  17  22
ATOM     18  C   UNL     1       0.843   1.380  -0.872  0.00  0.00    +0.044 C 
ATOM     19  C   UNL     1       0.553  -0.081  -0.642  0.00  0.00    -0.050 A 
ATOM     20  C   UNL     1       0.461  -0.945  -1.717  0.00  0.00    +0.003 A 
ATOM     21  C   UNL     1       0.195  -2.285  -1.506  0.00  0.00    +0.002 A 
ATOM     22  C   UNL     1       0.021  -2.761  -0.220  0.00  0.00    -0.059 A 
ATOM     23  C   UNL     1       0.114  -1.897   0.855  0.00  0.00    +0.002 A 
ATOM     24  C   UNL     1       0.384  -0.558   0.644  0.00  0.00    +0.003 A 
ENDBRANCH  17  22
BRANCH  17  25
ATOM     25  N   UNL     1      -1.273  -4.359   1.074  0.00  0.00    +0.382 N 
ATOM     26  C   UNL     1      -2.536  -3.747   0.640  0.00  0.00    -0.096 C 
ATOM     27  C   UNL     1      -1.493  -5.784   1.359  0.00  0.00    -0.096 C 
ATOM     28  H   UNL     1      -0.945  -3.896   1.908  0.00  0.00    -0.082 HD
ENDBRANCH  17  25
ENDBRANCH  16  17
ENDBRANCH   1  16
TORSDOF 5
