REMARK  Name = ZINC40450185
REMARK  9 active torsions:
REMARK  status: ('A' for Active; 'I' for Inactive)
REMARK    1  A    between atoms: C_1  and  C_2
REMARK    2  A    between atoms: C_10  and  S_14
REMARK    3  A    between atoms: S_14  and  N_17
REMARK    4  A    between atoms: N_17  and  C_18
REMARK    5  A    between atoms: C_18  and  C_19
REMARK    6  A    between atoms: C_19  and  N_20
REMARK    7  A    between atoms: N_20  and  C_21
REMARK    8  A    between atoms: N_20  and  C_22
REMARK    9  A    between atoms: C_22  and  C_23
REMARK                            x       y       z     vdW  Elec       q    Type
REMARK                         _______ _______ _______ _____ _____    ______ ____
ROOT
ATOM      1  S   UNL     1       0.803  -5.717  -0.085  0.00  0.00    +0.059 S 
ATOM      2  O   UNL     1       0.657  -6.817  -0.972  0.00  0.00    -0.153 OA
ATOM      3  O   UNL     1       1.933  -4.856  -0.119  0.00  0.00    -0.153 OA
ENDROOT
BRANCH   1  13
ATOM      4  C   UNL     1      -5.086  -5.475  -4.111  0.00  0.00    +0.109 C 
ATOM      5  C   UNL     1      -3.886  -5.411  -3.202  0.00  0.00    +0.217 C 
ATOM      6  O   UNL     1      -3.035  -6.273  -3.259  0.00  0.00    -0.276 OA
ATOM      7  N   UNL     1      -3.758  -4.395  -2.325  0.00  0.00    -0.271 N 
ATOM      8  C   UNL     1      -4.719  -3.302  -2.160  0.00  0.00    +0.118 C 
ATOM      9  C   UNL     1      -4.131  -2.411  -1.054  0.00  0.00    +0.056 C 
ATOM     10  C   UNL     1      -2.838  -3.091  -0.664  0.00  0.00    -0.023 A 
ATOM     11  C   UNL     1      -2.690  -4.233  -1.436  0.00  0.00    +0.041 A 
ATOM     12  C   UNL     1      -1.563  -5.036  -1.251  0.00  0.00    +0.053 A 
ATOM     13  C   UNL     1      -0.615  -4.696  -0.310  0.00  0.00    +0.121 A 
ATOM     14  C   UNL     1      -0.773  -3.557   0.459  0.00  0.00    +0.045 A 
ATOM     15  C   UNL     1      -1.883  -2.752   0.275  0.00  0.00    +0.022 A 
ATOM     16 BR   UNL     1       0.530  -3.095   1.749  0.00  0.00    -0.048 Br
ENDBRANCH   1  13
BRANCH   1  17
ATOM     17  N   UNL     1       0.725  -6.334   1.450  0.00  0.00    -0.192 NA
ATOM     18  H   UNL     1       1.407  -6.105   2.101  0.00  0.00    +0.148 HD
BRANCH  17  19
ATOM     19  C   UNL     1      -0.376  -7.225   1.826  0.00  0.00    +0.087 C 
BRANCH  19  20
ATOM     20  C   UNL     1      -0.018  -7.961   3.119  0.00  0.00    -0.062 C 
BRANCH  20  21
ATOM     21  N   UNL     1      -1.121  -8.854   3.496  0.00  0.00    +0.381 N 
ATOM     22  C   UNL     1      -1.271  -9.904   2.479  0.00  0.00    -0.096 C 
ATOM     23  H   UNL     1      -1.977  -8.323   3.559  0.00  0.00    -0.082 HD
BRANCH  21  24
ATOM     24  C   UNL     1      -0.830  -9.470   4.797  0.00  0.00    -0.043 C 
BRANCH  24  25
ATOM     25  C   UNL     1      -2.014 -10.290   5.241  0.00  0.00    -0.064 A 
ATOM     26  C   UNL     1      -3.015  -9.706   5.996  0.00  0.00    +0.002 A 
ATOM     27  C   UNL     1      -4.101 -10.458   6.403  0.00  0.00    +0.000 A 
ATOM     28  C   UNL     1      -4.187 -11.793   6.056  0.00  0.00    +0.000 A 
ATOM     29  C   UNL     1      -3.187 -12.376   5.301  0.00  0.00    +0.000 A 
ATOM     30  C   UNL     1      -2.103 -11.624   4.889  0.00  0.00    +0.002 A 
ENDBRANCH  24  25
ENDBRANCH  21  24
ENDBRANCH  20  21
ENDBRANCH  19  20
ENDBRANCH  17  19
ENDBRANCH   1  17
TORSDOF 7
