REMARK  Name = ZINC16611373
REMARK  13 active torsions:
REMARK  status: ('A' for Active; 'I' for Inactive)
REMARK    1  A    between atoms: C_1  and  C_2
REMARK    2  A    between atoms: C_2  and  CA_3
REMARK    3  A    between atoms: CA_3  and  C_5
REMARK    4  A    between atoms: CA_3  and  N_50
REMARK    5  A    between atoms: C_5  and  O_6
REMARK    6  A    between atoms: C_7  and  C_8
REMARK    7  A    between atoms: C_7  and  N_50
REMARK    8  A    between atoms: C_10  and  O_25
REMARK    9  A    between atoms: C_11  and  O_15
REMARK   10  A    between atoms: O_15  and  C_16
REMARK   11  A    between atoms: C_16  and  C_17
REMARK   12  A    between atoms: O_25  and  C_26
REMARK   13  A    between atoms: C_26  and  C_27
REMARK                            x       y       z     vdW  Elec       q    Type
REMARK                         _______ _______ _______ _____ _____    ______ ____
ROOT
ATOM      1  C   UNL     1       1.791  -2.298   2.363  0.00  0.00    -0.060 A 
ATOM      2  C   UNL     1       1.024  -3.005   3.270  0.00  0.00    +0.051 A 
ATOM      3  C   UNL     1       1.581  -3.435   4.463  0.00  0.00    +0.163 A 
ATOM      4  C   UNL     1       2.915  -3.154   4.746  0.00  0.00    +0.176 A 
ATOM      5  C   UNL     1       3.679  -2.445   3.833  0.00  0.00    +0.063 A 
ATOM      6  C   UNL     1       3.117  -2.023   2.640  0.00  0.00    +0.021 A 
ATOM      7 BR   UNL     1       5.491  -2.059   4.213  0.00  0.00    -0.046 Br
ENDROOT
BRANCH   1   8
ATOM      8  C   UNL     1       1.183  -1.831   1.066  0.00  0.00    -0.046 C 
BRANCH   8   9
ATOM      9  N   UNL     1       0.606  -0.487   1.258  0.00  0.00    +0.385 N 
ATOM     10  H1  UNL     1      -0.116  -0.529   1.987  0.00  0.00    -0.085 HD
ATOM     11  H2  UNL     1       1.348   0.161   1.548  0.00  0.00    -0.085 HD
BRANCH   9  12
ATOM     12  CA  UNL     1       0.002  -0.004   0.002  0.00  0.00    -0.046 C 
BRANCH  12  14
ATOM     13  C   UNL     1       1.417   2.055  -0.000  0.00  0.00    +0.002 C 
ATOM     14  C   UNL     1      -0.019   1.526   0.010  0.00  0.00    -0.017 C 
ENDBRANCH  12  14
BRANCH  12  15
ATOM     15  C   UNL     1      -1.429  -0.533  -0.113  0.00  0.00    +0.140 C 
BRANCH  15  16
ATOM     16  O   UNL     1      -2.227   0.020   0.936  0.00  0.00    -0.397 OA
ATOM     17  H   UNL     1      -3.148  -0.272   0.925  0.00  0.00    +0.209 HD
ENDBRANCH  15  16
ENDBRANCH  12  15
ENDBRANCH   9  12
ENDBRANCH   8   9
ENDBRANCH   1   8
BRANCH   4  18
ATOM     18  O   UNL     1       3.466  -3.574   5.916  0.00  0.00    -0.483 OA
BRANCH  18  19
ATOM     19  C   UNL     1       4.078  -4.866   5.918  0.00  0.00    +0.266 C 
BRANCH  19  20
ATOM     20  C   UNL     1       4.630  -5.158   7.289  0.00  0.00    +0.008 A 
ATOM     21  C   UNL     1       4.495  -4.226   8.302  0.00  0.00    +0.010 A 
ATOM     22  C   UNL     1       5.001  -4.494   9.559  0.00  0.00    +0.020 A 
ATOM     23  C   UNL     1       5.643  -5.694   9.807  0.00  0.00    +0.042 A 
ATOM     24  C   UNL     1       5.778  -6.627   8.794  0.00  0.00    +0.040 A 
ATOM     25  C   UNL     1       5.267  -6.361   7.536  0.00  0.00    +0.049 A 
ATOM     26 CL   UNL     1       5.431  -7.534   6.267  0.00  0.00    -0.083 Cl
ATOM     27 CL   UNL     1       6.278  -6.030  11.387  0.00  0.00    -0.083 Cl
ENDBRANCH  19  20
ENDBRANCH  18  19
ENDBRANCH   4  18
BRANCH   3  28
ATOM     28  O   UNL     1       0.828  -4.131   5.356  0.00  0.00    -0.489 OA
BRANCH  28  29
ATOM     29  C   UNL     1      -0.533  -4.383   4.999  0.00  0.00    +0.226 C 
ATOM     30  C   UNL     1      -1.216  -5.171   6.118  0.00  0.00    +0.048 C 
ENDBRANCH  28  29
ENDBRANCH   3  28
TORSDOF 11
