REMARK  Name = ZINC35645253
REMARK  6 active torsions:
REMARK  status: ('A' for Active; 'I' for Inactive)
REMARK    1  A    between atoms: C_1  and  C_2
REMARK    2  A    between atoms: C_7  and  N_8
REMARK    3  A    between atoms: C_14  and  C_15
REMARK    4  A    between atoms: C_18  and  O_21
REMARK    5  A    between atoms: O_21  and  C_22
REMARK    6  A    between atoms: C_22  and  C_23
REMARK                            x       y       z     vdW  Elec       q    Type
REMARK                         _______ _______ _______ _____ _____    ______ ____
ROOT
ATOM      1  N   UNL     1       2.805  -0.963   2.684  0.00  0.00    -0.225 NA
ATOM      2  C   UNL     1       2.178  -1.405   3.752  0.00  0.00    +0.166 C 
ATOM      3  N   UNL     1       2.320  -0.996   5.060  0.00  0.00    -0.260 N 
ATOM      4  C   UNL     1       1.603  -1.552   6.021  0.00  0.00    +0.256 C 
ATOM      5  O   UNL     1       1.716  -1.203   7.182  0.00  0.00    -0.269 OA
ATOM      6  C   UNL     1       0.661  -2.616   5.624  0.00  0.00    +0.078 C 
ATOM      7  C   UNL     1      -0.186  -3.347   6.392  0.00  0.00    +0.028 C 
ATOM      8  S   UNL     1       0.929  -2.676   3.858  0.00  0.00    -0.049 S 
ATOM      9  H   UNL     1       2.952  -0.293   5.277  0.00  0.00    +0.157 HD
ENDROOT
BRANCH   1  16
ATOM     10  C   UNL     1       4.863  -1.853   0.938  0.00  0.00    +0.046 C 
ATOM     11  C   UNL     1       3.408  -1.856   0.544  0.00  0.00    -0.025 A 
ATOM     12  C   UNL     1       3.031  -2.307  -0.704  0.00  0.00    +0.005 A 
ATOM     13  C   UNL     1       1.696  -2.309  -1.068  0.00  0.00    +0.000 A 
ATOM     14  C   UNL     1       0.730  -1.860  -0.184  0.00  0.00    +0.002 A 
ATOM     15  C   UNL     1       1.093  -1.406   1.067  0.00  0.00    +0.028 A 
ATOM     16  C   UNL     1       2.438  -1.406   1.443  0.00  0.00    +0.069 A 
ENDBRANCH   1  16
BRANCH   7  17
ATOM     17  C   UNL     1      -0.385  -2.996   7.804  0.00  0.00    -0.024 A 
ATOM     18  C   UNL     1      -0.431  -1.652   8.195  0.00  0.00    +0.011 A 
ATOM     19  C   UNL     1      -0.618  -1.329   9.520  0.00  0.00    +0.046 A 
ATOM     20  C   UNL     1      -0.760  -2.335  10.470  0.00  0.00    +0.121 A 
ATOM     21  C   UNL     1      -0.715  -3.670  10.088  0.00  0.00    +0.046 A 
ATOM     22  C   UNL     1      -0.534  -4.005   8.764  0.00  0.00    +0.011 A 
BRANCH  20  23
ATOM     23  O   UNL     1      -0.944  -2.010  11.775  0.00  0.00    -0.487 OA
BRANCH  23  24
ATOM     24  C   UNL     1      -1.083  -3.092  12.699  0.00  0.00    +0.264 C 
BRANCH  24  25
ATOM     25  C   UNL     1      -1.277  -2.544  14.089  0.00  0.00    -0.010 A 
ATOM     26  C   UNL     1      -0.180  -2.295  14.893  0.00  0.00    +0.008 A 
ATOM     27  C   UNL     1      -0.357  -1.792  16.168  0.00  0.00    +0.020 A 
ATOM     28  C   UNL     1      -1.633  -1.538  16.640  0.00  0.00    +0.041 A 
ATOM     29  C   UNL     1      -2.730  -1.786  15.835  0.00  0.00    +0.020 A 
ATOM     30  C   UNL     1      -2.551  -2.284  14.558  0.00  0.00    +0.008 A 
ATOM     31 CL   UNL     1      -1.856  -0.906  18.242  0.00  0.00    -0.084 Cl
ENDBRANCH  24  25
ENDBRANCH  23  24
ENDBRANCH  20  23
ENDBRANCH   7  17
TORSDOF 5
