REMARK  Name = ZINC13455390
REMARK  5 active torsions:
REMARK  status: ('A' for Active; 'I' for Inactive)
REMARK    1  A    between atoms: C_3  and  O_16
REMARK    2  A    between atoms: C_6  and  C_7
REMARK    3  A    between atoms: O_16  and  S_17
REMARK    4  A    between atoms: S_17  and  C_20
REMARK    5  A    between atoms: C_23  and  C_26
REMARK                            x       y       z     vdW  Elec       q    Type
REMARK                         _______ _______ _______ _____ _____    ______ ____
ROOT
ATOM      1  C   UNL     1       4.544  -3.597  -2.738  0.00  0.00    +0.012 A 
ATOM      2  C   UNL     1       3.335  -3.749  -2.094  0.00  0.00    +0.049 A 
ATOM      3  C   UNL     1       2.407  -2.717  -2.103  0.00  0.00    +0.157 A 
ATOM      4  C   UNL     1       2.690  -1.529  -2.764  0.00  0.00    +0.049 A 
ATOM      5  C   UNL     1       3.899  -1.367  -3.406  0.00  0.00    +0.012 A 
ATOM      6  C   UNL     1       4.835  -2.402  -3.400  0.00  0.00    -0.022 A 
ENDROOT
BRANCH   6   7
ATOM      7  C   UNL     1       6.130  -2.235  -4.091  0.00  0.00    -0.041 C 
ATOM      8  C   UNL     1       6.378  -3.008  -5.122  0.00  0.00    -0.004 C 
ATOM      9  C   UNL     1       7.657  -2.953  -5.910  0.00  0.00    +0.137 C 
ATOM     10  N   UNL     1       8.423  -1.766  -5.505  0.00  0.00    -0.282 N 
ATOM     11  C   UNL     1       8.497  -1.467  -4.064  0.00  0.00    +0.114 C 
ATOM     12  C   UNL     1       7.076  -1.197  -3.565  0.00  0.00    +0.054 C 
ATOM     13  C   UNL     1       9.033  -0.982  -6.416  0.00  0.00    +0.300 C 
ATOM     14  O   UNL     1       9.580   0.045  -6.064  0.00  0.00    -0.253 OA
ATOM     15  N   UNL     1       9.037  -1.337  -7.716  0.00  0.00    -0.313 N 
ATOM     16  H   UNL     1       8.540  -2.117  -8.007  0.00  0.00    +0.146 HD
ATOM     17  H   UNL     1       9.537  -0.811  -8.361  0.00  0.00    +0.146 HD
ENDBRANCH   6   7
BRANCH   3  18
ATOM     18  O   UNL     1       1.216  -2.871  -1.467  0.00  0.00    -0.342 OA
BRANCH  18  19
ATOM     19  S   UNL     1       1.230  -2.431  -0.010  0.00  0.00    +0.151 S 
ATOM     20  O   UNL     1       2.484  -2.834   0.523  0.00  0.00    -0.131 OA
ATOM     21  O   UNL     1      -0.007  -2.848   0.552  0.00  0.00    -0.131 OA
BRANCH  19  22
ATOM     22  C   UNL     1       1.221  -0.669   0.002  0.00  0.00    +0.128 A 
ATOM     23  C   UNL     1       0.017   0.013   0.021  0.00  0.00    +0.031 A 
ATOM     24  C   UNL     1       0.003   1.393   0.030  0.00  0.00    +0.017 A 
ATOM     25  C   UNL     1       1.206   2.100   0.022  0.00  0.00    +0.063 A 
ATOM     26  C   UNL     1       2.417   1.405   0.003  0.00  0.00    +0.017 A 
ATOM     27  C   UNL     1       2.417   0.026  -0.007  0.00  0.00    +0.031 A 
BRANCH  25  28
ATOM     28  C   UNL     1       1.199   3.577   0.032  0.00  0.00    +0.387 C 
ATOM     29  O   UNL     1       0.144   4.179   0.048  0.00  0.00    -0.241 OA
ATOM     30  O   UNL     1       2.362   4.257   0.023  0.00  0.00    -0.241 OA
ENDBRANCH  25  28
ENDBRANCH  19  22
ENDBRANCH  18  19
ENDBRANCH   3  18
TORSDOF 5
