REMARK  Name = ZINC40650106
REMARK  6 active torsions:
REMARK  status: ('A' for Active; 'I' for Inactive)
REMARK    1  A    between atoms: C_4  and  S_7
REMARK    2  A    between atoms: S_7  and  C_8
REMARK    3  A    between atoms: C_9  and  N_25
REMARK    4  A    between atoms: C_10  and  N_14
REMARK    5  A    between atoms: N_14  and  N_15
REMARK    6  A    between atoms: C_16  and  C_18
REMARK                            x       y       z     vdW  Elec       q    Type
REMARK                         _______ _______ _______ _____ _____    ______ ____
ROOT
ATOM      1  C   UNL     1       3.483  -2.523   0.104  0.00  0.00    +0.137 A 
ATOM      2  C   UNL     1       4.458  -3.508   0.233  0.00  0.00    +0.199 A 
ATOM      3  C   UNL     1       4.047  -4.832   0.344  0.00  0.00    +0.170 A 
ATOM      4  N   UNL     1       2.744  -5.108   0.322  0.00  0.00    -0.217 NA
ATOM      5  C   UNL     1       1.851  -4.147   0.198  0.00  0.00    +0.224 A 
ATOM      6  N   UNL     1       2.200  -2.881   0.096  0.00  0.00    -0.226 NA
ENDROOT
BRANCH   2   7
ATOM      7  N   UNL     1       5.896  -3.155   0.252  0.00  0.00    +0.063 N 
ATOM      8  O   UNL     1       6.445  -2.912   1.302  0.00  0.00    -0.126 OA
ATOM      9  O   UNL     1       6.521  -3.110  -0.782  0.00  0.00    -0.126 OA
ENDBRANCH   2   7
BRANCH   3  10
ATOM     10  N   UNL     1       4.979  -5.850   0.474  0.00  0.00    -0.246 N 
ATOM     11  H   UNL     1       5.926  -5.641   0.489  0.00  0.00    +0.172 HD
BRANCH  10  12
ATOM     12  N   UNL     1       4.553  -7.180   0.585  0.00  0.00    -0.231 N 
ATOM     13  C   UNL     1       5.460  -8.169   0.712  0.00  0.00    +0.261 C 
ATOM     14  O   UNL     1       6.646  -7.907   0.730  0.00  0.00    -0.269 OA
ATOM     15  H   UNL     1       3.606  -7.389   0.571  0.00  0.00    +0.173 HD
BRANCH  13  16
ATOM     16  C   UNL     1       5.010  -9.572   0.829  0.00  0.00    +0.052 A 
ATOM     17  C   UNL     1       3.648  -9.877   0.802  0.00  0.00    +0.014 A 
ATOM     18  C   UNL     1       3.236 -11.188   0.912  0.00  0.00    +0.001 A 
ATOM     19  C   UNL     1       4.168 -12.202   1.048  0.00  0.00    +0.001 A 
ATOM     20  C   UNL     1       5.519 -11.908   1.075  0.00  0.00    +0.016 A 
ATOM     21  C   UNL     1       5.947 -10.600   0.961  0.00  0.00    +0.030 A 
ATOM     22 BR   UNL     1       7.795 -10.201   0.990  0.00  0.00    -0.050 Br
ENDBRANCH  13  16
ENDBRANCH  10  12
ENDBRANCH   3  10
BRANCH   1  23
ATOM     23  S   UNL     1       3.939  -0.827  -0.041  0.00  0.00    -0.068 S 
BRANCH  23  27
ATOM     24  C   UNL     1      -0.017   1.379  -0.004  0.00  0.00    +0.000 A 
ATOM     25  C   UNL     1       0.594   1.037   1.189  0.00  0.00    +0.001 A 
ATOM     26  C   UNL     1       1.800   0.365   1.182  0.00  0.00    +0.015 A 
ATOM     27  C   UNL     1       2.400   0.031  -0.026  0.00  0.00    +0.014 A 
ATOM     28  C   UNL     1       1.783   0.375  -1.223  0.00  0.00    +0.015 A 
ATOM     29  C   UNL     1       0.577   1.048  -1.208  0.00  0.00    +0.001 A 
ENDBRANCH  23  27
ENDBRANCH   1  23
TORSDOF 6
