REMARK  Name = ZINC21808216
REMARK  6 active torsions:
REMARK  status: ('A' for Active; 'I' for Inactive)
REMARK    1  A    between atoms: C_1  and  C_2
REMARK    2  A    between atoms: C_2  and  C_3
REMARK    3  A    between atoms: C_6  and  N_9
REMARK    4  A    between atoms: C_18  and  C_19
REMARK    5  A    between atoms: C_18  and  C_20
REMARK    6  A    between atoms: N_22  and  C_23
REMARK                            x       y       z     vdW  Elec       q    Type
REMARK                         _______ _______ _______ _____ _____    ______ ____
ROOT
ATOM      1  N   UNL     1      -2.182  -0.766  -0.807  0.00  0.00    -0.250 N 
ATOM      2  C   UNL     1      -3.253  -1.481  -1.226  0.00  0.00    +0.268 C 
ATOM      3  O   UNL     1      -3.172  -2.669  -1.480  0.00  0.00    -0.268 OA
ATOM      4  C   UNL     1      -4.516  -0.745  -1.358  0.00  0.00    +0.107 A 
ATOM      5  C   UNL     1      -5.785  -1.189  -1.584  0.00  0.00    +0.048 A 
ATOM      6  C   UNL     1      -6.611  -0.072  -1.615  0.00  0.00    +0.038 A 
ATOM      7  C   UNL     1      -5.842   1.086  -1.419  0.00  0.00    +0.057 A 
ATOM      8  N   UNL     1      -4.540   0.644  -1.276  0.00  0.00    -0.333 N 
ATOM      9  C   UNL     1      -3.318   1.428  -1.077  0.00  0.00    +0.158 C 
ATOM     10  C   UNL     1      -2.312   0.590  -0.288  0.00  0.00    +0.133 C 
ATOM     11  C   UNL     1      -2.766   0.520   1.171  0.00  0.00    +0.044 C 
ATOM     12  C   UNL     1      -6.554   2.294  -1.424  0.00  0.00    +0.034 A 
ATOM     13  C   UNL     1      -7.891   2.294  -1.613  0.00  0.00    +0.048 A 
ATOM     14  S   UNL     1      -8.259   0.558  -1.801  0.00  0.00    -0.095 S 
ENDROOT
BRANCH   1  18
ATOM     15  C   UNL     1       1.601  -2.497  -1.007  0.00  0.00    -0.048 A 
ATOM     16  C   UNL     1       1.104  -2.064   0.209  0.00  0.00    +0.005 A 
ATOM     17  C   UNL     1      -0.150  -1.490   0.279  0.00  0.00    +0.024 A 
ATOM     18  C   UNL     1      -0.912  -1.347  -0.874  0.00  0.00    +0.038 A 
ATOM     19  C   UNL     1      -0.412  -1.788  -2.092  0.00  0.00    +0.024 A 
ATOM     20  C   UNL     1       0.845  -2.357  -2.156  0.00  0.00    +0.005 A 
BRANCH  15  22
ATOM     21  C   UNL     1       2.851  -4.635  -0.879  0.00  0.00    +0.009 C 
ATOM     22  C   UNL     1       2.970  -3.123  -1.079  0.00  0.00    +0.032 C 
ENDBRANCH  15  22
ENDBRANCH   1  18
BRANCH  10  23
ATOM     23  C   UNL     1      -0.965   1.265  -0.346  0.00  0.00    +0.239 C 
ATOM     24  O   UNL     1      -0.578   1.928   0.593  0.00  0.00    -0.273 OA
ATOM     25  N   UNL     1      -0.191   1.131  -1.441  0.00  0.00    -0.311 N 
ATOM     26  H   UNL     1      -0.574   0.598  -2.324  0.00  0.00    +0.149 HD
BRANCH  25  27
ATOM     27  C   UNL     1       1.161   1.695  -1.456  0.00  0.00    +0.073 C 
ATOM     28  C   UNL     1       1.099   3.154  -1.913  0.00  0.00    +0.022 C 
ATOM     29  C   UNL     1       2.511   3.743  -1.928  0.00  0.00    +0.002 C 
ATOM     30  C   UNL     1       3.388   2.943  -2.894  0.00  0.00    +0.000 C 
ATOM     31  C   UNL     1       3.449   1.484  -2.437  0.00  0.00    +0.002 C 
ATOM     32  C   UNL     1       2.037   0.895  -2.421  0.00  0.00    +0.022 C 
ENDBRANCH  25  27
ENDBRANCH  10  23
TORSDOF 4
