REMARK  Name = ZINC09645424
REMARK  5 active torsions:
REMARK  status: ('A' for Active; 'I' for Inactive)
REMARK    1  A    between atoms: C_5  and  C_8
REMARK    2  A    between atoms: C_8  and  O_10
REMARK    3  A    between atoms: O_10  and  C_11
REMARK    4  A    between atoms: C_11  and  C_12
REMARK    5  A    between atoms: N_17  and  C_18
REMARK                            x       y       z     vdW  Elec       q    Type
REMARK                         _______ _______ _______ _____ _____    ______ ____
ROOT
ATOM      1  C   UNL     1       3.554   2.059  -0.021  0.00  0.00    +0.258 C 
ATOM      2  O   UNL     1       3.378   3.259  -0.013  0.00  0.00    -0.272 OA
ATOM      3  N   UNL     1       4.806   1.561  -0.035  0.00  0.00    -0.237 N 
ATOM      4  C   UNL     1       5.863   2.397  -0.041  0.00  0.00    +0.306 C 
ATOM      5  O   UNL     1       5.688   3.599  -0.033  0.00  0.00    -0.252 OA
ATOM      6  N   UNL     1       7.116   1.899  -0.056  0.00  0.00    -0.294 N 
ATOM      7  H   UNL     1       4.946   0.602  -0.042  0.00  0.00    +0.159 HD
ATOM      8  H   UNL     1       7.256   0.939  -0.062  0.00  0.00    +0.151 HD
ENDROOT
BRANCH   6   9
ATOM      9  C   UNL     1       8.265   2.807  -0.062  0.00  0.00    +0.037 C 
ATOM     10  C   UNL     1       8.206   3.696  -1.306  0.00  0.00    +0.029 C 
ATOM     11  C   UNL     1       9.407   4.644  -1.312  0.00  0.00    -0.008 C 
ATOM     12  C   UNL     1      10.701   3.828  -1.329  0.00  0.00    +0.007 C 
ATOM     13  C   UNL     1      10.760   2.939  -0.085  0.00  0.00    -0.008 C 
ATOM     14  C   UNL     1       9.559   1.991  -0.079  0.00  0.00    +0.029 C 
ATOM     15  C   UNL     1      10.725   3.815   1.169  0.00  0.00    +0.007 C 
ATOM     16  C   UNL     1       9.431   4.631   1.186  0.00  0.00    -0.008 C 
ATOM     17  C   UNL     1       9.372   5.519  -0.058  0.00  0.00    +0.007 C 
ATOM     18  C   UNL     1       8.230   3.682   1.193  0.00  0.00    +0.029 C 
ENDBRANCH   6   9
BRANCH   1  19
ATOM     19  C   UNL     1       2.371   1.125  -0.015  0.00  0.00    +0.328 C 
BRANCH  19  20
ATOM     20  O   UNL     1       1.143   1.899   0.001  0.00  0.00    -0.451 OA
BRANCH  20  21
ATOM     21  C   UNL     1      -0.014   1.210   0.009  0.00  0.00    +0.360 C 
ATOM     22  O   UNL     1       0.002  -0.004   0.002  0.00  0.00    -0.243 OA
BRANCH  21  27
ATOM     23  C   UNL     1      -3.704   1.905   0.030  0.00  0.00    +0.025 A 
ATOM     24  C   UNL     1      -3.670   3.290   0.037  0.00  0.00    +0.041 A 
ATOM     25  C   UNL     1      -2.444   3.941   0.035  0.00  0.00    +0.130 A 
ATOM     26  N   UNL     1      -1.318   3.261   0.032  0.00  0.00    -0.227 NA
ATOM     27  C   UNL     1      -1.306   1.933   0.019  0.00  0.00    +0.167 A 
ATOM     28  C   UNL     1      -2.501   1.213   0.021  0.00  0.00    +0.073 A 
ATOM     29 CL   UNL     1      -2.483  -0.522   0.012  0.00  0.00    -0.081 Cl
ATOM     30 CL   UNL     1      -2.396   5.676   0.045  0.00  0.00    -0.062 Cl
ENDBRANCH  21  27
ENDBRANCH  20  21
ENDBRANCH  19  20
ENDBRANCH   1  19
TORSDOF 5
