REMARK  Name = ZINC39359384
REMARK  9 active torsions:
REMARK  status: ('A' for Active; 'I' for Inactive)
REMARK    1  A    between atoms: C_1  and  O_2
REMARK    2  A    between atoms: O_2  and  C_3
REMARK    3  A    between atoms: C_5  and  C_13
REMARK    4  A    between atoms: C_7  and  O_11
REMARK    5  A    between atoms: C_8  and  O_9
REMARK    6  A    between atoms: O_9  and  C_10
REMARK    7  A    between atoms: O_11  and  C_12
REMARK    8  A    between atoms: C_18  and  C_28
REMARK    9  A    between atoms: C_21  and  O_27
REMARK                            x       y       z     vdW  Elec       q    Type
REMARK                         _______ _______ _______ _____ _____    ______ ____
ROOT
ATOM      1  C   UNL     1       2.402   0.386  -4.230  0.00  0.00    +0.032 C 
ATOM      2  C   UNL     1       3.893   0.070  -4.345  0.00  0.00    +0.059 C 
ATOM      3  C   UNL     1       4.508   0.892  -5.460  0.00  0.00    +0.014 C 
ATOM      4  C   UNL     1       3.770   1.227  -6.540  0.00  0.00    +0.024 C 
ATOM      5  C   UNL     1       4.337   2.048  -7.688  0.00  0.00    +0.095 C 
ATOM      6  C   UNL     1       5.817   2.145  -7.467  0.00  0.00    +0.049 C 
ATOM      7  C   UNL     1       6.872   2.082  -8.249  0.00  0.00    +0.235 C 
ATOM      8  N   UNL     1       8.011   2.102  -7.503  0.00  0.00    -0.114 NA
ATOM      9  N   UNL     1       7.824   2.219  -6.285  0.00  0.00    -0.157 NA
ATOM     10  C   UNL     1       6.383   2.352  -6.059  0.00  0.00    +0.245 C 
ATOM     11  N   UNL     1       5.824   1.239  -5.287  0.00  0.00    -0.321 N 
ATOM     12  C   UNL     1       2.424   0.841  -6.654  0.00  0.00    +0.162 C 
ATOM     13  O   UNL     1       1.800   1.149  -7.651  0.00  0.00    -0.292 OA
ATOM     14  C   UNL     1       1.736   0.057  -5.571  0.00  0.00    +0.088 C 
ATOM     15  H   UNL     1       6.380   0.752  -4.659  0.00  0.00    +0.148 HD
ENDROOT
BRANCH   1  18
ATOM     16  C   UNL     1       0.606  -0.608  -1.056  0.00  0.00    +0.165 A 
ATOM     17  C   UNL     1       1.173   0.160  -2.063  0.00  0.00    +0.053 A 
ATOM     18  C   UNL     1       1.787  -0.452  -3.139  0.00  0.00    -0.036 A 
ATOM     19  C   UNL     1       1.839  -1.831  -3.217  0.00  0.00    +0.053 A 
ATOM     20  C   UNL     1       1.275  -2.606  -2.215  0.00  0.00    +0.165 A 
ATOM     21  C   UNL     1       0.661  -1.994  -1.128  0.00  0.00    +0.204 A 
BRANCH  16  23
ATOM     22  C   UNL     1      -0.017   1.425   0.010  0.00  0.00    +0.277 C 
ATOM     23  O   UNL     1       0.002  -0.004   0.002  0.00  0.00    -0.491 OA
ENDBRANCH  16  23
BRANCH  21  24
ATOM     24  O   UNL     1       0.111  -2.751  -0.140  0.00  0.00    -0.488 OA
ATOM     25  C   UNL     1      -1.260  -3.124  -0.295  0.00  0.00    +0.277 C 
ENDBRANCH  21  24
BRANCH  20  26
ATOM     26  O   UNL     1       1.326  -3.963  -2.293  0.00  0.00    -0.491 OA
ATOM     27  C   UNL     1       1.977  -4.523  -3.435  0.00  0.00    +0.277 C 
ENDBRANCH  20  26
ENDBRANCH   1  18
BRANCH   5  28
ATOM     28  C   UNL     1       4.055   1.362  -8.999  0.00  0.00    +0.002 A 
ATOM     29  C   UNL     1       3.355   1.817 -10.068  0.00  0.00    +0.012 A 
ATOM     30  C   UNL     1       3.224   1.005 -11.178  0.00  0.00    +0.008 A 
ATOM     31  C   UNL     1       3.800  -0.223 -11.167  0.00  0.00    +0.045 A 
ATOM     32  S   UNL     1       4.562  -0.258  -9.553  0.00  0.00    -0.101 S 
ENDBRANCH   5  28
BRANCH   7  33
ATOM     33  O   UNL     1       6.832   2.008  -9.605  0.00  0.00    -0.491 OA
ATOM     34  H   UNL     1       7.703   1.968 -10.023  0.00  0.00    +0.294 HD
ENDBRANCH   7  33
TORSDOF 6
