REMARK  Name = ZINC31348423
REMARK  12 active torsions:
REMARK  status: ('A' for Active; 'I' for Inactive)
REMARK    1  A    between atoms: C_1  and  C_2
REMARK    2  A    between atoms: C_2  and  N_3
REMARK    3  A    between atoms: N_3  and  C_4
REMARK    4  A    between atoms: C_4  and  C_5
REMARK    5  A    between atoms: N_7  and  C_8
REMARK    6  A    between atoms: C_16  and  C_18
REMARK    7  A    between atoms: C_19  and  C_20
REMARK    8  A    between atoms: C_21  and  C_30
REMARK    9  A    between atoms: N_23  and  C_26
REMARK   10  A    between atoms: C_26  and  C_27
REMARK   11  A    between atoms: C_27  and  C_28
REMARK   12  A    between atoms: C_27  and  C_29
REMARK                            x       y       z     vdW  Elec       q    Type
REMARK                         _______ _______ _______ _____ _____    ______ ____
ROOT
ATOM      1  N   UNL     1       3.314   7.242   7.305  0.00  0.00    -0.289 N 
ATOM      2  C   UNL     1       3.703   6.077   6.751  0.00  0.00    +0.240 C 
ATOM      3  O   UNL     1       2.880   5.214   6.508  0.00  0.00    -0.271 OA
ENDROOT
BRANCH   1   5
ATOM      4  C   UNL     1       4.452   9.202   6.385  0.00  0.00    +0.024 C 
ATOM      5  C   UNL     1       4.305   8.281   7.598  0.00  0.00    +0.105 C 
ENDBRANCH   1   5
BRANCH   2   6
ATOM      6  C   UNL     1       5.071   5.857   6.451  0.00  0.00    +0.068 C 
ATOM      7  C   UNL     1       5.461   4.689   5.895  0.00  0.00    +0.018 C 
BRANCH   7   8
ATOM      8  C   UNL     1       6.878   4.460   5.584  0.00  0.00    +0.034 A 
ATOM      9  C   UNL     1       7.645   3.327   5.942  0.00  0.00    +0.069 A 
ATOM     10  N   UNL     1       8.855   3.497   5.487  0.00  0.00    -0.175 NA
ATOM     11  N   UNL     1       8.924   4.728   4.825  0.00  0.00    -0.252 N 
ATOM     12  C   UNL     1       7.717   5.317   4.890  0.00  0.00    +0.134 A 
ATOM     13 CL   UNL     1       7.288   6.862   4.226  0.00  0.00    -0.062 Cl
ATOM     14  C   UNL     1       7.150   2.131   6.715  0.00  0.00    +0.068 C 
BRANCH  11  15
ATOM     15  C   UNL     1      10.113   5.284   4.174  0.00  0.00    +0.148 C 
BRANCH  15  16
ATOM     16  C   UNL     1      10.152   4.834   2.712  0.00  0.00    +0.004 C 
ATOM     17  C   UNL     1      11.324   5.514   2.001  0.00  0.00    +0.009 C 
ATOM     18  C   UNL     1      10.330   3.316   2.651  0.00  0.00    +0.009 C 
ENDBRANCH  15  16
ENDBRANCH  11  15
ENDBRANCH   7   8
ENDBRANCH   2   6
BRANCH   1  19
ATOM     19  C   UNL     1       1.901   7.470   7.615  0.00  0.00    +0.204 C 
BRANCH  19  20
ATOM     20  C   UNL     1       1.611   6.997   9.017  0.00  0.00    +0.235 C 
ATOM     21  O   UNL     1       2.498   6.517   9.690  0.00  0.00    -0.274 OA
ATOM     22  N   UNL     1       0.366   7.108   9.521  0.00  0.00    -0.280 N 
ATOM     23  H   UNL     1      -0.418   7.620   8.944  0.00  0.00    +0.155 HD
BRANCH  22  24
ATOM     24  C   UNL     1       0.071   6.571  10.782  0.00  0.00    +0.105 A 
ATOM     25  C   UNL     1      -0.322   5.242  10.899  0.00  0.00    +0.147 A 
ATOM     26  C   UNL     1      -0.607   4.714  12.145  0.00  0.00    +0.040 A 
ATOM     27  C   UNL     1      -0.512   5.509  13.273  0.00  0.00    +0.006 A 
ATOM     28  C   UNL     1      -0.128   6.832  13.160  0.00  0.00    +0.040 A 
ATOM     29  C   UNL     1       0.164   7.366  11.918  0.00  0.00    +0.147 A 
ATOM     30  F   UNL     1       0.539   8.659  11.809  0.00  0.00    -0.203 F 
ATOM     31  F   UNL     1      -0.419   4.467   9.797  0.00  0.00    -0.203 F 
ENDBRANCH  22  24
ENDBRANCH  19  20
ENDBRANCH   1  19
TORSDOF 8
