REMARK  Name = ZINC14549605
REMARK  3 active torsions:
REMARK  status: ('A' for Active; 'I' for Inactive)
REMARK    1  A    between atoms: C_1  and  C_2
REMARK    2  A    between atoms: C_5  and  N_25
REMARK    3  A    between atoms: C_9  and  C_18
REMARK                            x       y       z     vdW  Elec       q    Type
REMARK                         _______ _______ _______ _____ _____    ______ ____
ROOT
ATOM      1  C   UNL     1      -1.334   2.121   0.020  0.00  0.00    +0.045 C 
ATOM      2  C   UNL     1      -0.017   1.390   0.010  0.00  0.00    -0.029 A 
ATOM      3  C   UNL     1       1.163   2.103   0.002  0.00  0.00    +0.007 A 
ATOM      4  C   UNL     1       2.372   1.431  -0.014  0.00  0.00    +0.033 A 
ATOM      5  C   UNL     1       2.394   0.051  -0.021  0.00  0.00    +0.132 A 
ATOM      6  C   UNL     1       1.212  -0.676  -0.012  0.00  0.00    +0.011 A 
ATOM      7  C   UNL     1       0.002  -0.004   0.002  0.00  0.00    +0.037 A 
ATOM      8  N   UNL     1      -1.220  -0.675   0.006  0.00  0.00    -0.336 N 
ATOM      9  C   UNL     1      -1.115  -2.013   0.590  0.00  0.00    +0.105 C 
ATOM     10  C   UNL     1      -0.081  -2.828  -0.189  0.00  0.00    +0.029 C 
ATOM     11  C   UNL     1       1.307  -2.174  -0.017  0.00  0.00    +0.051 C 
ATOM     12  C   UNL     1       1.790  -2.680   1.323  0.00  0.00    -0.023 C 
ATOM     13  C   UNL     1       1.152  -3.774   1.657  0.00  0.00    -0.030 C 
ATOM     14  C   UNL     1       0.155  -4.158   0.581  0.00  0.00    +0.033 C 
ATOM     15  H   UNL     1      -1.930  -0.131   0.474  0.00  0.00    +0.147 HD
ENDROOT
BRANCH   9  16
ATOM     16  C   UNL     1      -2.454  -2.700   0.518  0.00  0.00    -0.027 A 
ATOM     17  C   UNL     1      -3.245  -2.554  -0.606  0.00  0.00    +0.008 A 
ATOM     18  C   UNL     1      -4.472  -3.188  -0.675  0.00  0.00    +0.038 A 
ATOM     19  C   UNL     1      -4.912  -3.959   0.386  0.00  0.00    +0.123 A 
ATOM     20  C   UNL     1      -4.122  -4.100   1.514  0.00  0.00    +0.038 A 
ATOM     21  C   UNL     1      -2.893  -3.470   1.579  0.00  0.00    +0.008 A 
ATOM     22  F   UNL     1      -6.113  -4.575   0.322  0.00  0.00    -0.205 F 
ENDBRANCH   9  16
BRANCH   5  23
ATOM     23  N   UNL     1       3.692  -0.660  -0.039  0.00  0.00    +0.057 N 
ATOM     24  O   UNL     1       4.733  -0.028  -0.048  0.00  0.00    -0.126 OA
ATOM     25  O   UNL     1       3.719  -1.878  -0.046  0.00  0.00    -0.126 OA
ENDBRANCH   5  23
TORSDOF 2
