REMARK  Name = ZINC03438933
REMARK  7 active torsions:
REMARK  status: ('A' for Active; 'I' for Inactive)
REMARK    1  A    between atoms: C_1  and  C_2
REMARK    2  A    between atoms: C_2  and  C_4
REMARK    3  A    between atoms: C_2  and  O_16
REMARK    4  A    between atoms: N_6  and  C_7
REMARK    5  A    between atoms: O_16  and  C_17
REMARK    6  A    between atoms: C_17  and  C_19
REMARK    7  A    between atoms: C_28  and  O_29
REMARK                            x       y       z     vdW  Elec       q    Type
REMARK                         _______ _______ _______ _____ _____    ______ ____
ROOT
ATOM      1  C   UNL     1       2.144  10.060   1.465  0.00  0.00    +0.062 C 
ATOM      2  C   UNL     1       2.170   9.555   0.021  0.00  0.00    +0.259 C 
ENDROOT
BRANCH   2   3
ATOM      3  C   UNL     1       3.368  10.128  -0.691  0.00  0.00    +0.258 C 
ATOM      4  O   UNL     1       4.209   9.388  -1.155  0.00  0.00    -0.271 OA
ATOM      5  N   UNL     1       3.505  11.464  -0.811  0.00  0.00    -0.282 N 
ATOM      6  H   UNL     1       2.800  12.053  -0.499  0.00  0.00    +0.155 HD
BRANCH   5   7
ATOM      7  C   UNL     1       4.664  12.000  -1.386  0.00  0.00    +0.037 A 
ATOM      8  C   UNL     1       5.178  13.203  -0.920  0.00  0.00    +0.027 A 
ATOM      9  C   UNL     1       6.324  13.731  -1.483  0.00  0.00    +0.051 A 
ATOM     10  C   UNL     1       6.958  13.067  -2.521  0.00  0.00    +0.166 A 
ATOM     11  C   UNL     1       6.442  11.863  -2.994  0.00  0.00    +0.168 A 
ATOM     12  C   UNL     1       5.296  11.332  -2.426  0.00  0.00    +0.072 A 
ATOM     13  O   UNL     1       7.239  11.415  -4.008  0.00  0.00    -0.453 OA
ATOM     14  C   UNL     1       8.012  12.557  -4.423  0.00  0.00    +0.466 C 
ATOM     15  O   UNL     1       8.079  13.373  -3.239  0.00  0.00    -0.453 OA
ENDBRANCH   5   7
ENDBRANCH   2   3
BRANCH   2  16
ATOM     16  O   UNL     1       2.253   8.105   0.018  0.00  0.00    -0.449 OA
BRANCH  16  17
ATOM     17  C   UNL     1       1.089   7.425   0.019  0.00  0.00    +0.343 C 
ATOM     18  O   UNL     1       0.033   8.028   0.022  0.00  0.00    -0.245 OA
BRANCH  17  19
ATOM     19  C   UNL     1       1.096   5.954   0.015  0.00  0.00    +0.101 A 
ATOM     20  C   UNL     1       2.321   5.259   0.010  0.00  0.00    +0.019 A 
ATOM     21  C   UNL     1       2.354   3.904   0.007  0.00  0.00    +0.009 A 
ATOM     22  C   UNL     1       1.154   3.166   0.008  0.00  0.00    -0.014 A 
ATOM     23  C   UNL     1       1.170   1.762   0.003  0.00  0.00    +0.008 A 
ATOM     24  C   UNL     1      -0.005   1.073   0.004  0.00  0.00    +0.001 A 
ATOM     25  C   UNL     1      -1.228   1.741   0.004  0.00  0.00    +0.001 A 
ATOM     26  C   UNL     1      -1.281   3.102   0.013  0.00  0.00    +0.012 A 
ATOM     27  C   UNL     1      -0.089   3.845   0.013  0.00  0.00    +0.024 A 
ATOM     28  C   UNL     1      -0.109   5.255   0.016  0.00  0.00    +0.138 A 
BRANCH  28  29
ATOM     29  O   UNL     1      -1.288   5.922   0.021  0.00  0.00    -0.505 OA
ATOM     30  H   UNL     1      -1.628   6.114   0.905  0.00  0.00    +0.292 HD
ENDBRANCH  28  29
ENDBRANCH  17  19
ENDBRANCH  16  17
ENDBRANCH   2  16
TORSDOF 6
