REMARK  Name = ZINC63547191
REMARK  8 active torsions:
REMARK  status: ('A' for Active; 'I' for Inactive)
REMARK    1  A    between atoms: C_1  and  O_2
REMARK    2  A    between atoms: O_2  and  C_3
REMARK    3  A    between atoms: C_9  and  C_12
REMARK    4  A    between atoms: C_12  and  C_13
REMARK    5  A    between atoms: C_13  and  N_14
REMARK    6  A    between atoms: C_15  and  C_17
REMARK    7  A    between atoms: C_22  and  C_31
REMARK    8  A    between atoms: C_24  and  C_27
REMARK                            x       y       z     vdW  Elec       q    Type
REMARK                         _______ _______ _______ _____ _____    ______ ____
ROOT
ATOM      1  C   UNL     1       0.535  -8.564   2.584  0.00  0.00    +0.185 C 
ATOM      2  C   UNL     1       1.886  -8.153   2.047  0.00  0.00    +0.045 C 
ATOM      3  C   UNL     1       2.779  -8.365   3.036  0.00  0.00    +0.116 C 
ATOM      4  N   UNL     1       4.119  -8.150   3.041  0.00  0.00    -0.342 N 
ATOM      5  C   UNL     1       4.843  -8.418   4.107  0.00  0.00    +0.050 C 
ATOM      6  C   UNL     1       4.229  -8.936   5.274  0.00  0.00    +0.055 C 
ATOM      7  C   UNL     1       2.899  -9.155   5.286  0.00  0.00    +0.133 C 
ATOM      8  N   UNL     1       2.154  -8.872   4.166  0.00  0.00    -0.215 N 
ATOM      9  N   UNL     1       0.805  -9.018   3.960  0.00  0.00    -0.218 NA
ATOM     10  H   UNL     1       0.277  -8.478   4.629  0.00  0.00    +0.146 HD
ATOM     11  H   UNL     1       4.549  -7.795   2.248  0.00  0.00    +0.167 HD
ENDROOT
BRANCH   5  12
ATOM     12  C   UNL     1       6.303  -8.175   4.087  0.00  0.00    -0.001 A 
ATOM     13  C   UNL     1       6.911  -7.659   2.942  0.00  0.00    +0.013 A 
ATOM     14  C   UNL     1       8.272  -7.434   2.928  0.00  0.00    +0.039 A 
ATOM     15  C   UNL     1       9.035  -7.722   4.049  0.00  0.00    +0.123 A 
ATOM     16  C   UNL     1       8.436  -8.235   5.188  0.00  0.00    +0.039 A 
ATOM     17  C   UNL     1       7.075  -8.457   5.215  0.00  0.00    +0.013 A 
ATOM     18  F   UNL     1      10.368  -7.502   4.030  0.00  0.00    -0.205 F 
ENDBRANCH   5  12
BRANCH   1  20
ATOM     19  N   UNL     1      -0.759  -6.798   1.434  0.00  0.00    -0.313 N 
ATOM     20  C   UNL     1      -0.408  -7.389   2.593  0.00  0.00    +0.236 C 
ATOM     21  O   UNL     1      -0.851  -6.975   3.644  0.00  0.00    -0.274 OA
ATOM     22  H   UNL     1      -0.405  -7.128   0.594  0.00  0.00    +0.149 HD
BRANCH  19  23
ATOM     23  C   UNL     1      -1.676  -5.655   1.443  0.00  0.00    +0.108 C 
BRANCH  23  24
ATOM     24  C   UNL     1      -1.908  -5.176   0.009  0.00  0.00    +0.052 C 
BRANCH  24  31
ATOM     25  C   UNL     1      -1.200  -0.637   0.010  0.00  0.00    +0.121 A 
ATOM     26  C   UNL     1      -2.375   0.135   0.020  0.00  0.00    +0.047 A 
ATOM     27  C   UNL     1      -3.607  -0.415   0.028  0.00  0.00    +0.029 A 
ATOM     28  C   UNL     1      -3.753  -1.875   0.027  0.00  0.00    +0.043 A 
ATOM     29  N   UNL     1      -4.809  -2.650   0.034  0.00  0.00    -0.380 N 
ATOM     30  C   UNL     1      -4.362  -4.047   0.029  0.00  0.00    +0.144 C 
ATOM     31  C   UNL     1      -2.851  -4.000   0.018  0.00  0.00    -0.040 C 
ATOM     32  C   UNL     1      -2.516  -2.690   0.016  0.00  0.00    +0.002 A 
ATOM     33  C   UNL     1      -1.226  -1.992   0.003  0.00  0.00    +0.055 A 
ATOM     34  H   UNL     1      -5.731  -2.350   0.042  0.00  0.00    +0.160 HD
BRANCH  25  36
ATOM     35  C   UNL     1      -0.017   1.425   0.010  0.00  0.00    +0.277 C 
ATOM     36  O   UNL     1       0.002  -0.004   0.002  0.00  0.00    -0.495 OA
ENDBRANCH  25  36
ENDBRANCH  24  31
ENDBRANCH  23  24
ENDBRANCH  19  23
ENDBRANCH   1  20
BRANCH   7  37
ATOM     37  C   UNL     1       2.233  -9.706   6.520  0.00  0.00    +0.432 C 
ATOM     38  F   UNL     1       3.193  -9.910   7.517  0.00  0.00    -0.165 F 
ATOM     39  F   UNL     1       1.273  -8.797   6.977  0.00  0.00    -0.165 F 
ATOM     40  F   UNL     1       1.615 -10.923   6.212  0.00  0.00    -0.165 F 
ENDBRANCH   7  37
TORSDOF 7
