REMARK  Name = ZINC66658589
REMARK  8 active torsions:
REMARK  status: ('A' for Active; 'I' for Inactive)
REMARK    1  A    between atoms: C_1  and  C_2
REMARK    2  A    between atoms: C_7  and  C_8
REMARK    3  A    between atoms: C_10  and  C_13
REMARK    4  A    between atoms: C_19  and  C_22
REMARK    5  A    between atoms: C_22  and  N_23
REMARK    6  A    between atoms: C_24  and  C_26
REMARK    7  A    between atoms: C_26  and  C_27
REMARK    8  A    between atoms: C_26  and  C_28
REMARK                            x       y       z     vdW  Elec       q    Type
REMARK                         _______ _______ _______ _____ _____    ______ ____
ROOT
ATOM      1  C   UNL     1       0.625   0.247   6.012  0.00  0.00    +0.265 C 
ATOM      2  O   UNL     1       0.643   1.088   6.891  0.00  0.00    -0.268 OA
ATOM      3  N   UNL     1       0.897  -1.040   6.305  0.00  0.00    -0.296 N 
ATOM      4  C   UNL     1       0.875  -2.067   5.255  0.00  0.00    +0.108 C 
ATOM      5  C   UNL     1       2.210  -2.820   5.274  0.00  0.00    +0.019 C 
ATOM      6  C   UNL     1       2.464  -3.364   6.681  0.00  0.00    +0.008 C 
ATOM      7  C   UNL     1       2.551  -2.201   7.672  0.00  0.00    +0.024 C 
ATOM      8  C   UNL     1       1.227  -1.441   7.679  0.00  0.00    +0.113 C 
ENDROOT
BRANCH   1  11
ATOM      9  C   UNL     1      -0.388   0.121   2.524  0.00  0.00    +0.109 A 
ATOM     10  N   UNL     1      -0.113  -0.270   3.755  0.00  0.00    -0.234 NA
ATOM     11  C   UNL     1       0.306   0.636   4.627  0.00  0.00    +0.133 A 
ATOM     12  C   UNL     1       0.438   1.938   4.223  0.00  0.00    +0.080 A 
ATOM     13  S   UNL     1      -0.027   1.867   2.607  0.00  0.00    -0.075 S 
BRANCH   9  20
ATOM     14  C   UNL     1      -2.572   1.106   0.902  0.00  0.00    +0.044 C 
ATOM     15  C   UNL     1      -1.917  -0.214   0.586  0.00  0.00    -0.041 A 
ATOM     16  C   UNL     1      -2.354  -0.962  -0.488  0.00  0.00    +0.004 A 
ATOM     17  C   UNL     1      -1.754  -2.174  -0.780  0.00  0.00    +0.000 A 
ATOM     18  C   UNL     1      -0.714  -2.643   0.002  0.00  0.00    +0.001 A 
ATOM     19  C   UNL     1      -0.268  -1.905   1.078  0.00  0.00    +0.011 A 
ATOM     20  C   UNL     1      -0.865  -0.679   1.375  0.00  0.00    +0.010 A 
ENDBRANCH   9  20
ENDBRANCH   1  11
BRANCH   7  21
ATOM     21  C   UNL     1       2.839  -2.744   9.073  0.00  0.00    +0.109 C 
BRANCH  21  22
ATOM     22  N   UNL     1       3.041  -1.627   9.998  0.00  0.00    -0.315 N 
ATOM     23  C   UNL     1       3.309  -1.867  11.297  0.00  0.00    +0.216 C 
ATOM     24  O   UNL     1       3.384  -3.008  11.700  0.00  0.00    -0.276 OA
ATOM     25  H   UNL     1       2.981  -0.714   9.676  0.00  0.00    +0.149 HD
BRANCH  23  26
ATOM     26  C   UNL     1       3.517  -0.717  12.249  0.00  0.00    +0.069 C 
ATOM     27  C   UNL     1       2.255   0.148  12.286  0.00  0.00    +0.017 C 
ATOM     28  C   UNL     1       3.805  -1.260  13.650  0.00  0.00    +0.017 C 
ENDBRANCH  23  26
ENDBRANCH  21  22
ENDBRANCH   7  21
TORSDOF 5
