REMARK  Name = ZINC29620300
REMARK  7 active torsions:
REMARK  status: ('A' for Active; 'I' for Inactive)
REMARK    1  A    between atoms: C_1  and  C_2
REMARK    2  A    between atoms: C_5  and  N_9
REMARK    3  A    between atoms: C_6  and  C_8
REMARK    4  A    between atoms: C_13  and  C_15
REMARK    5  A    between atoms: C_15  and  C_17
REMARK    6  A    between atoms: C_15  and  S_18
REMARK    7  A    between atoms: S_18  and  C_19
REMARK                            x       y       z     vdW  Elec       q    Type
REMARK                         _______ _______ _______ _____ _____    ______ ____
ROOT
ATOM      1  N   UNL     1       4.078  -0.981   2.357  0.00  0.00    -0.269 N 
ATOM      2  C   UNL     1       2.730  -0.962   2.337  0.00  0.00    +0.310 C 
ATOM      3  O   UNL     1       2.103  -1.358   3.299  0.00  0.00    -0.252 OA
ATOM      4  N   UNL     1       2.079  -0.503   1.250  0.00  0.00    -0.239 N 
ATOM      5  C   UNL     1       0.731  -0.484   1.230  0.00  0.00    +0.233 C 
ATOM      6  O   UNL     1       0.105  -0.879   2.190  0.00  0.00    -0.274 OA
ATOM      7  H   UNL     1       4.645  -0.710   1.454  0.00  0.00    +0.156 HD
ATOM      8  H   UNL     1       2.647  -0.145   0.379  0.00  0.00    +0.159 HD
ENDROOT
BRANCH   1  13
ATOM      9  C   UNL     1       6.824  -2.457   7.097  0.00  0.00    +0.044 C 
ATOM     10  C   UNL     1       6.094  -2.064   5.838  0.00  0.00    -0.050 A 
ATOM     11  C   UNL     1       4.813  -1.549   5.914  0.00  0.00    +0.005 A 
ATOM     12  C   UNL     1       4.142  -1.189   4.763  0.00  0.00    +0.024 A 
ATOM     13  C   UNL     1       4.755  -1.345   3.526  0.00  0.00    +0.038 A 
ATOM     14  C   UNL     1       6.040  -1.867   3.452  0.00  0.00    -0.029 A 
ATOM     15  C   UNL     1       6.707  -2.220   4.608  0.00  0.00    +0.008 A 
ATOM     16  C   UNL     1       6.706  -2.043   2.112  0.00  0.00    +0.045 C 
ENDBRANCH   1  13
BRANCH   5  17
ATOM     17  C   UNL     1       0.003   0.028   0.014  0.00  0.00    +0.136 C 
ATOM     18  C   UNL     1      -0.014   1.558   0.037  0.00  0.00    +0.029 C 
BRANCH  17  19
ATOM     19  S   UNL     1      -1.700  -0.596   0.022  0.00  0.00    -0.092 S 
BRANCH  19  20
ATOM     20  C   UNL     1      -2.365  -0.041  -1.512  0.00  0.00    +0.120 A 
ATOM     21  C   UNL     1      -3.682  -0.348  -1.858  0.00  0.00    +0.039 A 
ATOM     22  C   UNL     1      -4.158   0.115  -3.073  0.00  0.00    +0.044 A 
ATOM     23  C   UNL     1      -3.293   0.847  -3.877  0.00  0.00    +0.152 A 
ATOM     24  N   UNL     1      -2.060   1.087  -3.474  0.00  0.00    -0.137 NA
ATOM     25  N   UNL     1      -1.615   0.664  -2.346  0.00  0.00    -0.142 NA
ATOM     26 CL   UNL     1      -3.834   1.448  -5.414  0.00  0.00    -0.060 Cl
ENDBRANCH  19  20
ENDBRANCH  17  19
ENDBRANCH   5  17
TORSDOF 4
