REMARK  Name = ZINC13641708
REMARK  12 active torsions:
REMARK  status: ('A' for Active; 'I' for Inactive)
REMARK    1  A    between atoms: C_1  and  C_2
REMARK    2  A    between atoms: C_2  and  C_3
REMARK    3  A    between atoms: C_3  and  C_5
REMARK    4  A    between atoms: C_3  and  O_6
REMARK    5  A    between atoms: O_6  and  C_7
REMARK    6  A    between atoms: C_20  and  C_23
REMARK    7  A    between atoms: C_25  and  O_33
REMARK    8  A    between atoms: C_26  and  O_31
REMARK    9  A    between atoms: C_27  and  O_29
REMARK   10  A    between atoms: O_29  and  C_30
REMARK   11  A    between atoms: O_31  and  C_32
REMARK   12  A    between atoms: O_33  and  C_34
REMARK                            x       y       z     vdW  Elec       q    Type
REMARK                         _______ _______ _______ _____ _____    ______ ____
ROOT
ATOM      1  C   UNL     1       2.041   3.092  -0.575  0.00  0.00    +0.121 A 
ATOM      2  C   UNL     1       1.126   2.054  -0.476  0.00  0.00    +0.047 A 
ATOM      3  C   UNL     1      -0.220   2.327  -0.342  0.00  0.00    +0.027 A 
ATOM      4  C   UNL     1      -0.669   3.641  -0.295  0.00  0.00    +0.032 A 
ATOM      5  C   UNL     1       0.259   4.685  -0.383  0.00  0.00    -0.016 A 
ATOM      6  C   UNL     1       1.601   4.406  -0.527  0.00  0.00    +0.051 A 
ATOM      7  C   UNL     1      -0.259   6.067  -0.292  0.00  0.00    +0.049 C 
ATOM      8  C   UNL     1       0.443   7.240  -0.897  0.00  0.00    -0.023 C 
ATOM      9  C   UNL     1      -0.457   8.132  -1.292  0.00  0.00    -0.030 C 
ATOM     10  C   UNL     1      -1.867   7.622  -0.988  0.00  0.00    +0.033 C 
ATOM     11  C   UNL     1      -1.652   6.103  -0.989  0.00  0.00    +0.029 C 
ATOM     12  C   UNL     1      -2.567   5.274  -0.105  0.00  0.00    +0.105 C 
ATOM     13  N   UNL     1      -2.044   3.892  -0.175  0.00  0.00    -0.336 N 
ATOM     14  H   UNL     1      -2.663   3.146  -0.138  0.00  0.00    +0.147 HD
ENDROOT
BRANCH  12  15
ATOM     15  C   UNL     1      -2.518   5.778   1.314  0.00  0.00    -0.020 A 
ATOM     16  C   UNL     1      -1.595   5.253   2.200  0.00  0.00    +0.055 A 
ATOM     17  C   UNL     1      -1.542   5.718   3.505  0.00  0.00    +0.165 A 
ATOM     18  C   UNL     1      -2.426   6.705   3.925  0.00  0.00    +0.204 A 
ATOM     19  C   UNL     1      -3.356   7.226   3.033  0.00  0.00    +0.165 A 
ATOM     20  C   UNL     1      -3.399   6.759   1.728  0.00  0.00    +0.055 A 
BRANCH  19  21
ATOM     21  O   UNL     1      -4.223   8.192   3.439  0.00  0.00    -0.491 OA
ATOM     22  C   UNL     1      -5.152   8.680   2.469  0.00  0.00    +0.277 C 
ENDBRANCH  19  21
BRANCH  18  23
ATOM     23  O   UNL     1      -2.381   7.161   5.207  0.00  0.00    -0.488 OA
ATOM     24  C   UNL     1      -3.195   6.483   6.166  0.00  0.00    +0.277 C 
ENDBRANCH  18  23
BRANCH  17  25
ATOM     25  O   UNL     1      -0.631   5.206   4.375  0.00  0.00    -0.491 OA
ATOM     26  C   UNL     1       0.245   4.194   3.874  0.00  0.00    +0.277 C 
ENDBRANCH  17  25
ENDBRANCH  12  15
BRANCH   1  27
ATOM     27  O   UNL     1       3.366   2.821  -0.718  0.00  0.00    -0.489 OA
BRANCH  27  28
ATOM     28  C   UNL     1       3.760   1.450  -0.639  0.00  0.00    +0.170 C 
ATOM     29  C   UNL     1       3.795   0.847  -2.044  0.00  0.00    +0.052 C 
BRANCH  28  31
ATOM     30  C   UNL     1       5.089   1.843   1.440  0.00  0.00    +0.007 C 
ATOM     31  C   UNL     1       5.151   1.355  -0.009  0.00  0.00    +0.041 C 
ENDBRANCH  28  31
ENDBRANCH  27  28
ENDBRANCH   1  27
TORSDOF 7
