REMARK  Name = ZINC35166711
REMARK  13 active torsions:
REMARK  status: ('A' for Active; 'I' for Inactive)
REMARK    1  A    between atoms: C_1  and  C_2
REMARK    2  A    between atoms: C_3  and  C_29
REMARK    3  A    between atoms: C_4  and  C_19
REMARK    4  A    between atoms: C_5  and  C_9
REMARK    5  A    between atoms: C_6  and  C_8
REMARK    6  A    between atoms: C_9  and  O_11
REMARK    7  A    between atoms: O_11  and  C_12
REMARK    8  A    between atoms: C_12  and  C_13
REMARK    9  A    between atoms: C_22  and  N_25
REMARK   10  A    between atoms: C_26  and  C_28
REMARK   11  A    between atoms: C_29  and  O_31
REMARK   12  A    between atoms: O_31  and  C_32
REMARK   13  A    between atoms: C_32  and  C_33
REMARK                            x       y       z     vdW  Elec       q    Type
REMARK                         _______ _______ _______ _____ _____    ______ ____
ROOT
ATOM      1  C   UNL     1       0.197   1.482  -0.523  0.00  0.00    +0.061 C 
ATOM      2  C   UNL     1       0.171  -0.023  -0.453  0.00  0.00    +0.016 C 
ATOM      3  C   UNL     1      -1.009  -0.663  -0.379  0.00  0.00    +0.065 C 
ATOM      4  C   UNL     1      -1.083  -2.162  -0.299  0.00  0.00    +0.096 C 
ATOM      5  C   UNL     1       0.224  -2.781  -0.703  0.00  0.00    +0.065 C 
ATOM      6  C   UNL     1       1.354  -2.056  -0.764  0.00  0.00    +0.016 C 
ATOM      7  N   UNL     1       1.347  -0.721  -0.471  0.00  0.00    -0.321 N 
ATOM      8  C   UNL     1       2.645  -2.722  -1.166  0.00  0.00    +0.061 C 
ATOM      9  H   UNL     1       2.181  -0.268  -0.271  0.00  0.00    +0.152 HD
ENDROOT
BRANCH   4  10
ATOM     10  C   UNL     1      -1.408  -2.567   1.116  0.00  0.00    -0.035 A 
ATOM     11  C   UNL     1      -0.560  -2.210   2.148  0.00  0.00    +0.006 A 
ATOM     12  C   UNL     1      -0.855  -2.580   3.446  0.00  0.00    +0.023 A 
ATOM     13  C   UNL     1      -2.005  -3.312   3.713  0.00  0.00    +0.033 A 
ATOM     14  C   UNL     1      -2.855  -3.669   2.674  0.00  0.00    +0.023 A 
ATOM     15  C   UNL     1      -2.557  -3.291   1.380  0.00  0.00    +0.006 A 
BRANCH  13  16
ATOM     16  N   UNL     1      -2.306  -3.689   5.027  0.00  0.00    -0.286 N 
ATOM     17  C   UNL     1      -2.001  -2.867   6.050  0.00  0.00    +0.214 C 
ATOM     18  O   UNL     1      -1.391  -1.840   5.842  0.00  0.00    -0.276 OA
ATOM     19  C   UNL     1      -2.416  -3.226   7.454  0.00  0.00    +0.109 C 
ATOM     20  H   UNL     1      -2.735  -4.541   5.200  0.00  0.00    +0.155 HD
ENDBRANCH  13  16
ENDBRANCH   4  10
BRANCH   5  21
ATOM     21  C   UNL     1       0.267  -4.157  -1.026  0.00  0.00    +0.338 C 
ATOM     22  O   UNL     1      -0.175  -4.546  -2.091  0.00  0.00    -0.245 OA
BRANCH  21  23
ATOM     23  O   UNL     1       0.797  -5.039  -0.153  0.00  0.00    -0.457 OA
BRANCH  23  24
ATOM     24  C   UNL     1       0.807  -6.414  -0.545  0.00  0.00    +0.268 C 
BRANCH  24  25
ATOM     25  C   UNL     1       1.432  -7.243   0.547  0.00  0.00    -0.010 A 
ATOM     26  C   UNL     1       2.796  -7.467   0.550  0.00  0.00    +0.007 A 
ATOM     27  C   UNL     1       3.369  -8.228   1.552  0.00  0.00    +0.000 A 
ATOM     28  C   UNL     1       2.579  -8.763   2.552  0.00  0.00    +0.000 A 
ATOM     29  C   UNL     1       1.215  -8.538   2.549  0.00  0.00    +0.000 A 
ATOM     30  C   UNL     1       0.642  -7.774   1.550  0.00  0.00    +0.007 A 
ENDBRANCH  24  25
ENDBRANCH  23  24
ENDBRANCH  21  23
ENDBRANCH   5  21
BRANCH   3  31
ATOM     31  C   UNL     1      -2.206   0.090  -0.376  0.00  0.00    +0.338 C 
ATOM     32  O   UNL     1      -2.161   1.304  -0.440  0.00  0.00    -0.245 OA
BRANCH  31  33
ATOM     33  O   UNL     1      -3.398  -0.538  -0.302  0.00  0.00    -0.457 OA
BRANCH  33  34
ATOM     34  C   UNL     1      -4.566   0.285  -0.304  0.00  0.00    +0.268 C 
BRANCH  34  35
ATOM     35  C   UNL     1      -5.794  -0.585  -0.216  0.00  0.00    -0.010 A 
ATOM     36  C   UNL     1      -6.395  -1.050  -1.371  0.00  0.00    +0.007 A 
ATOM     37  C   UNL     1      -7.521  -1.847  -1.291  0.00  0.00    +0.000 A 
ATOM     38  C   UNL     1      -8.046  -2.181  -0.056  0.00  0.00    +0.000 A 
ATOM     39  C   UNL     1      -7.444  -1.716   1.099  0.00  0.00    +0.000 A 
ATOM     40  C   UNL     1      -6.315  -0.922   1.019  0.00  0.00    +0.007 A 
ENDBRANCH  34  35
ENDBRANCH  33  34
ENDBRANCH  31  33
ENDBRANCH   3  31
TORSDOF 10
