REMARK  Name = ZINC12833548
REMARK  14 active torsions:
REMARK  status: ('A' for Active; 'I' for Inactive)
REMARK    1  A    between atoms: C_1  and  C_2
REMARK    2  A    between atoms: C_2  and  O_3
REMARK    3  A    between atoms: O_3  and  C_4
REMARK    4  A    between atoms: C_11  and  C_16
REMARK    5  A    between atoms: C_16  and  N_71
REMARK    6  A    between atoms: C_17  and  C_18
REMARK    7  A    between atoms: C_17  and  N_71
REMARK    8  A    between atoms: C_18  and  C_19
REMARK    9  A    between atoms: C_25  and  C_26
REMARK   10  A    between atoms: C_25  and  N_71
REMARK   11  A    between atoms: N_30  and  C_31
REMARK   12  A    between atoms: C_31  and  C_32
REMARK   13  A    between atoms: C_35  and  O_38
REMARK   14  A    between atoms: O_38  and  C_39
REMARK                            x       y       z     vdW  Elec       q    Type
REMARK                         _______ _______ _______ _____ _____    ______ ____
ROOT
ATOM      1  N   UNL     1       1.800  -2.830  -1.522  0.00  0.00    +0.387 N 
ATOM      2  H   UNL     1       0.991  -2.699  -2.141  0.00  0.00    -0.081 HD
ENDROOT
BRANCH   1   3
ATOM      3  C   UNL     1       1.935  -4.268  -1.207  0.00  0.00    -0.037 C 
BRANCH   3  11
ATOM      4  C   UNL     1      -3.484  -7.051  -2.358  0.00  0.00    +0.121 A 
ATOM      5  C   UNL     1      -3.978  -6.958  -1.059  0.00  0.00    +0.047 A 
ATOM      6  C   UNL     1      -3.231  -6.368  -0.064  0.00  0.00    +0.030 A 
ATOM      7  C   UNL     1      -1.970  -5.857  -0.352  0.00  0.00    +0.049 A 
ATOM      8  C   UNL     1      -1.466  -5.949  -1.663  0.00  0.00    +0.002 A 
ATOM      9  C   UNL     1      -2.235  -6.551  -2.665  0.00  0.00    +0.055 A 
ATOM     10  C   UNL     1      -0.137  -5.407  -1.952  0.00  0.00    +0.017 A 
ATOM     11  C   UNL     1       0.564  -4.835  -0.943  0.00  0.00    +0.001 A 
ATOM     12  C   UNL     1       0.016  -4.773   0.357  0.00  0.00    +0.251 A 
ATOM     13  O   UNL     1       0.665  -4.260   1.251  0.00  0.00    -0.268 OA
ATOM     14  N   UNL     1      -1.206  -5.262   0.631  0.00  0.00    -0.322 N 
ATOM     15  H   UNL     1      -1.554  -5.200   1.535  0.00  0.00    +0.169 HD
BRANCH   4  16
ATOM     16  O   UNL     1      -4.235  -7.637  -3.328  0.00  0.00    -0.492 OA
BRANCH  16  18
ATOM     17  C   UNL     1      -6.211  -8.753  -4.158  0.00  0.00    +0.048 C 
ATOM     18  C   UNL     1      -5.518  -8.134  -2.943  0.00  0.00    +0.225 C 
ENDBRANCH  16  18
ENDBRANCH   4  16
ENDBRANCH   3  11
ENDBRANCH   1   3
BRANCH   1  19
ATOM     19  C   UNL     1       3.015  -2.348  -2.212  0.00  0.00    -0.073 C 
BRANCH  19  20
ATOM     20  C   UNL     1       3.014  -2.886  -3.644  0.00  0.00    +0.016 C 
BRANCH  20  21
ATOM     21  C   UNL     1       4.293  -2.485  -4.332  0.00  0.00    -0.049 A 
ATOM     22  C   UNL     1       4.357  -1.294  -5.032  0.00  0.00    +0.003 A 
ATOM     23  C   UNL     1       5.532  -0.924  -5.659  0.00  0.00    +0.000 A 
ATOM     24  C   UNL     1       6.639  -1.749  -5.596  0.00  0.00    +0.000 A 
ATOM     25  C   UNL     1       6.573  -2.942  -4.902  0.00  0.00    +0.000 A 
ATOM     26  C   UNL     1       5.400  -3.310  -4.270  0.00  0.00    +0.003 A 
ENDBRANCH  20  21
ENDBRANCH  19  20
ENDBRANCH   1  19
BRANCH   1  27
ATOM     27  C   UNL     1       1.585  -2.059  -0.280  0.00  0.00    +0.001 C 
BRANCH  27  28
ATOM     28  C   UNL     1       1.302  -0.624  -0.640  0.00  0.00    +0.135 A 
ATOM     29  N   UNL     1       2.187   0.319  -0.854  0.00  0.00    -0.115 NA
ATOM     30  N   UNL     1       1.553   1.404  -1.136  0.00  0.00    -0.023 NA
ATOM     31  N   UNL     1       0.286   1.179  -1.108  0.00  0.00    -0.044 NA
ATOM     32  N   UNL     1       0.090  -0.060  -0.805  0.00  0.00    -0.227 N 
BRANCH  32  33
ATOM     33  C   UNL     1      -1.206  -0.728  -0.668  0.00  0.00    +0.182 C 
BRANCH  33  34
ATOM     34  C   UNL     1      -1.705  -1.142  -2.029  0.00  0.00    -0.026 A 
ATOM     35  C   UNL     1      -2.403  -0.240  -2.811  0.00  0.00    +0.009 A 
ATOM     36  C   UNL     1      -2.856  -0.615  -4.061  0.00  0.00    +0.046 A 
ATOM     37  C   UNL     1      -2.620  -1.900  -4.527  0.00  0.00    +0.120 A 
ATOM     38  C   UNL     1      -1.925  -2.805  -3.737  0.00  0.00    +0.046 A 
ATOM     39  C   UNL     1      -1.469  -2.423  -2.490  0.00  0.00    +0.009 A 
BRANCH  37  40
ATOM     40  O   UNL     1      -3.070  -2.273  -5.754  0.00  0.00    -0.495 OA
ATOM     41  C   UNL     1      -3.778  -1.289  -6.511  0.00  0.00    +0.277 C 
ENDBRANCH  37  40
ENDBRANCH  33  34
ENDBRANCH  32  33
ENDBRANCH  27  28
ENDBRANCH   1  27
TORSDOF 12
