REMARK  Name = ZINC59331582
REMARK  13 active torsions:
REMARK  status: ('A' for Active; 'I' for Inactive)
REMARK    1  A    between atoms: C_1  and  C_2
REMARK    2  A    between atoms: C_2  and  C_3
REMARK    3  A    between atoms: C_2  and  C_4
REMARK    4  A    between atoms: C_11  and  C_13
REMARK    5  A    between atoms: C_16  and  O_36
REMARK    6  A    between atoms: C_17  and  N_19
REMARK    7  A    between atoms: N_19  and  C_20
REMARK    8  A    between atoms: C_20  and  N_22
REMARK    9  A    between atoms: C_23  and  C_25
REMARK   10  A    between atoms: C_28  and  O_34
REMARK   11  A    between atoms: C_29  and  N_31
REMARK   12  A    between atoms: O_34  and  C_35
REMARK   13  A    between atoms: O_36  and  C_37
REMARK                            x       y       z     vdW  Elec       q    Type
REMARK                         _______ _______ _______ _____ _____    ______ ____
ROOT
ATOM      1  C   UNL     1       1.356  -3.243   6.514  0.00  0.00    +0.039 A 
ATOM      2  C   UNL     1       0.297  -4.119   6.760  0.00  0.00    +0.017 A 
ATOM      3  C   UNL     1       0.392  -5.051   7.771  0.00  0.00    +0.048 A 
ATOM      4  C   UNL     1       1.540  -5.123   8.547  0.00  0.00    +0.141 A 
ATOM      5  C   UNL     1       2.602  -4.252   8.308  0.00  0.00    +0.076 A 
ATOM      6  C   UNL     1       2.514  -3.317   7.291  0.00  0.00    +0.040 A 
ENDROOT
BRANCH   1  14
ATOM      7  C   UNL     1       0.304   0.537   2.012  0.00  0.00    -0.043 A 
ATOM      8  C   UNL     1       1.578   0.999   2.311  0.00  0.00    +0.007 A 
ATOM      9  C   UNL     1       2.307   0.430   3.334  0.00  0.00    +0.049 A 
ATOM     10  C   UNL     1       1.766  -0.611   4.072  0.00  0.00    +0.156 A 
ATOM     11  C   UNL     1       0.477  -1.082   3.774  0.00  0.00    +0.110 A 
ATOM     12  C   UNL     1      -0.251  -0.493   2.737  0.00  0.00    +0.035 A 
ATOM     13  N   UNL     1       0.218  -2.090   4.647  0.00  0.00    -0.209 NA
ATOM     14  C   UNL     1       1.255  -2.244   5.431  0.00  0.00    +0.228 A 
ATOM     15  O   UNL     1       2.215  -1.357   5.106  0.00  0.00    -0.435 OA
BRANCH   7  17
ATOM     16  C   UNL     1      -0.675   2.659   1.184  0.00  0.00    +0.012 C 
ATOM     17  C   UNL     1      -0.478   1.171   0.891  0.00  0.00    +0.013 C 
ATOM     18  C   UNL     1       0.289   1.007  -0.423  0.00  0.00    +0.012 C 
ENDBRANCH   7  17
ENDBRANCH   1  14
BRANCH   5  19
ATOM     19  N   UNL     1       3.760  -4.325   9.094  0.00  0.00    -0.294 N 
ATOM     20  H   UNL     1       3.688  -4.370  10.060  0.00  0.00    +0.154 HD
BRANCH  19  21
ATOM     21  C   UNL     1       4.973  -4.335   8.507  0.00  0.00    +0.141 C 
ATOM     22  S   UNL     1       5.105  -4.145   6.811  0.00  0.00    -0.018 S 
BRANCH  21  23
ATOM     23  N   UNL     1       6.082  -4.493   9.256  0.00  0.00    -0.264 N 
ATOM     24  C   UNL     1       7.296  -4.502   8.669  0.00  0.00    +0.250 C 
ATOM     25  O   UNL     1       7.390  -4.368   7.465  0.00  0.00    -0.270 OA
ATOM     26  H   UNL     1       6.008  -4.600  10.217  0.00  0.00    +0.157 HD
BRANCH  24  27
ATOM     27  C   UNL     1       8.510  -4.675   9.489  0.00  0.00    +0.039 A 
ATOM     28  C   UNL     1       8.404  -4.836  10.874  0.00  0.00    +0.017 A 
ATOM     29  C   UNL     1       9.540  -4.997  11.635  0.00  0.00    +0.049 A 
ATOM     30  C   UNL     1      10.791  -5.000  11.029  0.00  0.00    +0.150 A 
ATOM     31  C   UNL     1      10.901  -4.841   9.652  0.00  0.00    +0.168 A 
ATOM     32  C   UNL     1       9.769  -4.685   8.883  0.00  0.00    +0.049 A 
BRANCH  31  33
ATOM     33  N   UNL     1      12.235  -4.845   9.012  0.00  0.00    +0.060 N 
ATOM     34  O   UNL     1      12.332  -4.706   7.815  0.00  0.00    -0.126 OA
ATOM     35  O   UNL     1      13.229  -4.986   9.687  0.00  0.00    -0.126 OA
ENDBRANCH  31  33
BRANCH  30  36
ATOM     36  O   UNL     1      11.908  -5.159  11.783  0.00  0.00    -0.493 OA
ATOM     37  C   UNL     1      11.723  -5.317  13.191  0.00  0.00    +0.277 C 
ENDBRANCH  30  36
ENDBRANCH  24  27
ENDBRANCH  21  23
ENDBRANCH  19  21
ENDBRANCH   5  19
BRANCH   4  38
ATOM     38  O   UNL     1       1.629  -6.044   9.542  0.00  0.00    -0.493 OA
ATOM     39  C   UNL     1       0.504  -6.904   9.733  0.00  0.00    +0.277 C 
ENDBRANCH   4  38
TORSDOF 9
