REMARK  Name = ZINC39467042
REMARK  6 active torsions:
REMARK  status: ('A' for Active; 'I' for Inactive)
REMARK    1  A    between atoms: C_4  and  C_7
REMARK    2  A    between atoms: C_7  and  C_8
REMARK    3  A    between atoms: P_17  and  C_33
REMARK    4  A    between atoms: C_25  and  C_26
REMARK    5  A    between atoms: C_31  and  O_32
REMARK    6  A    between atoms: C_38  and  O_39
REMARK                            x       y       z     vdW  Elec       q    Type
REMARK                         _______ _______ _______ _____ _____    ______ ____
ROOT
ATOM      1  C   UNL     1       4.164  -0.959   1.377  0.00  0.00    -0.039 C 
ATOM      2  C   UNL     1       3.895  -2.117   1.971  0.00  0.00    -0.019 C 
ATOM      3  C   UNL     1       4.344  -2.350   3.388  0.00  0.00    +0.016 C 
ATOM      4  C   UNL     1       3.494  -3.428   4.048  0.00  0.00    -0.003 C 
ATOM      5  C   UNL     1       2.038  -2.965   4.182  0.00  0.00    -0.020 C 
ATOM      6  C   UNL     1       1.268  -4.095   4.877  0.00  0.00    +0.157 C 
ATOM      7  O   UNL     1      -0.121  -3.734   4.987  0.00  0.00    -0.316 OA
ATOM      8  P   UNL     1      -0.474  -2.275   5.614  0.00  0.00    +0.291 P 
ATOM      9  O   UNL     1      -0.402  -2.319   7.091  0.00  0.00    -0.269 OA
ATOM     10  N   UNL     1       0.678  -1.256   5.015  0.00  0.00    -0.288 NA
ATOM     11  N   UNL     1       1.975  -1.722   4.954  0.00  0.00    +0.398 N 
ATOM     12  C   UNL     1       2.751  -0.664   4.287  0.00  0.00    -0.046 C 
ATOM     13  C   UNL     1       4.209  -1.053   4.190  0.00  0.00    +0.005 C 
ATOM     14  C   UNL     1       4.939   0.049   3.459  0.00  0.00    -0.016 C 
ATOM     15  C   UNL     1       4.919   0.077   2.115  0.00  0.00    -0.015 C 
ATOM     16  H   UNL     1       0.450  -0.361   4.718  0.00  0.00    +0.111 HD
ATOM     17  H   UNL     1       2.326  -1.882   5.886  0.00  0.00    -0.055 HD
ENDROOT
BRANCH  15  18
ATOM     18  C   UNL     1       5.642   1.141   1.377  0.00  0.00    +0.024 A 
ATOM     19  C   UNL     1       6.836   0.850   0.721  0.00  0.00    +0.012 A 
ATOM     20  C   UNL     1       7.505   1.843   0.035  0.00  0.00    +0.001 A 
ATOM     21  C   UNL     1       6.994   3.129  -0.003  0.00  0.00    +0.004 A 
ATOM     22  C   UNL     1       5.811   3.429   0.644  0.00  0.00    +0.046 A 
ATOM     23  C   UNL     1       5.125   2.440   1.331  0.00  0.00    +0.125 A 
BRANCH  23  24
ATOM     24  O   UNL     1       3.959   2.732   1.963  0.00  0.00    -0.506 OA
ATOM     25  H   UNL     1       4.070   3.021   2.880  0.00  0.00    +0.292 HD
ENDBRANCH  23  24
ENDBRANCH  15  18
BRANCH   8  26
ATOM     26  C   UNL     1      -2.126  -1.745   5.082  0.00  0.00    +0.091 A 
ATOM     27  C   UNL     1      -2.277  -1.020   3.915  0.00  0.00    +0.018 A 
ATOM     28  C   UNL     1      -3.535  -0.615   3.509  0.00  0.00    +0.001 A 
ATOM     29  C   UNL     1      -4.645  -0.936   4.269  0.00  0.00    +0.004 A 
ATOM     30  C   UNL     1      -4.500  -1.661   5.435  0.00  0.00    +0.046 A 
ATOM     31  C   UNL     1      -3.239  -2.073   5.842  0.00  0.00    +0.131 A 
BRANCH  31  32
ATOM     32  O   UNL     1      -3.093  -2.792   6.986  0.00  0.00    -0.506 OA
ATOM     33  H   UNL     1      -2.958  -2.250   7.776  0.00  0.00    +0.292 HD
ENDBRANCH  31  32
ENDBRANCH   8  26
BRANCH   1  34
ATOM     34  C   UNL     1       3.711  -0.707  -0.038  0.00  0.00    +0.070 C 
BRANCH  34  38
ATOM     35  C   UNL     1      -0.017   1.378   0.010  0.00  0.00    +0.000 A 
ATOM     36  C   UNL     1       1.171   2.086   0.002  0.00  0.00    +0.000 A 
ATOM     37  C   UNL     1       2.377   1.411  -0.013  0.00  0.00    +0.004 A 
ATOM     38  C   UNL     1       2.396   0.029  -0.020  0.00  0.00    -0.043 A 
ATOM     39  C   UNL     1       1.208  -0.679  -0.012  0.00  0.00    +0.004 A 
ATOM     40  C   UNL     1       0.002  -0.004   0.002  0.00  0.00    +0.000 A 
ENDBRANCH  34  38
ENDBRANCH   1  34
TORSDOF 6
