REMARK  Name = ZINC36359327
REMARK  2 active torsions:
REMARK  status: ('A' for Active; 'I' for Inactive)
REMARK    1  A    between atoms: C_6  and  C_7
REMARK    2  A    between atoms: C_10  and  O_23
REMARK                            x       y       z     vdW  Elec       q    Type
REMARK                         _______ _______ _______ _____ _____    ______ ____
ROOT
ATOM      1  C   UNL     1      -1.293  -0.775   0.010  0.00  0.00    +0.068 C 
ATOM      2  C   UNL     1      -1.350  -1.688   1.246  0.00  0.00    +0.109 C 
ATOM      3  C   UNL     1      -0.537  -2.930   1.022  0.00  0.00    +0.190 C 
ATOM      4  N   UNL     1      -0.376  -3.506  -0.121  0.00  0.00    -0.197 NA
ATOM      5  C   UNL     1      -0.935  -2.949  -1.268  0.00  0.00    +0.169 A 
ATOM      6  C   UNL     1      -1.371  -1.646  -1.195  0.00  0.00    +0.045 A 
ATOM      7  S   UNL     1      -1.993  -1.345  -2.822  0.00  0.00    -0.054 S 
ATOM      8  C   UNL     1      -1.611  -2.959  -3.496  0.00  0.00    +0.163 A 
ATOM      9  N   UNL     1      -1.068  -3.563  -2.449  0.00  0.00    -0.206 NA
ATOM     10  N   UNL     1      -1.826  -3.447  -4.775  0.00  0.00    -0.310 N 
ATOM     11  C   UNL     1      -2.444  -2.601  -5.805  0.00  0.00    +0.107 C 
ATOM     12  C   UNL     1      -1.536  -2.584  -7.038  0.00  0.00    +0.019 C 
ATOM     13  C   UNL     1      -1.262  -4.021  -7.486  0.00  0.00    +0.003 C 
ATOM     14  C   UNL     1      -0.543  -4.778  -6.367  0.00  0.00    +0.019 C 
ATOM     15  C   UNL     1      -1.434  -4.818  -5.128  0.00  0.00    +0.107 C 
ENDROOT
BRANCH   1  21
ATOM     16  C   UNL     1      -0.017   1.378   0.010  0.00  0.00    +0.007 A 
ATOM     17  C   UNL     1       1.170   2.086   0.002  0.00  0.00    +0.038 A 
ATOM     18  C   UNL     1       2.379   1.410  -0.013  0.00  0.00    +0.123 A 
ATOM     19  C   UNL     1       2.396   0.026  -0.021  0.00  0.00    +0.038 A 
ATOM     20  C   UNL     1       1.208  -0.680  -0.013  0.00  0.00    +0.007 A 
ATOM     21  C   UNL     1       0.002  -0.004   0.002  0.00  0.00    -0.039 A 
ATOM     22  F   UNL     1       3.540   2.101  -0.021  0.00  0.00    -0.205 F 
ENDBRANCH   1  21
BRANCH   3  23
ATOM     23  O   UNL     1       0.069  -3.484   2.094  0.00  0.00    -0.495 OA
ATOM     24  H   UNL     1       0.577  -4.281   1.890  0.00  0.00    +0.293 HD
ENDBRANCH   3  23
TORSDOF 2
