REMARK  Name = ZINC04576278
REMARK  6 active torsions:
REMARK  status: ('A' for Active; 'I' for Inactive)
REMARK    1  A    between atoms: C_1  and  C_2
REMARK    2  A    between atoms: C_2  and  C_20
REMARK    3  A    between atoms: C_4  and  N_9
REMARK    4  A    between atoms: N_9  and  N_10
REMARK    5  A    between atoms: C_11  and  C_13
REMARK    6  A    between atoms: C_16  and  O_19
REMARK                            x       y       z     vdW  Elec       q    Type
REMARK                         _______ _______ _______ _____ _____    ______ ____
ROOT
ATOM      1  N   UNL     1       2.425  -2.814  -0.041  0.00  0.00    -0.233 N 
ATOM      2  C   UNL     1       1.246  -2.160  -0.027  0.00  0.00    +0.260 C 
ATOM      3  O   UNL     1       0.204  -2.786  -0.016  0.00  0.00    -0.269 OA
ATOM      4  H   UNL     1       3.256  -2.315  -0.050  0.00  0.00    +0.173 HD
ENDROOT
BRANCH   2   5
ATOM      5  C   UNL     1       1.221  -0.685  -0.025  0.00  0.00    +0.038 A 
ATOM      6  C   UNL     1       0.001  -0.005  -0.011  0.00  0.00    +0.016 A 
ATOM      7  C   UNL     1      -0.019   1.372  -0.009  0.00  0.00    +0.046 A 
ATOM      8  C   UNL     1       1.174   2.086  -0.021  0.00  0.00    +0.117 A 
ATOM      9  C   UNL     1       2.390   1.413  -0.035  0.00  0.00    +0.046 A 
ATOM     10  C   UNL     1       2.418   0.036  -0.037  0.00  0.00    +0.016 A 
BRANCH   8  11
ATOM     11  O   UNL     1       1.151   3.442  -0.019  0.00  0.00    -0.507 OA
ATOM     12  H   UNL     1       1.154   3.834   0.865  0.00  0.00    +0.292 HD
ENDBRANCH   8  11
ENDBRANCH   2   5
BRANCH   1  13
ATOM     13  N   UNL     1       2.449  -4.215  -0.043  0.00  0.00    -0.268 N 
ATOM     14  H   UNL     1       1.621  -4.714   0.040  0.00  0.00    +0.170 HD
BRANCH  13  18
ATOM     15  C   UNL     1       4.751  -6.251  -2.515  0.00  0.00    +0.011 C 
ATOM     16  C   UNL     1       4.850  -6.823  -1.099  0.00  0.00    -0.023 C 
ATOM     17  C   UNL     1       3.636  -6.377  -0.275  0.00  0.00    +0.059 C 
ATOM     18  C   UNL     1       3.634  -4.876  -0.161  0.00  0.00    +0.026 C 
ATOM     19  C   UNL     1       4.788  -4.174  -0.167  0.00  0.00    +0.066 C 
ATOM     20  C   UNL     1       6.030  -4.803  -0.291  0.00  0.00    +0.158 C 
ATOM     21  O   UNL     1       7.046  -4.135  -0.292  0.00  0.00    -0.293 OA
ATOM     22  C   UNL     1       6.122  -6.301  -0.423  0.00  0.00    +0.085 C 
ATOM     23  C   UNL     1       4.894  -8.351  -1.165  0.00  0.00    +0.011 C 
ENDBRANCH  13  18
ENDBRANCH   1  13
TORSDOF 4
