REMARK  Name = ZINC58848661
REMARK  11 active torsions:
REMARK  status: ('A' for Active; 'I' for Inactive)
REMARK    1  A    between atoms: C_1  and  C_2
REMARK    2  A    between atoms: C_2  and  O_3
REMARK    3  A    between atoms: O_3  and  C_4
REMARK    4  A    between atoms: C_7  and  N_10
REMARK    5  A    between atoms: N_10  and  S_11
REMARK    6  A    between atoms: S_11  and  C_14
REMARK    7  A    between atoms: C_27  and  C_30
REMARK    8  A    between atoms: C_33  and  O_36
REMARK    9  A    between atoms: O_36  and  C_37
REMARK   10  A    between atoms: C_37  and  C_38
REMARK   11  A    between atoms: C_37  and  C_39
REMARK                            x       y       z     vdW  Elec       q    Type
REMARK                         _______ _______ _______ _____ _____    ______ ____
ROOT
ATOM      1  C   UNL     1       1.562  -4.754  -5.039  0.00  0.00    +0.109 A 
ATOM      2  C   UNL     1       1.558  -3.588  -5.784  0.00  0.00    +0.030 A 
ATOM      3  C   UNL     1       2.656  -3.262  -6.552  0.00  0.00    +0.025 A 
ATOM      4  C   UNL     1       3.765  -4.100  -6.577  0.00  0.00    +0.031 A 
ATOM      5  C   UNL     1       3.777  -5.263  -5.821  0.00  0.00    -0.018 A 
ATOM      6  C   UNL     1       2.666  -5.582  -5.054  0.00  0.00    +0.034 A 
ATOM      7  C   UNL     1       4.963  -6.167  -5.791  0.00  0.00    +0.049 C 
ATOM      8  C   UNL     1       4.752  -7.408  -6.619  0.00  0.00    -0.023 C 
ATOM      9  C   UNL     1       5.870  -7.761  -7.201  0.00  0.00    -0.030 C 
ATOM     10  C   UNL     1       6.987  -6.802  -6.850  0.00  0.00    +0.033 C 
ATOM     11  C   UNL     1       6.247  -5.545  -6.335  0.00  0.00    +0.029 C 
ATOM     12  C   UNL     1       6.025  -4.614  -7.509  0.00  0.00    +0.105 C 
ATOM     13  N   UNL     1       4.857  -3.768  -7.370  0.00  0.00    -0.336 N 
ATOM     14  H   UNL     1       4.825  -2.940  -7.874  0.00  0.00    +0.147 HD
ENDROOT
BRANCH  12  15
ATOM     15  C   UNL     1       5.904  -5.442  -8.762  0.00  0.00    -0.027 A 
ATOM     16  C   UNL     1       4.708  -6.066  -9.065  0.00  0.00    +0.009 A 
ATOM     17  C   UNL     1       4.596  -6.826 -10.213  0.00  0.00    +0.046 A 
ATOM     18  C   UNL     1       5.684  -6.964 -11.062  0.00  0.00    +0.121 A 
ATOM     19  C   UNL     1       6.883  -6.337 -10.756  0.00  0.00    +0.046 A 
ATOM     20  C   UNL     1       6.989  -5.573  -9.610  0.00  0.00    +0.009 A 
BRANCH  18  21
ATOM     21  O   UNL     1       5.576  -7.712 -12.191  0.00  0.00    -0.489 OA
BRANCH  21  22
ATOM     22  C   UNL     1       4.355  -8.431 -12.379  0.00  0.00    +0.167 C 
ATOM     23  C   UNL     1       3.325  -7.519 -13.049  0.00  0.00    +0.051 C 
ATOM     24  C   UNL     1       4.612  -9.649 -13.268  0.00  0.00    +0.051 C 
ENDBRANCH  21  22
ENDBRANCH  18  21
ENDBRANCH  12  15
BRANCH   1  25
ATOM     25  S   UNL     1       0.158  -5.178  -4.064  0.00  0.00    +0.072 S 
ATOM     26  O   UNL     1       0.267  -6.566  -3.777  0.00  0.00    -0.150 OA
ATOM     27  O   UNL     1      -0.974  -4.623  -4.718  0.00  0.00    -0.150 OA
BRANCH  25  28
ATOM     28  N   UNL     1       0.307  -4.383  -2.619  0.00  0.00    -0.216 N 
ATOM     29  H   UNL     1      -0.351  -3.719  -2.360  0.00  0.00    +0.174 HD
BRANCH  28  33
ATOM     30  C   UNL     1       3.509  -5.237  -0.090  0.00  0.00    +0.121 A 
ATOM     31  C   UNL     1       3.169  -3.919  -0.358  0.00  0.00    +0.047 A 
ATOM     32  C   UNL     1       2.109  -3.635  -1.195  0.00  0.00    +0.028 A 
ATOM     33  C   UNL     1       1.382  -4.670  -1.770  0.00  0.00    +0.048 A 
ATOM     34  C   UNL     1       1.724  -5.989  -1.502  0.00  0.00    +0.028 A 
ATOM     35  C   UNL     1       2.788  -6.271  -0.669  0.00  0.00    +0.047 A 
BRANCH  30  36
ATOM     36  O   UNL     1       4.554  -5.515   0.735  0.00  0.00    -0.492 OA
BRANCH  36  38
ATOM     37  C   UNL     1       6.386  -4.909   2.189  0.00  0.00    +0.048 C 
ATOM     38  C   UNL     1       5.253  -4.402   1.295  0.00  0.00    +0.225 C 
ENDBRANCH  36  38
ENDBRANCH  30  36
ENDBRANCH  28  33
ENDBRANCH  25  28
ENDBRANCH   1  25
TORSDOF 8
