REMARK  Name = ZINC32316936
REMARK  14 active torsions:
REMARK  status: ('A' for Active; 'I' for Inactive)
REMARK    1  A    between atoms: C_1  and  C_2
REMARK    2  A    between atoms: C_2  and  N_3
REMARK    3  A    between atoms: N_3  and  C_4
REMARK    4  A    between atoms: N_3  and  C_6
REMARK    5  A    between atoms: C_4  and  C_5
REMARK    6  A    between atoms: C_6  and  C_8
REMARK    7  A    between atoms: C_6  and  C_29
REMARK    8  A    between atoms: C_8  and  N_9
REMARK    9  A    between atoms: C_10  and  C_12
REMARK   10  A    between atoms: C_12  and  N_13
REMARK   11  A    between atoms: C_16  and  C_20
REMARK   12  A    between atoms: C_16  and  C_21
REMARK   13  A    between atoms: C_24  and  O_27
REMARK   14  A    between atoms: O_27  and  C_28
REMARK                            x       y       z     vdW  Elec       q    Type
REMARK                         _______ _______ _______ _____ _____    ______ ____
ROOT
ATOM      1  N   UNL     1       1.299   1.090  -2.983  0.00  0.00    -0.315 N 
ATOM      2  C   UNL     1       1.732   2.285  -3.432  0.00  0.00    +0.231 C 
ATOM      3  O   UNL     1       0.945   3.193  -3.594  0.00  0.00    -0.274 OA
ATOM      4  H   UNL     1       2.013   0.266  -2.836  0.00  0.00    +0.149 HD
ENDROOT
BRANCH   1   5
ATOM      5  C   UNL     1      -0.122   0.889  -2.690  0.00  0.00    +0.093 C 
BRANCH   5   6
ATOM      6  C   UNL     1      -0.320  -0.482  -2.039  0.00  0.00    -0.019 C 
BRANCH   6   7
ATOM      7  C   UNL     1      -1.769  -0.882  -2.142  0.00  0.00    -0.041 A 
ATOM      8  C   UNL     1      -2.667  -0.483  -1.170  0.00  0.00    +0.003 A 
ATOM      9  C   UNL     1      -3.996  -0.850  -1.263  0.00  0.00    +0.000 A 
ATOM     10  C   UNL     1      -4.429  -1.617  -2.329  0.00  0.00    +0.001 A 
ATOM     11  C   UNL     1      -3.532  -2.016  -3.302  0.00  0.00    +0.020 A 
ATOM     12  C   UNL     1      -2.202  -1.645  -3.212  0.00  0.00    +0.043 A 
ATOM     13 CL   UNL     1      -1.077  -2.140  -4.437  0.00  0.00    -0.083 Cl
ENDBRANCH   6   7
BRANCH   6  14
ATOM     14  N   UNL     1       0.070  -0.413  -0.625  0.00  0.00    +0.385 N 
ATOM     15  H   UNL     1      -0.729   0.110  -0.079  0.00  0.00    -0.081 HD
BRANCH  14  17
ATOM     16  C   UNL     1      -1.184  -2.372   0.141  0.00  0.00    -0.017 C 
ATOM     17  C   UNL     1       0.205  -1.758  -0.050  0.00  0.00    -0.081 C 
ENDBRANCH  14  17
BRANCH  14  18
ATOM     18  C   UNL     1       1.310   0.358  -0.457  0.00  0.00    -0.081 C 
ATOM     19  C   UNL     1       0.966   1.813  -0.135  0.00  0.00    -0.017 C 
ENDBRANCH  14  18
ENDBRANCH   6  14
ENDBRANCH   5   6
ENDBRANCH   1   5
BRANCH   2  20
ATOM     20  C   UNL     1       3.194   2.491  -3.733  0.00  0.00    +0.213 C 
BRANCH  20  21
ATOM     21  N   UNL     1       3.407   3.863  -4.203  0.00  0.00    -0.215 N 
ATOM     22  C   UNL     1       3.686   4.905  -3.395  0.00  0.00    +0.251 C 
ATOM     23  O   UNL     1       3.802   4.886  -2.189  0.00  0.00    -0.272 OA
ATOM     24  C   UNL     1       3.822   6.107  -4.309  0.00  0.00    +0.135 C 
ATOM     25  N   UNL     1       3.582   5.550  -5.652  0.00  0.00    -0.281 N 
ATOM     26  C   UNL     1       3.353   4.234  -5.487  0.00  0.00    +0.310 C 
ATOM     27  O   UNL     1       3.122   3.469  -6.402  0.00  0.00    -0.252 OA
ATOM     28  C   UNL     1       2.770   7.164  -3.969  0.00  0.00    +0.047 C 
ATOM     29  H   UNL     1       3.614   6.206  -6.534  0.00  0.00    +0.152 HD
BRANCH  24  30
ATOM     30  C   UNL     1       5.209   6.688  -4.217  0.00  0.00    -0.015 A 
ATOM     31  C   UNL     1       5.922   6.590  -3.036  0.00  0.00    +0.010 A 
ATOM     32  C   UNL     1       7.196   7.117  -2.951  0.00  0.00    +0.046 A 
ATOM     33  C   UNL     1       7.756   7.755  -4.048  0.00  0.00    +0.120 A 
ATOM     34  C   UNL     1       7.037   7.858  -5.230  0.00  0.00    +0.046 A 
ATOM     35  C   UNL     1       5.766   7.324  -5.312  0.00  0.00    +0.010 A 
BRANCH  33  36
ATOM     36  O   UNL     1       9.007   8.280  -3.964  0.00  0.00    -0.495 OA
ATOM     37  C   UNL     1       9.688   8.138  -2.716  0.00  0.00    +0.277 C 
ENDBRANCH  33  36
ENDBRANCH  24  30
ENDBRANCH  20  21
ENDBRANCH   2  20
TORSDOF 10
