REMARK  Name = ZINC12548283
REMARK  2 active torsions:
REMARK  status: ('A' for Active; 'I' for Inactive)
REMARK    1  A    between atoms: C_3  and  C_9
REMARK    2  A    between atoms: C_12  and  C_14
REMARK                            x       y       z     vdW  Elec       q    Type
REMARK                         _______ _______ _______ _____ _____    ______ ____
ROOT
ATOM      1  C   UNL     1       5.916   4.746  -1.278  0.00  0.00    +0.244 C 
ATOM      2  N   UNL     1       5.633   4.686  -2.724  0.00  0.00    -0.292 N 
ATOM      3  C   UNL     1       4.429   5.211  -3.171  0.00  0.00    +0.159 C 
ATOM      4  N   UNL     1       3.621   4.526  -3.929  0.00  0.00    -0.375 N 
ATOM      5  N   UNL     1       4.129   6.513  -2.766  0.00  0.00    -0.259 N 
ATOM      6  C   UNL     1       4.578   6.852  -1.491  0.00  0.00    +0.205 A 
ATOM      7  N   UNL     1       5.425   6.035  -0.780  0.00  0.00    -0.285 N 
ATOM      8  C   UNL     1       5.689   6.656   0.422  0.00  0.00    +0.076 A 
ATOM      9  C   UNL     1       6.462   6.331   1.529  0.00  0.00    +0.077 A 
ATOM     10  C   UNL     1       6.518   7.197   2.604  0.00  0.00    +0.164 A 
ATOM     11  C   UNL     1       5.804   8.392   2.587  0.00  0.00    +0.164 A 
ATOM     12  C   UNL     1       5.029   8.727   1.496  0.00  0.00    +0.079 A 
ATOM     13  C   UNL     1       4.965   7.861   0.401  0.00  0.00    +0.095 A 
ATOM     14  N   UNL     1       4.304   7.915  -0.794  0.00  0.00    -0.214 NA
ATOM     15  O   UNL     1       5.876   9.236   3.658  0.00  0.00    -0.488 OA
ATOM     16  C   UNL     1       5.266   8.769   4.863  0.00  0.00    +0.232 C 
ATOM     17  C   UNL     1       6.222   7.880   5.642  0.00  0.00    +0.082 C 
ATOM     18  C   UNL     1       6.559   6.598   4.896  0.00  0.00    +0.232 C 
ATOM     19  O   UNL     1       7.278   6.883   3.695  0.00  0.00    -0.488 OA
ATOM     20  H   UNL     1       6.268   4.291  -3.343  0.00  0.00    +0.151 HD
ATOM     21  H   UNL     1       3.644   7.135  -3.330  0.00  0.00    +0.158 HD
ATOM     22  H   UNL     1       3.855   3.623  -4.196  0.00  0.00    +0.158 HD
ATOM     23  H   UNL     1       2.786   4.919  -4.227  0.00  0.00    +0.158 HD
ENDROOT
BRANCH   1  27
ATOM     24  C   UNL     1       3.656   2.164  -0.022  0.00  0.00    +0.137 A 
ATOM     25  C   UNL     1       4.713   1.955   0.807  0.00  0.00    +0.050 A 
ATOM     26  C   UNL     1       5.702   2.894   0.448  0.00  0.00    +0.049 A 
ATOM     27  C   UNL     1       5.204   3.621  -0.571  0.00  0.00    +0.147 A 
ATOM     28  O   UNL     1       3.970   3.174  -0.855  0.00  0.00    -0.456 OA
BRANCH  24  31
ATOM     29  C   UNL     1      -0.017   1.379   0.010  0.00  0.00    +0.002 A 
ATOM     30  C   UNL     1       1.167   2.089   0.002  0.00  0.00    +0.013 A 
ATOM     31  C   UNL     1       2.385   1.409  -0.013  0.00  0.00    +0.037 A 
ATOM     32  C   UNL     1       2.399   0.013  -0.021  0.00  0.00    +0.070 A 
ATOM     33  C   UNL     1       1.207  -0.686  -0.013  0.00  0.00    +0.060 A 
ATOM     34  C   UNL     1       0.002  -0.004   0.002  0.00  0.00    +0.021 A 
ATOM     35 CL   UNL     1       1.220  -2.422  -0.022  0.00  0.00    -0.082 Cl
ATOM     36 CL   UNL     1       3.909  -0.843  -0.040  0.00  0.00    -0.081 Cl
ENDBRANCH  24  31
ENDBRANCH   1  27
TORSDOF 2
