REMARK  Name = ZINC39654602
REMARK  12 active torsions:
REMARK  status: ('A' for Active; 'I' for Inactive)
REMARK    1  A    between atoms: C_1  and  C_2
REMARK    2  A    between atoms: C_2  and  C_3
REMARK    3  A    between atoms: C_6  and  C_9
REMARK    4  A    between atoms: C_9  and  C_10
REMARK    5  A    between atoms: C_10  and  N_11
REMARK    6  A    between atoms: C_12  and  C_14
REMARK    7  A    between atoms: C_25  and  C_27
REMARK    8  A    between atoms: C_27  and  C_29
REMARK    9  A    between atoms: C_27  and  O_32
REMARK   10  A    between atoms: C_29  and  C_30
REMARK   11  A    between atoms: C_29  and  C_31
REMARK   12  A    between atoms: O_32  and  C_33
REMARK                            x       y       z     vdW  Elec       q    Type
REMARK                         _______ _______ _______ _____ _____    ______ ____
ROOT
ATOM      1  C   UNL     1       5.072  -0.670  -9.004  0.00  0.00    +0.100 C 
ATOM      2  C   UNL     1       6.377  -1.390  -8.597  0.00  0.00    +0.121 C 
ATOM      3  N   UNL     1       7.359  -0.998  -9.636  0.00  0.00    -0.297 N 
ATOM      4  C   UNL     1       7.067   0.431  -9.899  0.00  0.00    +0.115 C 
ATOM      5  C   UNL     1       5.529   0.525  -9.857  0.00  0.00    -0.004 C 
ATOM      6  C   UNL     1       5.098   1.836  -9.205  0.00  0.00    -0.010 C 
ATOM      7  C   UNL     1       5.513   3.007 -10.100  0.00  0.00    -0.082 C 
ATOM      8  N   UNL     1       4.884   2.863 -11.419  0.00  0.00    +0.379 N 
ATOM      9  C   UNL     1       5.375   1.647 -12.078  0.00  0.00    -0.082 C 
ATOM     10  C   UNL     1       4.955   0.419 -11.266  0.00  0.00    -0.010 C 
ATOM     11  C   UNL     1       8.305  -1.768 -10.211  0.00  0.00    +0.257 C 
ATOM     12  O   UNL     1       9.040  -1.297 -11.053  0.00  0.00    -0.272 OA
ATOM     13  H   UNL     1       3.882   2.803 -11.307  0.00  0.00    -0.086 HD
ATOM     14  H   UNL     1       5.109   3.666 -11.986  0.00  0.00    -0.086 HD
ENDROOT
BRANCH   1  16
ATOM     15  N   UNL     1       3.013   0.064  -7.846  0.00  0.00    -0.315 N 
ATOM     16  C   UNL     1       4.335  -0.189  -7.780  0.00  0.00    +0.218 C 
ATOM     17  O   UNL     1       4.931  -0.031  -6.736  0.00  0.00    -0.275 OA
ATOM     18  H   UNL     1       2.536  -0.062  -8.681  0.00  0.00    +0.149 HD
BRANCH  15  19
ATOM     19  C   UNL     1       2.296   0.531  -6.656  0.00  0.00    +0.109 C 
BRANCH  19  20
ATOM     20  C   UNL     1       0.820   0.742  -7.000  0.00  0.00    +0.054 C 
BRANCH  20  24
ATOM     21  C   UNL     1      -1.270   2.103  -3.532  0.00  0.00    -0.048 A 
ATOM     22  C   UNL     1      -0.698   3.017  -4.398  0.00  0.00    +0.004 A 
ATOM     23  C   UNL     1      -0.022   2.576  -5.520  0.00  0.00    +0.004 A 
ATOM     24  C   UNL     1       0.083   1.222  -5.776  0.00  0.00    -0.046 A 
ATOM     25  C   UNL     1      -0.488   0.308  -4.910  0.00  0.00    +0.004 A 
ATOM     26  C   UNL     1      -1.161   0.749  -3.786  0.00  0.00    +0.004 A 
BRANCH  21  28
ATOM     27  C   UNL     1      -1.031   2.704  -1.139  0.00  0.00    +0.009 C 
ATOM     28  C   UNL     1      -2.008   2.584  -2.309  0.00  0.00    +0.032 C 
ENDBRANCH  21  28
ENDBRANCH  20  24
ENDBRANCH  19  20
ENDBRANCH  15  19
ENDBRANCH   1  16
BRANCH  11  29
ATOM     29  C   UNL     1       8.448  -3.213  -9.807  0.00  0.00    +0.261 C 
BRANCH  29  30
ATOM     30  C   UNL     1       8.884  -3.293  -8.343  0.00  0.00    +0.033 C 
ATOM     31  C   UNL     1       9.030  -4.760  -7.934  0.00  0.00    +0.011 C 
ATOM     32  C   UNL     1      10.227  -2.580  -8.172  0.00  0.00    +0.011 C 
ENDBRANCH  29  30
BRANCH  29  33
ATOM     33  O   UNL     1       9.430  -3.842 -10.633  0.00  0.00    -0.479 OA
BRANCH  33  34
ATOM     34  C   UNL     1       9.239  -5.155 -10.927  0.00  0.00    +0.122 A 
ATOM     35  C   UNL     1       8.087  -5.801 -10.503  0.00  0.00    +0.045 A 
ATOM     36  C   UNL     1       7.895  -7.136 -10.805  0.00  0.00    +0.004 A 
ATOM     37  C   UNL     1       8.849  -7.827 -11.528  0.00  0.00    +0.000 A 
ATOM     38  C   UNL     1       9.998  -7.185 -11.951  0.00  0.00    +0.004 A 
ATOM     39  C   UNL     1      10.193  -5.849 -11.658  0.00  0.00    +0.045 A 
ENDBRANCH  33  34
ENDBRANCH  29  33
ENDBRANCH  11  29
TORSDOF 9
