REMARK  Name = ZINC07642544
REMARK  7 active torsions:
REMARK  status: ('A' for Active; 'I' for Inactive)
REMARK    1  A    between atoms: C_1  and  C_2
REMARK    2  A    between atoms: C_7  and  N_12
REMARK    3  A    between atoms: C_9  and  C_11
REMARK    4  A    between atoms: C_13  and  C_15
REMARK    5  A    between atoms: C_15  and  N_58
REMARK    6  A    between atoms: N_18  and  S_21
REMARK    7  A    between atoms: S_21  and  C_24
REMARK                            x       y       z     vdW  Elec       q    Type
REMARK                         _______ _______ _______ _____ _____    ______ ____
ROOT
ATOM      1  C   UNL     1       1.746   3.546   3.615  0.00  0.00    -0.061 C 
ATOM      2  C   UNL     1       1.264   4.071   2.259  0.00  0.00    +0.091 C 
ATOM      3  N   UNL     1       1.241   5.540   2.307  0.00  0.00    -0.180 NA
ATOM      4  C   UNL     1       2.452   6.240   2.762  0.00  0.00    +0.091 C 
ATOM      5  C   UNL     1       2.886   5.630   4.105  0.00  0.00    -0.061 C 
ATOM      6  N   UNL     1       3.050   4.171   3.930  0.00  0.00    +0.387 N 
ATOM      7  H   UNL     1       3.697   4.000   3.151  0.00  0.00    -0.081 HD
ENDROOT
BRANCH   3   8
ATOM      8  S   UNL     1      -0.109   6.385   1.855  0.00  0.00    +0.063 S 
ATOM      9  O   UNL     1      -0.840   5.542   0.974  0.00  0.00    -0.153 OA
ATOM     10  O   UNL     1       0.330   7.682   1.477  0.00  0.00    -0.153 OA
BRANCH   8  11
ATOM     11  C   UNL     1      -1.103   6.590   3.296  0.00  0.00    +0.140 A 
ATOM     12  C   UNL     1      -1.327   7.854   3.807  0.00  0.00    +0.031 A 
ATOM     13  C   UNL     1      -2.106   8.015   4.937  0.00  0.00    +0.002 A 
ATOM     14  C   UNL     1      -2.663   6.911   5.557  0.00  0.00    +0.003 A 
ATOM     15  C   UNL     1      -2.441   5.646   5.047  0.00  0.00    +0.040 A 
ATOM     16  C   UNL     1      -1.660   5.484   3.915  0.00  0.00    +0.150 A 
ATOM     17  F   UNL     1      -1.442   4.248   3.416  0.00  0.00    -0.203 F 
ENDBRANCH   8  11
ENDBRANCH   3   8
BRANCH   6  18
ATOM     18  C   UNL     1       3.611   3.575   5.160  0.00  0.00    +0.019 C 
BRANCH  18  20
ATOM     19  N   UNL     1       3.108   3.502   7.581  0.00  0.00    -0.314 N 
ATOM     20  C   UNL     1       2.719   3.860   6.341  0.00  0.00    +0.197 C 
ATOM     21  O   UNL     1       1.651   4.412   6.176  0.00  0.00    -0.278 OA
ATOM     22  H   UNL     1       3.961   3.060   7.713  0.00  0.00    +0.149 HD
BRANCH  19  28
ATOM     23  C   UNL     1       0.183   2.930  10.634  0.00  0.00    +0.008 C 
ATOM     24  C   UNL     1       1.647   3.078  11.053  0.00  0.00    -0.009 C 
ATOM     25  C   UNL     1       1.895   4.504  11.546  0.00  0.00    +0.003 C 
ATOM     26  C   UNL     1       1.583   5.494  10.422  0.00  0.00    +0.002 C 
ATOM     27  C   UNL     1       2.489   5.205   9.223  0.00  0.00    +0.022 C 
ATOM     28  C   UNL     1       2.241   3.778   8.729  0.00  0.00    +0.076 C 
ATOM     29  C   UNL     1       2.552   2.788   9.854  0.00  0.00    +0.009 C 
ATOM     30  C   UNL     1       2.305   1.362   9.360  0.00  0.00    +0.009 C 
ENDBRANCH  19  28
ENDBRANCH  18  20
ENDBRANCH   6  18
TORSDOF 5
