REMARK  Name = ZINC34926896
REMARK  4 active torsions:
REMARK  status: ('A' for Active; 'I' for Inactive)
REMARK    1  A    between atoms: C_8  and  C_10
REMARK    2  A    between atoms: C_13  and  N_16
REMARK    3  A    between atoms: C_17  and  C_19
REMARK    4  A    between atoms: C_19  and  C_20
REMARK                            x       y       z     vdW  Elec       q    Type
REMARK                         _______ _______ _______ _____ _____    ______ ____
ROOT
ATOM      1  C   UNL     1       3.629  -3.356  -0.034  0.00  0.00    +0.037 A 
ATOM      2  C   UNL     1       2.967  -4.574   0.140  0.00  0.00    +0.015 A 
ATOM      3  C   UNL     1       3.681  -5.752   0.121  0.00  0.00    +0.024 A 
ATOM      4  C   UNL     1       5.058  -5.730  -0.070  0.00  0.00    +0.033 A 
ATOM      5  C   UNL     1       5.720  -4.519  -0.243  0.00  0.00    +0.024 A 
ATOM      6  C   UNL     1       5.011  -3.338  -0.231  0.00  0.00    +0.015 A 
ENDROOT
BRANCH   1  14
ATOM      7  C   UNL     1      -0.023   1.365   0.153  0.00  0.00    +0.002 A 
ATOM      8  C   UNL     1       1.146   2.080  -0.062  0.00  0.00    +0.004 A 
ATOM      9  C   UNL     1       2.354   1.425  -0.188  0.00  0.00    +0.048 A 
ATOM     10  C   UNL     1       2.403   0.042  -0.098  0.00  0.00    +0.156 A 
ATOM     11  C   UNL     1       1.222  -0.685   0.120  0.00  0.00    +0.110 A 
ATOM     12  C   UNL     1       0.006  -0.008   0.245  0.00  0.00    +0.031 A 
ATOM     13  N   UNL     1       1.573  -1.996   0.162  0.00  0.00    -0.209 NA
ATOM     14  C   UNL     1       2.867  -2.091  -0.015  0.00  0.00    +0.228 A 
ATOM     15  O   UNL     1       3.401  -0.866  -0.176  0.00  0.00    -0.435 OA
ENDBRANCH   1  14
BRANCH   4  16
ATOM     16  N   UNL     1       5.778  -6.926  -0.088  0.00  0.00    -0.285 N 
ATOM     17  C   UNL     1       5.215  -8.045  -0.587  0.00  0.00    +0.219 C 
ATOM     18  O   UNL     1       4.120  -7.992  -1.106  0.00  0.00    -0.275 OA
ATOM     19  H   UNL     1       6.684  -6.952   0.257  0.00  0.00    +0.155 HD
BRANCH  17  20
ATOM     20  C   UNL     1       5.945  -9.360  -0.499  0.00  0.00    +0.120 C 
BRANCH  20  21
ATOM     21  C   UNL     1       5.092 -10.460  -1.133  0.00  0.00    +0.148 C 
ATOM     22  C   UNL     1       5.781 -11.815  -1.047  0.00  0.00    +0.232 C 
ATOM     23  O   UNL     1       6.043 -12.342   0.013  0.00  0.00    -0.274 OA
ATOM     24  N   UNL     1       6.074 -12.377  -2.207  0.00  0.00    -0.273 N 
ATOM     25  C   UNL     1       5.793 -11.813  -3.397  0.00  0.00    +0.114 C 
ATOM     26  S   UNL     1       5.003 -10.268  -2.963  0.00  0.00    -0.089 S 
ATOM     27  S   UNL     1       6.117 -12.430  -4.961  0.00  0.00    -0.028 S 
ATOM     28  H   UNL     1       6.514 -13.241  -2.201  0.00  0.00    +0.156 HD
ENDBRANCH  20  21
ENDBRANCH  17  20
ENDBRANCH   4  16
TORSDOF 4
