REMARK  Name = ZINC58179942
REMARK  7 active torsions:
REMARK  status: ('A' for Active; 'I' for Inactive)
REMARK    1  A    between atoms: C_1  and  C_2
REMARK    2  A    between atoms: C_5  and  N_9
REMARK    3  A    between atoms: C_10  and  C_12
REMARK    4  A    between atoms: C_12  and  N_13
REMARK    5  A    between atoms: C_16  and  C_20
REMARK    6  A    between atoms: C_16  and  C_21
REMARK    7  A    between atoms: C_24  and  C_26
REMARK                            x       y       z     vdW  Elec       q    Type
REMARK                         _______ _______ _______ _____ _____    ______ ____
ROOT
ATOM      1  N   UNL     1      -0.234  -6.825  -2.571  0.00  0.00    -0.215 N 
ATOM      2  C   UNL     1      -1.396  -7.000  -3.231  0.00  0.00    +0.254 C 
ATOM      3  O   UNL     1      -2.514  -6.795  -2.811  0.00  0.00    -0.272 OA
ATOM      4  C   UNL     1      -1.012  -7.504  -4.608  0.00  0.00    +0.168 C 
ATOM      5  N   UNL     1       0.459  -7.561  -4.559  0.00  0.00    -0.279 N 
ATOM      6  C   UNL     1       0.819  -7.141  -3.333  0.00  0.00    +0.310 C 
ATOM      7  O   UNL     1       1.973  -7.061  -2.958  0.00  0.00    -0.252 OA
ATOM      8  C   UNL     1      -1.478  -6.526  -5.688  0.00  0.00    +0.050 C 
ATOM      9  H   UNL     1       1.052  -7.842  -5.273  0.00  0.00    +0.152 HD
ENDROOT
BRANCH   4  10
ATOM     10  C   UNL     1      -1.588  -8.876  -4.849  0.00  0.00    +0.137 A 
ATOM     11  C   UNL     1      -1.044  -9.832  -5.623  0.00  0.00    +0.047 A 
ATOM     12  C   UNL     1      -1.910 -10.948  -5.565  0.00  0.00    +0.045 A 
ATOM     13  C   UNL     1      -2.931 -10.607  -4.759  0.00  0.00    +0.102 A 
ATOM     14  O   UNL     1      -2.728  -9.353  -4.324  0.00  0.00    -0.462 OA
ATOM     15  C   UNL     1      -4.102 -11.486  -4.400  0.00  0.00    +0.086 C 
ENDBRANCH   4  10
BRANCH   1  16
ATOM     16  C   UNL     1      -0.136  -6.343  -1.191  0.00  0.00    +0.214 C 
BRANCH  16  18
ATOM     17  N   UNL     1       0.057  -4.171  -0.023  0.00  0.00    -0.283 N 
ATOM     18  C   UNL     1      -0.042  -4.839  -1.190  0.00  0.00    +0.235 C 
ATOM     19  O   UNL     1      -0.055  -4.230  -2.238  0.00  0.00    -0.274 OA
ATOM     20  H   UNL     1       0.149  -4.660   0.809  0.00  0.00    +0.155 HD
BRANCH  17  25
ATOM     21  C   UNL     1      -0.064   1.502   0.016  0.00  0.00    +0.044 C 
ATOM     22  C   UNL     1      -0.031  -0.005   0.006  0.00  0.00    -0.049 A 
ATOM     23  C   UNL     1      -0.622  -0.701  -1.033  0.00  0.00    +0.005 A 
ATOM     24  C   UNL     1      -0.594  -2.082  -1.045  0.00  0.00    +0.025 A 
ATOM     25  C   UNL     1       0.028  -2.772  -0.014  0.00  0.00    +0.052 A 
ATOM     26  C   UNL     1       0.621  -2.070   1.029  0.00  0.00    +0.062 A 
ATOM     27  C   UNL     1       0.595  -0.688   1.032  0.00  0.00    +0.025 A 
ATOM     28 CL   UNL     1       1.401  -2.928   2.321  0.00  0.00    -0.082 Cl
ENDBRANCH  17  25
ENDBRANCH  16  18
ENDBRANCH   1  16
TORSDOF 4
