REMARK  Name = ZINC04676842
REMARK  5 active torsions:
REMARK  status: ('A' for Active; 'I' for Inactive)
REMARK    1  A    between atoms: C_4  and  S_7
REMARK    2  A    between atoms: S_7  and  O_10
REMARK    3  A    between atoms: O_10  and  C_11
REMARK    4  A    between atoms: C_14  and  C_17
REMARK    5  A    between atoms: N_18  and  N_19
REMARK                            x       y       z     vdW  Elec       q    Type
REMARK                         _______ _______ _______ _____ _____    ______ ____
ROOT
ATOM      1  C   UNL     1      -1.235   3.138   0.031  0.00  0.00    +0.157 A 
ATOM      2  C   UNL     1      -1.215   1.750   0.017  0.00  0.00    +0.049 A 
ATOM      3  C   UNL     1      -0.013   1.076   0.008  0.00  0.00    +0.013 A 
ATOM      4  C   UNL     1       1.187   1.792   0.000  0.00  0.00    -0.005 A 
ATOM      5  C   UNL     1       1.162   3.189   0.008  0.00  0.00    +0.013 A 
ATOM      6  C   UNL     1      -0.044   3.854   0.023  0.00  0.00    +0.049 A 
ENDROOT
BRANCH   4   7
ATOM      7  C   UNL     1       2.476   1.075  -0.015  0.00  0.00    +0.138 C 
ATOM      8  N   UNL     1       3.589   1.742  -0.022  0.00  0.00    -0.186 NA
BRANCH   8   9
ATOM      9  N   UNL     1       4.813   1.062  -0.037  0.00  0.00    -0.191 N 
ATOM     10  C   UNL     1       5.969   1.754  -0.045  0.00  0.00    +0.317 C 
ATOM     11  O   UNL     1       7.032   1.163  -0.058  0.00  0.00    -0.251 OA
ATOM     12  N   UNL     1       5.948   3.102  -0.038  0.00  0.00    -0.312 N 
ATOM     13  H   UNL     1       4.829   0.092  -0.042  0.00  0.00    +0.179 HD
ATOM     14  H   UNL     1       5.100   3.573  -0.027  0.00  0.00    +0.147 HD
ATOM     15  H   UNL     1       6.780   3.600  -0.043  0.00  0.00    +0.147 HD
ENDBRANCH   8   9
ENDBRANCH   4   7
BRANCH   1  16
ATOM     16  O   UNL     1      -2.422   3.798   0.047  0.00  0.00    -0.342 OA
BRANCH  16  17
ATOM     17  S   UNL     1      -2.977   4.107  -1.337  0.00  0.00    +0.151 S 
ATOM     18  O   UNL     1      -4.092   4.966  -1.145  0.00  0.00    -0.131 OA
ATOM     19  O   UNL     1      -1.867   4.467  -2.148  0.00  0.00    -0.131 OA
BRANCH  17  23
ATOM     20  C   UNL     1      -4.605   0.233  -3.020  0.00  0.00    +0.000 A 
ATOM     21  C   UNL     1      -5.426   1.064  -2.280  0.00  0.00    +0.002 A 
ATOM     22  C   UNL     1      -4.928   2.247  -1.766  0.00  0.00    +0.030 A 
ATOM     23  C   UNL     1      -3.611   2.599  -1.992  0.00  0.00    +0.128 A 
ATOM     24  C   UNL     1      -2.792   1.770  -2.736  0.00  0.00    +0.030 A 
ATOM     25  C   UNL     1      -3.288   0.585  -3.245  0.00  0.00    +0.002 A 
ENDBRANCH  17  23
ENDBRANCH  16  17
ENDBRANCH   1  16
TORSDOF 5
