REMARK  Name = ZINC50324642
REMARK  6 active torsions:
REMARK  status: ('A' for Active; 'I' for Inactive)
REMARK    1  A    between atoms: C_1  and  C_2
REMARK    2  A    between atoms: C_8  and  C_10
REMARK    3  A    between atoms: C_10  and  N_11
REMARK    4  A    between atoms: C_12  and  C_14
REMARK    5  A    between atoms: C_15  and  N_23
REMARK    6  A    between atoms: C_16  and  C_20
REMARK                            x       y       z     vdW  Elec       q    Type
REMARK                         _______ _______ _______ _____ _____    ______ ____
ROOT
ATOM      1  N   UNL     1       2.921  -0.562   2.352  0.00  0.00    -0.310 N 
ATOM      2  C   UNL     1       4.215  -0.237   2.543  0.00  0.00    +0.264 C 
ATOM      3  O   UNL     1       4.766   0.539   1.784  0.00  0.00    -0.268 OA
ATOM      4  H   UNL     1       2.481  -1.180   2.957  0.00  0.00    +0.149 HD
ENDROOT
BRANCH   2   5
ATOM      5  C   UNL     1       4.957  -0.817   3.664  0.00  0.00    +0.141 A 
ATOM      6  C   UNL     1       6.288  -0.580   3.999  0.00  0.00    +0.078 A 
ATOM      7  C   UNL     1       6.523  -1.363   5.141  0.00  0.00    +0.087 A 
ATOM      8  N   UNL     1       5.416  -1.994   5.432  0.00  0.00    -0.176 NA
ATOM      9  N   UNL     1       4.482  -1.700   4.602  0.00  0.00    -0.271 N 
ATOM     10  H   UNL     1       3.578  -2.050   4.631  0.00  0.00    +0.189 HD
BRANCH   7  11
ATOM     11  C   UNL     1       7.823  -1.460   5.897  0.00  0.00    +0.041 C 
ATOM     12  C   UNL     1       7.926  -2.523   6.993  0.00  0.00    +0.010 C 
ATOM     13  C   UNL     1       7.816  -1.044   7.370  0.00  0.00    +0.010 C 
ENDBRANCH   7  11
BRANCH   6  14
ATOM     14  N   UNL     1       7.191   0.253   3.343  0.00  0.00    -0.355 N 
ATOM     15  H   UNL     1       6.911   0.749   2.557  0.00  0.00    +0.142 HD
ATOM     16  H   UNL     1       8.100   0.338   3.672  0.00  0.00    +0.142 HD
ENDBRANCH   6  14
ENDBRANCH   2   5
BRANCH   1  17
ATOM     17  C   UNL     1       2.178   0.019   1.231  0.00  0.00    +0.108 C 
BRANCH  17  24
ATOM     18  C   UNL     1      -0.019   1.526   0.010  0.00  0.00    +0.008 C 
ATOM     19  C   UNL     1       0.002  -0.004   0.002  0.00  0.00    -0.010 C 
ATOM     20  C   UNL     1      -1.433  -0.534   0.013  0.00  0.00    +0.003 C 
ATOM     21  C   UNL     1      -2.149  -0.040   1.272  0.00  0.00    +0.000 C 
ATOM     22  C   UNL     1      -1.409  -0.547   2.511  0.00  0.00    +0.000 C 
ATOM     23  C   UNL     1       0.026  -0.018   2.500  0.00  0.00    +0.005 C 
ATOM     24  C   UNL     1       0.742  -0.511   1.242  0.00  0.00    +0.009 C 
ENDBRANCH  17  24
ENDBRANCH   1  17
TORSDOF 5
