REMARK  Name = ZINC33582521
REMARK  12 active torsions:
REMARK  status: ('A' for Active; 'I' for Inactive)
REMARK    1  A    between atoms: C_1  and  C_2
REMARK    2  A    between atoms: C_2  and  O_3
REMARK    3  A    between atoms: O_3  and  C_4
REMARK    4  A    between atoms: C_4  and  C_6
REMARK    5  A    between atoms: C_10  and  N_11
REMARK    6  A    between atoms: C_12  and  C_14
REMARK    7  A    between atoms: C_15  and  C_16
REMARK    8  A    between atoms: C_20  and  N_22
REMARK    9  A    between atoms: C_25  and  C_31
REMARK   10  A    between atoms: C_25  and  C_32
REMARK   11  A    between atoms: C_27  and  C_29
REMARK   12  A    between atoms: C_27  and  C_30
REMARK                            x       y       z     vdW  Elec       q    Type
REMARK                         _______ _______ _______ _____ _____    ______ ____
ROOT
ATOM      1  C   UNL     1      -1.079  -0.882   0.008  0.00  0.00    +0.091 A 
ATOM      2  C   UNL     1      -0.782  -2.299  -0.009  0.00  0.00    -0.024 A 
ATOM      3  C   UNL     1       0.532  -2.620  -0.018  0.00  0.00    -0.016 A 
ATOM      4  S   UNL     1       1.373  -1.064  -0.014  0.00  0.00    -0.079 S 
ATOM      5  C   UNL     1       0.002  -0.004   0.002  0.00  0.00    +0.086 A 
ATOM      6  C   UNL     1       1.111  -3.998  -0.022  0.00  0.00    -0.041 C 
ATOM      7  N   UNL     1       0.083  -5.014  -0.218  0.00  0.00    +0.389 N 
ATOM      8  C   UNL     1      -1.187  -4.601  -0.790  0.00  0.00    -0.069 C 
ATOM      9  C   UNL     1      -1.806  -3.426  -0.024  0.00  0.00    +0.024 C 
ATOM     10  C   UNL     1      -1.029  -4.215  -2.264  0.00  0.00    -0.010 C 
ATOM     11  C   UNL     1      -2.170  -5.784  -0.715  0.00  0.00    -0.010 C 
ATOM     12  C   UNL     1       2.178  -4.098  -1.121  0.00  0.00    -0.005 C 
ATOM     13  C   UNL     1       1.802  -4.238   1.334  0.00  0.00    -0.005 C 
ATOM     14  H   UNL     1       0.462  -5.792  -0.898  0.00  0.00    -0.084 HD
ATOM     15  H   UNL     1      -0.174  -5.468   0.750  0.00  0.00    -0.084 HD
ENDROOT
BRANCH   5  16
ATOM     16  N   UNL     1      -0.017   1.380   0.010  0.00  0.00    -0.276 N 
ATOM     17  C   UNL     1       1.141   2.070   0.002  0.00  0.00    +0.241 C 
ATOM     18  O   UNL     1       2.203   1.475  -0.011  0.00  0.00    -0.270 OA
ATOM     19  H   UNL     1      -0.977   1.917   0.022  0.00  0.00    +0.156 HD
BRANCH  17  20
ATOM     20  C   UNL     1       1.121   3.533   0.010  0.00  0.00    +0.068 C 
ATOM     21  C   UNL     1       2.280   4.223   0.003  0.00  0.00    +0.013 C 
BRANCH  21  22
ATOM     22  C   UNL     1       2.260   5.695   0.011  0.00  0.00    -0.023 A 
ATOM     23  C   UNL     1       1.041   6.381   0.021  0.00  0.00    +0.008 A 
ATOM     24  C   UNL     1       1.031   7.760   0.033  0.00  0.00    +0.003 A 
ATOM     25  C   UNL     1       2.223   8.464   0.026  0.00  0.00    +0.033 A 
ATOM     26  C   UNL     1       3.432   7.793   0.011  0.00  0.00    +0.127 A 
ATOM     27  C   UNL     1       3.459   6.414   0.004  0.00  0.00    +0.040 A 
BRANCH  26  28
ATOM     28  N   UNL     1       4.700   8.556   0.003  0.00  0.00    +0.056 N 
ATOM     29  O   UNL     1       5.766   7.966  -0.010  0.00  0.00    -0.126 OA
ATOM     30  O   UNL     1       4.678   9.774   0.010  0.00  0.00    -0.126 OA
ENDBRANCH  26  28
ENDBRANCH  21  22
ENDBRANCH  17  20
ENDBRANCH   5  16
BRANCH   1  31
ATOM     31  C   UNL     1      -2.454  -0.380   0.033  0.00  0.00    +0.342 C 
ATOM     32  O   UNL     1      -3.040  -0.160  -1.010  0.00  0.00    -0.245 OA
BRANCH  31  33
ATOM     33  O   UNL     1      -3.070  -0.161   1.212  0.00  0.00    -0.461 OA
BRANCH  33  35
ATOM     34  C   UNL     1      -4.962   0.523   2.585  0.00  0.00    +0.048 C 
ATOM     35  C   UNL     1      -4.433   0.337   1.161  0.00  0.00    +0.229 C 
ENDBRANCH  33  35
ENDBRANCH  31  33
ENDBRANCH   1  31
TORSDOF 7
