REMARK  Name = ZINC02475875
REMARK  7 active torsions:
REMARK  status: ('A' for Active; 'I' for Inactive)
REMARK    1  A    between atoms: C_1  and  C_2
REMARK    2  A    between atoms: C_2  and  C_3
REMARK    3  A    between atoms: C_2  and  C_4
REMARK    4  A    between atoms: C_2  and  N_5
REMARK    5  A    between atoms: C_6  and  C_8
REMARK    6  A    between atoms: C_13  and  C_24
REMARK    7  A    between atoms: C_16  and  C_19
REMARK                            x       y       z     vdW  Elec       q    Type
REMARK                         _______ _______ _______ _____ _____    ______ ____
ROOT
ATOM      1  C   UNL     1       2.663  -0.609  -2.642  0.00  0.00    +0.167 A 
ATOM      2  C   UNL     1       4.002  -0.330  -2.997  0.00  0.00    +0.112 A 
ATOM      3  C   UNL     1       4.248  -0.946  -4.171  0.00  0.00    +0.137 A 
ATOM      4  N   UNL     1       3.110  -1.595  -4.558  0.00  0.00    -0.237 N 
ATOM      5  N   UNL     1       2.138  -1.374  -3.583  0.00  0.00    -0.163 NA
ATOM      6  C   UNL     1       2.999  -2.373  -5.795  0.00  0.00    +0.215 C 
ATOM      7  C   UNL     1       4.118  -1.947  -6.752  0.00  0.00    +0.066 C 
ATOM      8  C   UNL     1       5.465  -1.968  -6.022  0.00  0.00    +0.140 C 
ATOM      9  N   UNL     1       5.423  -0.974  -4.931  0.00  0.00    -0.318 N 
ATOM     10 CL   UNL     1       5.126   0.631  -2.088  0.00  0.00    -0.078 Cl
ATOM     11  H   UNL     1       6.165  -0.376  -4.751  0.00  0.00    +0.148 HD
ENDROOT
BRANCH   8  12
ATOM     12  C   UNL     1       6.569  -1.619  -6.986  0.00  0.00    +0.125 A 
ATOM     13  C   UNL     1       7.386  -2.496  -7.598  0.00  0.00    +0.046 A 
ATOM     14  C   UNL     1       8.264  -1.741  -8.409  0.00  0.00    +0.041 A 
ATOM     15  C   UNL     1       7.932  -0.448  -8.243  0.00  0.00    +0.195 A 
ATOM     16  O   UNL     1       6.901  -0.380  -7.385  0.00  0.00    -0.466 OA
ENDBRANCH   8  12
BRANCH   1  18
ATOM     17  N   UNL     1       0.688  -0.476  -1.203  0.00  0.00    -0.305 N 
ATOM     18  C   UNL     1       1.972  -0.132  -1.427  0.00  0.00    +0.266 C 
ATOM     19  O   UNL     1       2.560   0.570  -0.628  0.00  0.00    -0.268 OA
ATOM     20  H   UNL     1       0.218  -1.037  -1.840  0.00  0.00    +0.150 HD
BRANCH  17  22
ATOM     21  C   UNL     1      -0.019   1.526   0.010  0.00  0.00    +0.031 C 
ATOM     22  C   UNL     1       0.002  -0.004   0.002  0.00  0.00    +0.027 C 
ATOM     23  C   UNL     1       0.742  -0.511   1.242  0.00  0.00    +0.031 C 
ATOM     24  C   UNL     1      -1.433  -0.534   0.013  0.00  0.00    +0.031 C 
ENDBRANCH  17  22
ENDBRANCH   1  18
BRANCH   6  25
ATOM     25  C   UNL     1       1.639  -2.111  -6.445  0.00  0.00    +0.412 C 
ATOM     26  F   UNL     1       1.517  -0.749  -6.740  0.00  0.00    -0.168 F 
ATOM     27  F   UNL     1       1.535  -2.855  -7.625  0.00  0.00    -0.168 F 
ATOM     28  F   UNL     1       0.620  -2.490  -5.564  0.00  0.00    -0.168 F 
ENDBRANCH   6  25
TORSDOF 4
