REMARK  Name = ZINC41514883
REMARK  9 active torsions:
REMARK  status: ('A' for Active; 'I' for Inactive)
REMARK    1  A    between atoms: C_1  and  C_2
REMARK    2  A    between atoms: C_2  and  N_3
REMARK    3  A    between atoms: N_6  and  C_9
REMARK    4  A    between atoms: C_9  and  C_10
REMARK    5  A    between atoms: C_11  and  O_31
REMARK    6  A    between atoms: C_13  and  C_30
REMARK    7  A    between atoms: C_18  and  C_19
REMARK    8  A    between atoms: C_24  and  O_25
REMARK    9  A    between atoms: O_25  and  C_26
REMARK                            x       y       z     vdW  Elec       q    Type
REMARK                         _______ _______ _______ _____ _____    ______ ____
ROOT
ATOM      1  C   UNL     1      -3.760  -4.236  -1.137  0.00  0.00    +0.051 A 
ATOM      2  C   UNL     1      -3.572  -4.868  -2.355  0.00  0.00    +0.125 A 
ATOM      3  C   UNL     1      -3.666  -6.253  -2.457  0.00  0.00    +0.050 A 
ATOM      4  C   UNL     1      -3.946  -7.005  -1.350  0.00  0.00    -0.033 A 
ATOM      5  C   UNL     1      -4.138  -6.382  -0.117  0.00  0.00    +0.071 A 
ATOM      6  C   UNL     1      -4.040  -4.986  -0.001  0.00  0.00    +0.148 A 
ATOM      7  O   UNL     1      -4.257  -4.618   1.280  0.00  0.00    -0.451 OA
ATOM      8  C   UNL     1      -4.498  -5.687   2.076  0.00  0.00    +0.176 C 
ATOM      9  C   UNL     1      -4.752  -5.653   3.410  0.00  0.00    +0.061 C 
ATOM     10  C   UNL     1      -4.446  -6.889   1.232  0.00  0.00    +0.232 C 
ATOM     11  O   UNL     1      -4.609  -8.048   1.574  0.00  0.00    -0.283 OA
ATOM     12  C   UNL     1      -4.048  -8.504  -1.462  0.00  0.00    +0.045 C 
ENDROOT
BRANCH   9  13
ATOM     13  C   UNL     1      -4.688  -4.380   4.136  0.00  0.00    +0.021 A 
ATOM     14  C   UNL     1      -4.729  -3.167   3.438  0.00  0.00    +0.027 A 
ATOM     15  C   UNL     1      -4.669  -1.976   4.128  0.00  0.00    +0.019 A 
ATOM     16  C   UNL     1      -4.567  -1.972   5.511  0.00  0.00    +0.019 A 
ATOM     17  C   UNL     1      -4.525  -3.162   6.213  0.00  0.00    +0.047 A 
ATOM     18  C   UNL     1      -4.590  -4.370   5.538  0.00  0.00    +0.127 A 
ATOM     19 BR   UNL     1      -4.725  -0.338   3.185  0.00  0.00    -0.050 Br
BRANCH  18  20
ATOM     20  O   UNL     1      -4.555  -5.539   6.227  0.00  0.00    -0.495 OA
ATOM     21  C   UNL     1      -4.455  -5.450   7.650  0.00  0.00    +0.277 C 
ENDBRANCH  18  20
ENDBRANCH   9  13
BRANCH   2  22
ATOM     22  O   UNL     1      -3.294  -4.130  -3.460  0.00  0.00    -0.506 OA
ATOM     23  H   UNL     1      -2.350  -3.987  -3.610  0.00  0.00    +0.292 HD
ENDBRANCH   2  22
BRANCH   1  24
ATOM     24  C   UNL     1      -3.655  -2.735  -1.042  0.00  0.00    +0.126 C 
BRANCH  24  28
ATOM     25  N   UNL     1      -0.222  -1.006   0.717  0.00  0.00    +0.381 N 
ATOM     26  C   UNL     1      -0.603  -0.567  -0.632  0.00  0.00    -0.063 C 
ATOM     27  C   UNL     1      -2.073  -0.909  -0.884  0.00  0.00    +0.066 C 
ATOM     28  N   UNL     1      -2.265  -2.360  -0.751  0.00  0.00    -0.301 NA
ATOM     29  C   UNL     1      -1.865  -2.818   0.587  0.00  0.00    +0.066 C 
ATOM     30  C   UNL     1      -0.397  -2.460   0.828  0.00  0.00    -0.063 C 
ATOM     31  H   UNL     1      -0.807  -0.545   1.398  0.00  0.00    -0.082 HD
BRANCH  25  33
ATOM     32  C   UNL     1       1.342   0.861   0.974  0.00  0.00    -0.017 C 
ATOM     33  C   UNL     1       1.184  -0.661   0.966  0.00  0.00    -0.082 C 
ENDBRANCH  25  33
ENDBRANCH  24  28
ENDBRANCH   1  24
TORSDOF 6
