REMARK  Name = ZINC06077126
REMARK  7 active torsions:
REMARK  status: ('A' for Active; 'I' for Inactive)
REMARK    1  A    between atoms: C_1  and  C_2
REMARK    2  A    between atoms: C_2  and  C_38
REMARK    3  A    between atoms: C_6  and  C_19
REMARK    4  A    between atoms: C_22  and  C_24
REMARK    5  A    between atoms: C_26  and  N_32
REMARK    6  A    between atoms: C_29  and  O_30
REMARK    7  A    between atoms: O_30  and  C_31
REMARK                            x       y       z     vdW  Elec       q    Type
REMARK                         _______ _______ _______ _____ _____    ______ ____
ROOT
ATOM      1  C   UNL     1      -6.437   4.702  -4.799  0.00  0.00    +0.011 C 
ATOM      2  C   UNL     1      -4.949   5.040  -4.890  0.00  0.00    -0.024 C 
ATOM      3  C   UNL     1      -4.120   3.755  -4.943  0.00  0.00    +0.043 C 
ATOM      4  C   UNL     1      -4.289   2.961  -3.673  0.00  0.00    -0.029 C 
ATOM      5  C   UNL     1      -4.529   3.599  -2.494  0.00  0.00    +0.026 C 
ATOM      6  C   UNL     1      -4.675   2.817  -1.212  0.00  0.00    +0.171 C 
ATOM      7  N   UNL     1      -5.153   1.463  -1.486  0.00  0.00    -0.330 N 
ATOM      8  C   UNL     1      -4.776   0.813  -2.649  0.00  0.00    +0.036 A 
ATOM      9  C   UNL     1      -4.244   1.547  -3.722  0.00  0.00    +0.007 A 
ATOM     10  C   UNL     1      -3.664   0.809  -4.841  0.00  0.00    -0.009 A 
ATOM     11  C   UNL     1      -2.916   1.419  -5.850  0.00  0.00    +0.009 A 
ATOM     12  C   UNL     1      -2.464   0.688  -6.912  0.00  0.00    +0.001 A 
ATOM     13  C   UNL     1      -2.716  -0.677  -6.999  0.00  0.00    +0.001 A 
ATOM     14  C   UNL     1      -3.398  -1.318  -6.010  0.00  0.00    +0.008 A 
ATOM     15  C   UNL     1      -3.849  -0.598  -4.892  0.00  0.00    -0.017 A 
ATOM     16  C   UNL     1      -4.455  -1.265  -3.811  0.00  0.00    +0.010 A 
ATOM     17  C   UNL     1      -4.881  -0.578  -2.722  0.00  0.00    +0.024 A 
ATOM     18  C   UNL     1      -4.660   4.995  -2.434  0.00  0.00    +0.162 C 
ATOM     19  O   UNL     1      -4.896   5.527  -1.367  0.00  0.00    -0.292 OA
ATOM     20  C   UNL     1      -4.518   5.849  -3.663  0.00  0.00    +0.086 C 
ATOM     21  C   UNL     1      -4.691   5.863  -6.157  0.00  0.00    +0.011 C 
ATOM     22  H   UNL     1      -5.739   1.013  -0.848  0.00  0.00    +0.147 HD
ENDROOT
BRANCH   6  23
ATOM     23  C   UNL     1      -3.341   2.747  -0.510  0.00  0.00    +0.130 A 
ATOM     24  C   UNL     1      -2.956   3.521   0.524  0.00  0.00    +0.047 A 
ATOM     25  C   UNL     1      -1.648   3.125   0.870  0.00  0.00    +0.050 A 
ATOM     26  C   UNL     1      -1.304   2.121   0.020  0.00  0.00    +0.139 A 
ATOM     27  O   UNL     1      -2.339   1.907  -0.816  0.00  0.00    -0.457 OA
BRANCH  26  28
ATOM     28  C   UNL     1      -0.017   1.396   0.010  0.00  0.00    +0.061 A 
ATOM     29  C   UNL     1       1.186   2.103   0.002  0.00  0.00    +0.048 A 
ATOM     30  C   UNL     1       2.385   1.420  -0.013  0.00  0.00    +0.127 A 
ATOM     31  C   UNL     1       2.399   0.036  -0.021  0.00  0.00    +0.036 A 
ATOM     32  C   UNL     1       1.214  -0.675  -0.013  0.00  0.00    +0.048 A 
ATOM     33  C   UNL     1       0.002  -0.004   0.002  0.00  0.00    +0.131 A 
BRANCH  30  34
ATOM     34  N   UNL     1       3.661   2.171  -0.021  0.00  0.00    +0.056 N 
ATOM     35  O   UNL     1       4.720   1.571  -0.034  0.00  0.00    -0.126 OA
ATOM     36  O   UNL     1       3.651   3.389  -0.014  0.00  0.00    -0.126 OA
ENDBRANCH  30  34
BRANCH  33  37
ATOM     37  O   UNL     1      -1.163  -0.702   0.009  0.00  0.00    -0.494 OA
ATOM     38  C   UNL     1      -1.066  -2.128   0.000  0.00  0.00    +0.277 C 
ENDBRANCH  33  37
ENDBRANCH  26  28
ENDBRANCH   6  23
TORSDOF 4
