REMARK  Name = ZINC14742479
REMARK  8 active torsions:
REMARK  status: ('A' for Active; 'I' for Inactive)
REMARK    1  A    between atoms: C_1  and  C_2
REMARK    2  A    between atoms: N_5  and  C_11
REMARK    3  A    between atoms: C_7  and  C_10
REMARK    4  A    between atoms: N_14  and  C_17
REMARK    5  A    between atoms: C_23  and  C_27
REMARK    6  A    between atoms: N_25  and  C_26
REMARK    7  A    between atoms: N_29  and  C_30
REMARK    8  A    between atoms: C_30  and  C_31
REMARK                            x       y       z     vdW  Elec       q    Type
REMARK                         _______ _______ _______ _____ _____    ______ ____
ROOT
ATOM      1  C   UNL     1      -6.023  -4.871  -1.442  0.00  0.00    -0.064 C 
ATOM      2  C   UNL     1      -5.873  -6.393  -1.515  0.00  0.00    -0.009 C 
ATOM      3  C   UNL     1      -7.254  -7.053  -1.418  0.00  0.00    +0.054 C 
ATOM      4  C   UNL     1      -8.170  -6.385  -2.411  0.00  0.00    +0.043 A 
ATOM      5  C   UNL     1      -7.910  -5.188  -2.993  0.00  0.00    +0.004 A 
ATOM      6  C   UNL     1      -8.997  -4.929  -3.844  0.00  0.00    +0.150 A 
ATOM      7  N   UNL     1      -9.823  -5.954  -3.727  0.00  0.00    -0.166 NA
ATOM      8  N   UNL     1      -9.350  -6.812  -2.890  0.00  0.00    -0.270 N 
ATOM      9  C   UNL     1     -10.003  -8.069  -2.516  0.00  0.00    +0.172 C 
ATOM     10  C   UNL     1      -6.684  -4.359  -2.729  0.00  0.00    +0.024 C 
ENDROOT
BRANCH   1  14
ATOM     11  C   UNL     1      -2.771  -2.548   0.036  0.00  0.00    +0.053 C 
ATOM     12  C   UNL     1      -3.444  -2.150  -1.281  0.00  0.00    +0.000 C 
ATOM     13  C   UNL     1      -4.830  -2.794  -1.354  0.00  0.00    -0.077 C 
ATOM     14  N   UNL     1      -4.698  -4.255  -1.293  0.00  0.00    +0.382 N 
ATOM     15  C   UNL     1      -4.119  -4.649  -0.003  0.00  0.00    -0.077 C 
ATOM     16  C   UNL     1      -2.706  -4.075   0.123  0.00  0.00    +0.000 C 
ATOM     17  H   UNL     1      -4.097  -4.569  -2.040  0.00  0.00    -0.081 HD
BRANCH  11  21
ATOM     18  C   UNL     1      -0.018   1.532  -0.018  0.00  0.00    +0.039 C 
ATOM     19  C   UNL     1       0.001   0.002  -0.014  0.00  0.00    +0.130 C 
ATOM     20  C   UNL     1      -1.435  -0.527  -0.003  0.00  0.00    +0.116 C 
ATOM     21  N   UNL     1      -1.411  -1.995   0.079  0.00  0.00    -0.295 NA
ATOM     22  C   UNL     1      -0.700  -2.438   1.288  0.00  0.00    +0.116 C 
ATOM     23  C   UNL     1       0.729  -1.889   1.263  0.00  0.00    +0.130 C 
ATOM     24  O   UNL     1       0.686  -0.464   1.151  0.00  0.00    -0.371 OA
ATOM     25  C   UNL     1       1.449  -2.280   2.555  0.00  0.00    +0.039 C 
ENDBRANCH  11  21
ENDBRANCH   1  14
BRANCH   6  26
ATOM     26  C   UNL     1      -9.181  -3.741  -4.703  0.00  0.00    +0.265 C 
ATOM     27  O   UNL     1      -8.339  -2.865  -4.717  0.00  0.00    -0.268 OA
ATOM     28  N   UNL     1     -10.282  -3.630  -5.471  0.00  0.00    -0.306 N 
ATOM     29  H   UNL     1     -10.954  -4.329  -5.460  0.00  0.00    +0.149 HD
BRANCH  28  30
ATOM     30  C   UNL     1     -10.465  -2.452  -6.323  0.00  0.00    +0.142 C 
BRANCH  30  31
ATOM     31  C   UNL     1     -11.766  -2.571  -7.074  0.00  0.00    +0.005 A 
ATOM     32  C   UNL     1     -11.770  -2.999  -8.388  0.00  0.00    +0.008 A 
ATOM     33  C   UNL     1     -12.963  -3.109  -9.077  0.00  0.00    +0.000 A 
ATOM     34  C   UNL     1     -14.155  -2.791  -8.452  0.00  0.00    +0.003 A 
ATOM     35  C   UNL     1     -14.154  -2.364  -7.138  0.00  0.00    +0.038 A 
ATOM     36  C   UNL     1     -12.959  -2.259  -6.445  0.00  0.00    +0.128 A 
ATOM     37  F   UNL     1     -12.958  -1.845  -5.159  0.00  0.00    -0.205 F 
ENDBRANCH  30  31
ENDBRANCH  28  30
ENDBRANCH   6  26
TORSDOF 5
