REMARK  Name = ZINC59334090
REMARK  14 active torsions:
REMARK  status: ('A' for Active; 'I' for Inactive)
REMARK    1  A    between atoms: C_1  and  C_2
REMARK    2  A    between atoms: C_2  and  O_3
REMARK    3  A    between atoms: O_3  and  C_4
REMARK    4  A    between atoms: C_4  and  C_6
REMARK    5  A    between atoms: C_7  and  C_33
REMARK    6  A    between atoms: C_8  and  C_29
REMARK    7  A    between atoms: C_10  and  N_11
REMARK    8  A    between atoms: C_12  and  C_14
REMARK    9  A    between atoms: C_14  and  N_15
REMARK   10  A    between atoms: N_15  and  C_16
REMARK   11  A    between atoms: N_15  and  C_19
REMARK   12  A    between atoms: C_19  and  C_21
REMARK   13  A    between atoms: C_19  and  C_22
REMARK   14  A    between atoms: N_31  and  C_32
REMARK                            x       y       z     vdW  Elec       q    Type
REMARK                         _______ _______ _______ _____ _____    ______ ____
ROOT
ATOM      1  N   UNL     1       0.003  -1.680  -4.866  0.00  0.00    -0.281 N 
ATOM      2  C   UNL     1      -0.772  -2.219  -5.828  0.00  0.00    +0.201 C 
ATOM      3  O   UNL     1      -0.263  -2.693  -6.822  0.00  0.00    -0.278 OA
ATOM      4  H   UNL     1      -0.404  -1.301  -4.071  0.00  0.00    +0.155 HD
ENDROOT
BRANCH   1   9
ATOM      5  C   UNL     1       2.332  -1.160  -4.129  0.00  0.00    +0.091 A 
ATOM      6  C   UNL     1       3.667  -1.270  -4.493  0.00  0.00    -0.015 A 
ATOM      7  C   UNL     1       3.921  -1.868  -5.698  0.00  0.00    +0.079 A 
ATOM      8  S   UNL     1       2.288  -2.261  -6.292  0.00  0.00    -0.068 S 
ATOM      9  C   UNL     1       1.377  -1.669  -5.011  0.00  0.00    +0.087 A 
ATOM     10  C   UNL     1       4.776  -0.758  -3.610  0.00  0.00    +0.046 C 
BRANCH   7  11
ATOM     11  C   UNL     1       5.212  -2.120  -6.339  0.00  0.00    +0.251 C 
ATOM     12  O   UNL     1       6.243  -1.781  -5.787  0.00  0.00    -0.270 OA
ATOM     13  N   UNL     1       5.261  -2.728  -7.541  0.00  0.00    -0.314 N 
ATOM     14  C   UNL     1       6.553  -2.981  -8.182  0.00  0.00    +0.128 C 
ATOM     15  H   UNL     1       4.440  -2.999  -7.981  0.00  0.00    +0.149 HD
ENDBRANCH   7  11
BRANCH   5  16
ATOM     16  C   UNL     1       1.938  -0.537  -2.860  0.00  0.00    +0.342 C 
ATOM     17  O   UNL     1       1.833  -1.216  -1.856  0.00  0.00    -0.245 OA
BRANCH  16  18
ATOM     18  O   UNL     1       1.694   0.788  -2.806  0.00  0.00    -0.461 OA
BRANCH  18  20
ATOM     19  C   UNL     1       1.082   2.833  -1.673  0.00  0.00    +0.048 C 
ATOM     20  C   UNL     1       1.316   1.327  -1.538  0.00  0.00    +0.229 C 
ENDBRANCH  18  20
ENDBRANCH  16  18
ENDBRANCH   5  16
ENDBRANCH   1   9
BRANCH   2  21
ATOM     21  C   UNL     1      -2.270  -2.231  -5.670  0.00  0.00    +0.020 C 
BRANCH  21  22
ATOM     22  N   UNL     1      -2.881  -2.868  -6.845  0.00  0.00    +0.392 N 
ATOM     23  H   UNL     1      -2.569  -2.399  -7.682  0.00  0.00    -0.080 HD
BRANCH  22  24
ATOM     24  C   UNL     1      -2.484  -4.281  -6.898  0.00  0.00    -0.067 C 
ATOM     25  C   UNL     1      -1.416  -4.676  -7.919  0.00  0.00    -0.017 C 
ATOM     26  C   UNL     1      -2.875  -5.078  -8.145  0.00  0.00    -0.017 C 
ENDBRANCH  22  24
BRANCH  22  27
ATOM     27  C   UNL     1      -4.344  -2.773  -6.747  0.00  0.00    -0.038 C 
ATOM     28  C   UNL     1      -4.980  -3.408  -7.986  0.00  0.00    -0.008 C 
BRANCH  27  29
ATOM     29  C   UNL     1      -4.749  -1.324  -6.661  0.00  0.00    -0.043 A 
ATOM     30  C   UNL     1      -3.928  -0.344  -7.185  0.00  0.00    +0.003 A 
ATOM     31  C   UNL     1      -4.299   0.985  -7.106  0.00  0.00    +0.000 A 
ATOM     32  C   UNL     1      -5.493   1.335  -6.503  0.00  0.00    +0.001 A 
ATOM     33  C   UNL     1      -6.315   0.356  -5.978  0.00  0.00    +0.020 A 
ATOM     34  C   UNL     1      -5.947  -0.975  -6.062  0.00  0.00    +0.043 A 
ATOM     35 CL   UNL     1      -6.982  -2.206  -5.409  0.00  0.00    -0.083 Cl
ENDBRANCH  27  29
ENDBRANCH  22  27
ENDBRANCH  21  22
ENDBRANCH   2  21
TORSDOF 10
