REMARK  Name = ZINC09595952
REMARK  8 active torsions:
REMARK  status: ('A' for Active; 'I' for Inactive)
REMARK    1  A    between atoms: C_1  and  C_2
REMARK    2  A    between atoms: C_2  and  C_4
REMARK    3  A    between atoms: C_2  and  N_13
REMARK    4  A    between atoms: N_13  and  C_14
REMARK    5  A    between atoms: C_15  and  C_17
REMARK    6  A    between atoms: C_17  and  N_18
REMARK    7  A    between atoms: C_21  and  C_25
REMARK    8  A    between atoms: C_21  and  C_26
REMARK                            x       y       z     vdW  Elec       q    Type
REMARK                         _______ _______ _______ _____ _____    ______ ____
ROOT
ATOM      1  N   UNL     1       2.082  -4.777  -4.213  0.00  0.00    -0.215 N 
ATOM      2  C   UNL     1       1.545  -4.128  -5.265  0.00  0.00    +0.251 C 
ATOM      3  O   UNL     1       1.625  -2.944  -5.514  0.00  0.00    -0.272 OA
ATOM      4  C   UNL     1       0.821  -5.187  -6.073  0.00  0.00    +0.136 C 
ATOM      5  N   UNL     1       1.056  -6.425  -5.311  0.00  0.00    -0.281 N 
ATOM      6  C   UNL     1       1.805  -6.085  -4.246  0.00  0.00    +0.310 C 
ATOM      7  O   UNL     1       2.184  -6.878  -3.407  0.00  0.00    -0.252 OA
ATOM      8  C   UNL     1      -0.675  -4.877  -6.148  0.00  0.00    +0.047 C 
ATOM      9  H   UNL     1       0.736  -7.313  -5.535  0.00  0.00    +0.152 HD
ENDROOT
BRANCH   4  10
ATOM     10  C   UNL     1       1.409  -5.292  -7.457  0.00  0.00    -0.008 A 
ATOM     11  C   UNL     1       2.002  -6.449  -7.862  0.00  0.00    +0.007 A 
ATOM     12  C   UNL     1       2.552  -6.565  -9.137  0.00  0.00    +0.001 A 
ATOM     13  C   UNL     1       2.510  -5.526 -10.015  0.00  0.00    +0.008 A 
ATOM     14  C   UNL     1       1.906  -4.316  -9.633  0.00  0.00    -0.018 A 
ATOM     15  C   UNL     1       1.343  -4.200  -8.338  0.00  0.00    -0.012 A 
ATOM     16  C   UNL     1       0.743  -2.988  -7.954  0.00  0.00    +0.009 A 
ATOM     17  C   UNL     1       0.702  -1.949  -8.832  0.00  0.00    +0.001 A 
ATOM     18  C   UNL     1       1.251  -2.065 -10.107  0.00  0.00    +0.001 A 
ATOM     19  C   UNL     1       1.844  -3.221 -10.512  0.00  0.00    +0.008 A 
ENDBRANCH   4  10
BRANCH   1  20
ATOM     20  C   UNL     1       2.876  -4.130  -3.166  0.00  0.00    +0.213 C 
BRANCH  20  23
ATOM     21  N   UNL     1       2.479  -3.045  -0.979  0.00  0.00    -0.294 N 
ATOM     22  C   UNL     1       3.922  -2.811  -0.886  0.00  0.00    +0.132 C 
ATOM     23  C   UNL     1       1.966  -3.671  -2.056  0.00  0.00    +0.234 C 
ATOM     24  O   UNL     1       0.771  -3.864  -2.133  0.00  0.00    -0.274 OA
BRANCH  21  26
ATOM     25  C   UNL     1       2.090  -3.161   1.433  0.00  0.00    +0.035 C 
ATOM     26  C   UNL     1       1.594  -2.598   0.100  0.00  0.00    +0.128 C 
BRANCH  26  27
ATOM     27  C   UNL     1       1.595  -1.092   0.159  0.00  0.00    +0.100 A 
ATOM     28  N   UNL     1       0.574  -0.284   0.194  0.00  0.00    -0.242 NA
ATOM     29  C   UNL     1       0.712   1.058   0.248  0.00  0.00    +0.079 A 
ATOM     30  C   UNL     1      -0.287   2.055   0.296  0.00  0.00    +0.029 A 
ATOM     31  C   UNL     1       0.048   3.372   0.343  0.00  0.00    +0.002 A 
ATOM     32  C   UNL     1       1.373   3.787   0.355  0.00  0.00    +0.001 A 
ATOM     33  C   UNL     1       2.380   2.841   0.314  0.00  0.00    +0.017 A 
ATOM     34  C   UNL     1       2.052   1.508   0.262  0.00  0.00    +0.039 A 
ATOM     35  S   UNL     1       2.958  -0.017   0.198  0.00  0.00    -0.070 S 
ENDBRANCH  26  27
ENDBRANCH  21  26
ENDBRANCH  20  23
ENDBRANCH   1  20
TORSDOF 5
