REMARK  Name = ZINC07473849
REMARK  11 active torsions:
REMARK  status: ('A' for Active; 'I' for Inactive)
REMARK    1  A    between atoms: C_1  and  C_2
REMARK    2  A    between atoms: C_2  and  C_3
REMARK    3  A    between atoms: C_3  and  C_4
REMARK    4  A    between atoms: C_4  and  C_5
REMARK    5  A    between atoms: C_5  and  C_7
REMARK    6  A    between atoms: C_5  and  C_9
REMARK    7  A    between atoms: C_7  and  C_8
REMARK    8  A    between atoms: C_9  and  N_10
REMARK    9  A    between atoms: C_11  and  C_13
REMARK   10  A    between atoms: C_13  and  N_14
REMARK   11  A    between atoms: C_22  and  C_24
REMARK                            x       y       z     vdW  Elec       q    Type
REMARK                         _______ _______ _______ _____ _____    ______ ____
ROOT
ATOM      1  N   UNL     1       0.365   5.137   6.862  0.00  0.00    -0.215 N 
ATOM      2  C   UNL     1       0.573   6.446   7.115  0.00  0.00    +0.247 C 
ATOM      3  O   UNL     1       1.148   7.248   6.410  0.00  0.00    -0.273 OA
ATOM      4  C   UNL     1      -0.063   6.703   8.462  0.00  0.00    +0.115 C 
ATOM      5  C   UNL     1      -1.186   7.726   8.339  0.00  0.00    +0.035 C 
ATOM      6  C   UNL     1      -0.608   9.072   7.894  0.00  0.00    +0.003 C 
ATOM      7  C   UNL     1       0.426   9.545   8.918  0.00  0.00    +0.000 C 
ATOM      8  C   UNL     1       1.558   8.520   9.013  0.00  0.00    +0.006 C 
ATOM      9  C   UNL     1       0.989   7.172   9.462  0.00  0.00    +0.018 C 
ATOM     10  C   UNL     1       2.117   6.141   9.537  0.00  0.00    +0.010 C 
ATOM     11  N   UNL     1      -0.600   5.394   8.858  0.00  0.00    -0.285 N 
ATOM     12  C   UNL     1      -0.301   4.542   7.859  0.00  0.00    +0.310 C 
ATOM     13  O   UNL     1      -0.603   3.365   7.862  0.00  0.00    -0.252 OA
ATOM     14  H   UNL     1      -1.076   5.186   9.677  0.00  0.00    +0.151 HD
ENDROOT
BRANCH   1  15
ATOM     15  C   UNL     1       0.818   4.451   5.649  0.00  0.00    +0.213 C 
BRANCH  15  17
ATOM     16  N   UNL     1      -0.062   3.963   3.389  0.00  0.00    -0.314 N 
ATOM     17  C   UNL     1      -0.258   4.529   4.597  0.00  0.00    +0.231 C 
ATOM     18  O   UNL     1      -1.300   5.102   4.836  0.00  0.00    -0.274 OA
ATOM     19  H   UNL     1       0.771   3.506   3.198  0.00  0.00    +0.149 HD
BRANCH  16  20
ATOM     20  C   UNL     1      -1.108   4.039   2.366  0.00  0.00    +0.107 C 
BRANCH  20  21
ATOM     21  C   UNL     1      -0.636   3.323   1.100  0.00  0.00    +0.006 C 
BRANCH  21  22
ATOM     22  C   UNL     1      -0.463   1.831   1.392  0.00  0.00    +0.002 C 
ATOM     23  C   UNL     1      -1.811   1.231   1.796  0.00  0.00    +0.004 C 
ENDBRANCH  21  22
BRANCH  21  24
ATOM     24  C   UNL     1      -1.674   3.509  -0.009  0.00  0.00    +0.005 C 
BRANCH  24  25
ATOM     25  C   UNL     1      -1.142   2.908  -1.311  0.00  0.00    +0.000 C 
BRANCH  25  27
ATOM     26  C   UNL     1      -1.590   2.606  -3.751  0.00  0.00    +0.004 C 
ATOM     27  C   UNL     1      -2.122   3.207  -2.448  0.00  0.00    -0.003 C 
ENDBRANCH  25  27
ENDBRANCH  24  25
ENDBRANCH  21  24
ENDBRANCH  20  21
ENDBRANCH  16  20
ENDBRANCH  15  17
ENDBRANCH   1  15
TORSDOF 8
