REMARK  Name = ZINC51392736
REMARK  6 active torsions:
REMARK  status: ('A' for Active; 'I' for Inactive)
REMARK    1  A    between atoms: C_1  and  N_2
REMARK    2  A    between atoms: C_6  and  C_13
REMARK    3  A    between atoms: N_9  and  C_12
REMARK    4  A    between atoms: C_13  and  C_15
REMARK    5  A    between atoms: C_13  and  O_22
REMARK    6  A    between atoms: C_15  and  C_16
REMARK                            x       y       z     vdW  Elec       q    Type
REMARK                         _______ _______ _______ _____ _____    ______ ____
ROOT
ATOM      1  C   UNL     1      -0.018   1.461   0.010  0.00  0.00    +0.154 C 
ATOM      2  N   UNL     1       0.002  -0.004   0.002  0.00  0.00    -0.295 N 
ATOM      3  C   UNL     1      -1.116  -0.835   0.003  0.00  0.00    +0.070 A 
ATOM      4  C   UNL     1      -2.481  -0.592   0.010  0.00  0.00    +0.028 A 
ATOM      5  C   UNL     1      -3.368  -1.651   0.009  0.00  0.00    +0.008 A 
ATOM      6  C   UNL     1      -2.899  -2.954  -0.000  0.00  0.00    -0.017 A 
ATOM      7  C   UNL     1      -1.541  -3.205  -0.007  0.00  0.00    +0.034 A 
ATOM      8  C   UNL     1      -0.643  -2.148  -0.007  0.00  0.00    +0.070 A 
ATOM      9  N   UNL     1       0.748  -2.075  -0.013  0.00  0.00    -0.295 N 
ATOM     10  C   UNL     1       1.104  -0.777  -0.013  0.00  0.00    +0.330 A 
ATOM     11  O   UNL     1       2.249  -0.365  -0.022  0.00  0.00    -0.246 OA
ATOM     12  C   UNL     1       1.666  -3.217  -0.023  0.00  0.00    +0.154 C 
ENDROOT
BRANCH   6  13
ATOM     13  C   UNL     1      -3.874  -4.102  -0.001  0.00  0.00    +0.145 C 
BRANCH  13  14
ATOM     14  O   UNL     1      -5.020  -3.755   0.778  0.00  0.00    -0.387 OA
ATOM     15  H   UNL     1      -5.495  -2.977   0.455  0.00  0.00    +0.210 HD
ENDBRANCH  13  14
BRANCH  13  16
ATOM     16  C   UNL     1      -4.307  -4.402  -1.438  0.00  0.00    +0.039 C 
BRANCH  16  17
ATOM     17  C   UNL     1      -5.199  -5.645  -1.453  0.00  0.00    -0.008 C 
ATOM     18  C   UNL     1      -4.384  -6.863  -1.013  0.00  0.00    +0.003 C 
ATOM     19  C   UNL     1      -5.276  -8.106  -1.028  0.00  0.00    +0.000 C 
ATOM     20  C   UNL     1      -5.810  -8.334  -2.443  0.00  0.00    +0.000 C 
ATOM     21  C   UNL     1      -6.625  -7.116  -2.883  0.00  0.00    +0.000 C 
ATOM     22  C   UNL     1      -5.733  -5.873  -2.869  0.00  0.00    +0.003 C 
ENDBRANCH  16  17
ENDBRANCH  13  16
ENDBRANCH   6  13
TORSDOF 4
