REMARK  Name = ZINC63339824
REMARK  1 active torsions:
REMARK  status: ('A' for Active; 'I' for Inactive)
REMARK    1  A    between atoms: C_1  and  C_2
REMARK                            x       y       z     vdW  Elec       q    Type
REMARK                         _______ _______ _______ _____ _____    ______ ____
ROOT
ATOM      1  C   UNL     1      -0.019   1.526   0.010  0.00  0.00    +0.024 C 
ATOM      2  C   UNL     1       0.002  -0.004   0.002  0.00  0.00    +0.052 C 
ATOM      3  C   UNL     1      -1.419  -0.487  -0.075  0.00  0.00    +0.023 C 
ATOM      4  C   UNL     1      -1.380  -2.017  -0.281  0.00  0.00    +0.035 C 
ATOM      5  C   UNL     1      -0.681  -2.624   0.884  0.00  0.00    -0.036 C 
ATOM      6  C   UNL     1      -1.335  -3.057   1.994  0.00  0.00    -0.001 A 
ATOM      7  C   UNL     1      -2.774  -3.201   2.254  0.00  0.00    +0.010 A 
ATOM      8  C   UNL     1      -3.113  -3.638   3.497  0.00  0.00    +0.001 A 
ATOM      9  C   UNL     1      -2.173  -3.943   4.487  0.00  0.00    +0.002 A 
ATOM     10  C   UNL     1      -0.828  -3.846   4.326  0.00  0.00    +0.026 A 
ATOM     11  C   UNL     1      -0.352  -3.402   3.058  0.00  0.00    +0.043 A 
ATOM     12  N   UNL     1       0.862  -3.232   2.621  0.00  0.00    -0.375 N 
ATOM     13  C   UNL     1       0.759  -2.863   1.221  0.00  0.00    +0.140 C 
ATOM     14  C   UNL     1       1.581  -1.626   0.824  0.00  0.00    +0.148 C 
ATOM     15  N   UNL     1       0.779  -0.447   1.139  0.00  0.00    -0.295 NA
ATOM     16  C   UNL     1       2.898  -1.609   1.527  0.00  0.00    +0.005 A 
ATOM     17  C   UNL     1       3.224  -1.585   2.866  0.00  0.00    +0.008 A 
ATOM     18  C   UNL     1       4.577  -1.572   3.185  0.00  0.00    +0.000 A 
ATOM     19  C   UNL     1       5.547  -1.582   2.203  0.00  0.00    +0.002 A 
ATOM     20  C   UNL     1       5.228  -1.609   0.855  0.00  0.00    +0.023 A 
ATOM     21  C   UNL     1       3.873  -1.625   0.520  0.00  0.00    +0.039 A 
ATOM     22  N   UNL     1       3.276  -1.661  -0.728  0.00  0.00    -0.283 N 
ATOM     23  C   UNL     1       1.927  -1.672  -0.644  0.00  0.00    +0.244 C 
ATOM     24  O   UNL     1       1.146  -1.712  -1.571  0.00  0.00    -0.273 OA
ATOM     25  H   UNL     1       1.357   0.299   1.495  0.00  0.00    +0.124 HD
ATOM     26  H   UNL     1       3.767  -1.676  -1.564  0.00  0.00    +0.155 HD
ATOM     27  H   UNL     1       1.680  -3.333   3.133  0.00  0.00    +0.160 HD
ENDROOT
TORSDOF 0
