REMARK  Name = ZINC24836180
REMARK  6 active torsions:
REMARK  status: ('A' for Active; 'I' for Inactive)
REMARK    1  A    between atoms: C_1  and  C_2
REMARK    2  A    between atoms: C_5  and  C_7
REMARK    3  A    between atoms: C_16  and  C_18
REMARK    4  A    between atoms: C_18  and  S_19
REMARK    5  A    between atoms: S_19  and  C_20
REMARK    6  A    between atoms: N_24  and  C_29
REMARK                            x       y       z     vdW  Elec       q    Type
REMARK                         _______ _______ _______ _____ _____    ______ ____
ROOT
ATOM      1  C   UNL     1       1.040  -4.033  -0.026  0.00  0.00    +0.010 A 
ATOM      2  C   UNL     1       0.587  -4.954   0.861  0.00  0.00    +0.057 A 
ATOM      3  S   UNL     1       1.512  -6.420   0.444  0.00  0.00    -0.076 S 
ATOM      4  C   UNL     1       2.475  -5.771  -0.897  0.00  0.00    +0.116 A 
ATOM      5  C   UNL     1       2.055  -4.435  -0.995  0.00  0.00    +0.080 A 
ATOM      6  C   UNL     1       2.682  -3.661  -2.022  0.00  0.00    +0.260 A 
ATOM      7  O   UNL     1       2.385  -2.489  -2.182  0.00  0.00    -0.267 OA
ATOM      8  N   UNL     1       3.603  -4.246  -2.809  0.00  0.00    -0.310 N 
ATOM      9  H   UNL     1       4.032  -3.727  -3.507  0.00  0.00    +0.170 HD
ATOM     10  C   UNL     1       3.946  -5.550  -2.644  0.00  0.00    +0.121 A 
ATOM     11  N   UNL     1       3.398  -6.279  -1.710  0.00  0.00    -0.226 NA
ENDROOT
BRANCH   1  16
ATOM     12  C   UNL     1      -0.018   1.503   0.010  0.00  0.00    +0.051 C 
ATOM     13  C   UNL     1       0.002  -0.004   0.002  0.00  0.00    -0.013 A 
ATOM     14  C   UNL     1      -1.042  -0.871   0.002  0.00  0.00    +0.011 A 
ATOM     15  C   UNL     1      -0.789  -2.227  -0.007  0.00  0.00    +0.016 A 
ATOM     16  C   UNL     1       0.512  -2.653  -0.016  0.00  0.00    +0.021 A 
ATOM     17  S   UNL     1       1.406  -1.107  -0.018  0.00  0.00    -0.093 S 
ENDBRANCH   1  16
BRANCH  10  18
ATOM     18  C   UNL     1       4.984  -6.163  -3.549  0.00  0.00    +0.150 C 
BRANCH  18  19
ATOM     19  S   UNL     1       5.232  -7.901  -3.094  0.00  0.00    -0.097 S 
BRANCH  19  20
ATOM     20  C   UNL     1       6.456  -8.468  -4.227  0.00  0.00    +0.111 A 
ATOM     21  C   UNL     1       6.914  -9.800  -4.189  0.00  0.00    +0.071 A 
ATOM     22  C   UNL     1       6.620 -10.928  -3.394  0.00  0.00    +0.147 A 
ATOM     23  N   UNL     1       7.353 -11.925  -3.802  0.00  0.00    -0.172 NA
ATOM     24  N   UNL     1       8.158 -11.512  -4.871  0.00  0.00    -0.214 N 
ATOM     25  C   UNL     1       7.894 -10.195  -5.120  0.00  0.00    +0.167 A 
ATOM     26  N   UNL     1       8.347  -9.300  -5.995  0.00  0.00    -0.216 NA
ATOM     27  C   UNL     1       7.889  -8.067  -5.993  0.00  0.00    +0.224 A 
ATOM     28  N   UNL     1       6.967  -7.651  -5.143  0.00  0.00    -0.228 NA
BRANCH  24  29
ATOM     29  C   UNL     1       9.075 -12.311  -5.565  0.00  0.00    +0.068 A 
ATOM     30  C   UNL     1       9.272 -12.123  -6.926  0.00  0.00    +0.028 A 
ATOM     31  C   UNL     1      10.178 -12.912  -7.608  0.00  0.00    +0.002 A 
ATOM     32  C   UNL     1      10.887 -13.890  -6.936  0.00  0.00    +0.000 A 
ATOM     33  C   UNL     1      10.693 -14.081  -5.580  0.00  0.00    +0.002 A 
ATOM     34  C   UNL     1       9.794 -13.290  -4.891  0.00  0.00    +0.028 A 
ENDBRANCH  24  29
ENDBRANCH  19  20
ENDBRANCH  18  19
ENDBRANCH  10  18
TORSDOF 5
