REMARK  Name = ZINC28470717
REMARK  10 active torsions:
REMARK  status: ('A' for Active; 'I' for Inactive)
REMARK    1  A    between atoms: C_1  and  C_2
REMARK    2  A    between atoms: C_2  and  O_3
REMARK    3  A    between atoms: O_3  and  C_4
REMARK    4  A    between atoms: C_4  and  C_6
REMARK    5  A    between atoms: C_7  and  C_32
REMARK    6  A    between atoms: C_8  and  C_31
REMARK    7  A    between atoms: C_10  and  N_11
REMARK    8  A    between atoms: C_12  and  C_14
REMARK    9  A    between atoms: C_15  and  C_30
REMARK   10  A    between atoms: C_20  and  C_22
REMARK                            x       y       z     vdW  Elec       q    Type
REMARK                         _______ _______ _______ _____ _____    ______ ____
ROOT
ATOM      1  C   UNL     1      -0.463   5.759   1.337  0.00  0.00    +0.056 C 
ATOM      2  C   UNL     1      -1.321   4.992   0.630  0.00  0.00    +0.017 C 
ATOM      3  N   UNL     1      -2.027   5.509  -0.419  0.00  0.00    -0.300 N 
ATOM      4  C   UNL     1      -1.932   6.782  -0.823  0.00  0.00    +0.135 C 
ATOM      5  S   UNL     1      -2.876   7.300  -2.154  0.00  0.00    -0.019 S 
ATOM      6  N   UNL     1      -1.118   7.668  -0.216  0.00  0.00    -0.315 N 
ATOM      7  C   UNL     1      -0.311   7.210   0.927  0.00  0.00    +0.145 C 
ATOM      8  C   UNL     1      -1.501   3.544   1.003  0.00  0.00    +0.061 C 
ATOM      9  H   UNL     1      -2.721   4.868  -0.983  0.00  0.00    +0.154 HD
ATOM     10  H   UNL     1      -1.048   8.712  -0.556  0.00  0.00    +0.149 HD
ENDROOT
BRANCH   7  11
ATOM     11  C   UNL     1       1.139   7.451   0.598  0.00  0.00    +0.048 A 
ATOM     12  C   UNL     1       1.941   8.156   1.479  0.00  0.00    +0.131 A 
ATOM     13  C   UNL     1       3.274   8.376   1.176  0.00  0.00    +0.039 A 
ATOM     14  C   UNL     1       3.804   7.893  -0.005  0.00  0.00    +0.006 A 
ATOM     15  C   UNL     1       3.003   7.194  -0.888  0.00  0.00    +0.039 A 
ATOM     16  C   UNL     1       1.671   6.967  -0.585  0.00  0.00    +0.131 A 
ATOM     17  F   UNL     1       0.889   6.279  -1.445  0.00  0.00    -0.205 F 
ATOM     18  F   UNL     1       1.424   8.628   2.634  0.00  0.00    -0.205 F 
ENDBRANCH   7  11
BRANCH   1  20
ATOM     19  N   UNL     1       1.383   4.500   2.195  0.00  0.00    -0.275 N 
ATOM     20  C   UNL     1       0.270   5.225   2.424  0.00  0.00    +0.248 C 
ATOM     21  O   UNL     1      -0.105   5.420   3.566  0.00  0.00    -0.270 OA
ATOM     22  H   UNL     1       1.764   4.385   1.169  0.00  0.00    +0.156 HD
BRANCH  19  27
ATOM     23  C   UNL     1       3.139   3.037   3.207  0.00  0.00    +0.091 A 
ATOM     24  C   UNL     1       3.636   2.556   4.475  0.00  0.00    -0.025 A 
ATOM     25  C   UNL     1       2.998   2.972   5.583  0.00  0.00    -0.008 A 
ATOM     26  S   UNL     1       1.714   4.029   4.945  0.00  0.00    -0.078 S 
ATOM     27  C   UNL     1       2.047   3.898   3.251  0.00  0.00    +0.087 A 
ATOM     28  C   UNL     1       3.296   2.627   7.019  0.00  0.00    +0.052 C 
ATOM     29  C   UNL     1       4.817   1.623   4.553  0.00  0.00    +0.045 C 
BRANCH  23  30
ATOM     30  C   UNL     1       3.755   2.641   1.940  0.00  0.00    +0.342 C 
ATOM     31  O   UNL     1       4.720   3.250   1.517  0.00  0.00    -0.245 OA
BRANCH  30  32
ATOM     32  O   UNL     1       3.254   1.602   1.242  0.00  0.00    -0.461 OA
BRANCH  32  34
ATOM     33  C   UNL     1       3.207   0.088  -0.665  0.00  0.00    +0.048 C 
ATOM     34  C   UNL     1       3.983   1.192   0.055  0.00  0.00    +0.229 C 
ENDBRANCH  32  34
ENDBRANCH  30  32
ENDBRANCH  23  30
ENDBRANCH  19  27
ENDBRANCH   1  20
TORSDOF 6
