REMARK  Name = ZINC21891695
REMARK  7 active torsions:
REMARK  status: ('A' for Active; 'I' for Inactive)
REMARK    1  A    between atoms: C_1  and  C_2
REMARK    2  A    between atoms: C_4  and  C_35
REMARK    3  A    between atoms: C_6  and  N_8
REMARK    4  A    between atoms: C_24  and  C_26
REMARK    5  A    between atoms: C_29  and  N_32
REMARK    6  A    between atoms: N_32  and  C_33
REMARK    7  A    between atoms: N_32  and  C_34
REMARK                            x       y       z     vdW  Elec       q    Type
REMARK                         _______ _______ _______ _____ _____    ______ ____
ROOT
ATOM      1  N   UNL     1       4.484   1.636  -3.089  0.00  0.00    -0.269 N 
ATOM      2  C   UNL     1       3.480   1.210  -2.297  0.00  0.00    +0.308 C 
ATOM      3  O   UNL     1       2.758   0.303  -2.665  0.00  0.00    -0.252 OA
ATOM      4  N   UNL     1       3.276   1.789  -1.097  0.00  0.00    -0.268 N 
ATOM      5  C   UNL     1       4.136   2.891  -0.616  0.00  0.00    +0.147 C 
ATOM      6  C   UNL     1       3.336   3.970   0.059  0.00  0.00    -0.006 A 
ATOM      7  C   UNL     1       3.139   5.191  -0.551  0.00  0.00    +0.007 A 
ATOM      8  C   UNL     1       2.503   6.211   0.134  0.00  0.00    +0.000 A 
ATOM      9  C   UNL     1       2.060   6.010   1.429  0.00  0.00    +0.002 A 
ATOM     10  C   UNL     1       2.231   4.780   2.036  0.00  0.00    +0.026 A 
ATOM     11  C   UNL     1       2.850   3.753   1.345  0.00  0.00    +0.051 A 
ATOM     12  N   UNL     1       2.991   2.477   1.910  0.00  0.00    -0.318 N 
ATOM     13  C   UNL     1       3.416   2.132   3.152  0.00  0.00    +0.091 A 
ATOM     14  C   UNL     1       3.383   0.784   3.245  0.00  0.00    +0.020 A 
ATOM     15  C   UNL     1       2.918   0.283   2.010  0.00  0.00    +0.025 A 
ATOM     16  C   UNL     1       2.687   1.338   1.212  0.00  0.00    +0.049 A 
ATOM     17  C   UNL     1       2.185   1.343  -0.208  0.00  0.00    +0.155 C 
ATOM     18  H   UNL     1       5.184   2.402  -2.725  0.00  0.00    +0.156 HD
ENDROOT
BRANCH   1  24
ATOM     19  C   UNL     1       5.691   2.260  -7.814  0.00  0.00    +0.044 C 
ATOM     20  C   UNL     1       5.220   1.383  -6.683  0.00  0.00    -0.048 A 
ATOM     21  C   UNL     1       4.936   0.049  -6.914  0.00  0.00    +0.006 A 
ATOM     22  C   UNL     1       4.503  -0.759  -5.879  0.00  0.00    -0.048 A 
ATOM     23  C   UNL     1       4.353  -0.236  -4.610  0.00  0.00    +0.026 A 
ATOM     24  C   UNL     1       4.637   1.103  -4.374  0.00  0.00    +0.035 A 
ATOM     25  C   UNL     1       5.066   1.913  -5.417  0.00  0.00    +0.026 A 
ATOM     26  C   UNL     1       4.196  -2.212  -6.136  0.00  0.00    +0.044 C 
ENDBRANCH   1  24
BRANCH  17  27
ATOM     27  C   UNL     1       1.017   2.289  -0.328  0.00  0.00    -0.021 A 
ATOM     28  C   UNL     1       0.174   2.484   0.750  0.00  0.00    +0.007 A 
ATOM     29  C   UNL     1      -0.900   3.345   0.642  0.00  0.00    +0.023 A 
ATOM     30  C   UNL     1      -1.126   4.025  -0.549  0.00  0.00    +0.029 A 
ATOM     31  C   UNL     1      -0.277   3.826  -1.630  0.00  0.00    +0.023 A 
ATOM     32  C   UNL     1       0.792   2.959  -1.517  0.00  0.00    +0.007 A 
BRANCH  30  33
ATOM     33  N   UNL     1      -2.208   4.901  -0.660  0.00  0.00    -0.336 N 
ATOM     34  C   UNL     1      -2.377   5.706  -1.872  0.00  0.00    +0.129 C 
ATOM     35  C   UNL     1      -3.174   5.015   0.436  0.00  0.00    +0.129 C 
ENDBRANCH  30  33
ENDBRANCH  17  27
TORSDOF 3
