REMARK  Name = ZINC39652683
REMARK  11 active torsions:
REMARK  status: ('A' for Active; 'I' for Inactive)
REMARK    1  A    between atoms: C_1  and  C_2
REMARK    2  A    between atoms: C_2  and  O_3
REMARK    3  A    between atoms: O_3  and  C_4
REMARK    4  A    between atoms: C_9  and  C_10
REMARK    5  A    between atoms: C_10  and  C_11
REMARK    6  A    between atoms: C_11  and  N_12
REMARK    7  A    between atoms: C_13  and  C_15
REMARK    8  A    between atoms: C_26  and  C_28
REMARK    9  A    between atoms: C_28  and  C_30
REMARK   10  A    between atoms: C_28  and  O_31
REMARK   11  A    between atoms: O_31  and  C_32
REMARK                            x       y       z     vdW  Elec       q    Type
REMARK                         _______ _______ _______ _____ _____    ______ ____
ROOT
ATOM      1  C   UNL     1       4.667   0.764  -4.291  0.00  0.00    +0.100 C 
ATOM      2  C   UNL     1       3.983   2.149  -4.260  0.00  0.00    +0.121 C 
ATOM      3  N   UNL     1       5.042   3.078  -3.798  0.00  0.00    -0.297 N 
ATOM      4  C   UNL     1       6.271   2.604  -4.478  0.00  0.00    +0.115 C 
ATOM      5  C   UNL     1       6.167   1.067  -4.439  0.00  0.00    -0.004 C 
ATOM      6  C   UNL     1       6.702   0.468  -5.736  0.00  0.00    -0.010 C 
ATOM      7  C   UNL     1       8.208   0.731  -5.832  0.00  0.00    -0.082 C 
ATOM      8  N   UNL     1       8.886   0.132  -4.676  0.00  0.00    +0.379 N 
ATOM      9  C   UNL     1       8.433   0.779  -3.439  0.00  0.00    -0.082 C 
ATOM     10  C   UNL     1       6.937   0.518  -3.242  0.00  0.00    -0.010 C 
ATOM     11  C   UNL     1       4.916   4.119  -2.951  0.00  0.00    +0.256 C 
ATOM     12  O   UNL     1       5.861   4.850  -2.743  0.00  0.00    -0.272 OA
ATOM     13  H   UNL     1       8.673  -0.853  -4.636  0.00  0.00    -0.086 HD
ATOM     14  H   UNL     1       9.883   0.254  -4.772  0.00  0.00    -0.086 HD
ENDROOT
BRANCH   1  16
ATOM     15  N   UNL     1       4.382  -1.327  -3.001  0.00  0.00    -0.315 N 
ATOM     16  C   UNL     1       4.405   0.021  -3.007  0.00  0.00    +0.218 C 
ATOM     17  O   UNL     1       4.216   0.635  -1.978  0.00  0.00    -0.275 OA
ATOM     18  H   UNL     1       4.604  -1.819  -3.806  0.00  0.00    +0.149 HD
BRANCH  15  19
ATOM     19  C   UNL     1       4.020  -2.048  -1.778  0.00  0.00    +0.109 C 
BRANCH  19  20
ATOM     20  C   UNL     1       4.181  -3.552  -2.006  0.00  0.00    +0.057 C 
BRANCH  20  26
ATOM     21  C   UNL     1       2.356  -4.580  -0.629  0.00  0.00    +0.124 A 
ATOM     22  C   UNL     1       1.921  -5.273   0.492  0.00  0.00    +0.046 A 
ATOM     23  C   UNL     1       2.831  -5.676   1.450  0.00  0.00    +0.004 A 
ATOM     24  C   UNL     1       4.175  -5.390   1.292  0.00  0.00    +0.000 A 
ATOM     25  C   UNL     1       4.611  -4.700   0.176  0.00  0.00    +0.007 A 
ATOM     26  C   UNL     1       3.705  -4.299  -0.787  0.00  0.00    -0.004 A 
BRANCH  21  27
ATOM     27  O   UNL     1       1.462  -4.183  -1.573  0.00  0.00    -0.492 OA
BRANCH  27  29
ATOM     28  C   UNL     1      -0.766  -3.922  -2.471  0.00  0.00    +0.048 C 
ATOM     29  C   UNL     1       0.079  -4.410  -1.293  0.00  0.00    +0.225 C 
ENDBRANCH  27  29
ENDBRANCH  21  27
ENDBRANCH  20  26
ENDBRANCH  19  20
ENDBRANCH  15  19
ENDBRANCH   1  16
BRANCH  11  30
ATOM     30  C   UNL     1       3.600   4.375  -2.262  0.00  0.00    +0.256 C 
ATOM     31  C   UNL     1       2.570   4.849  -3.290  0.00  0.00    +0.062 C 
BRANCH  30  32
ATOM     32  O   UNL     1       3.773   5.381  -1.262  0.00  0.00    -0.480 OA
BRANCH  32  33
ATOM     33  C   UNL     1       4.139   4.962  -0.023  0.00  0.00    +0.122 A 
ATOM     34  C   UNL     1       4.448   3.627   0.197  0.00  0.00    +0.045 A 
ATOM     35  C   UNL     1       4.821   3.204   1.458  0.00  0.00    +0.004 A 
ATOM     36  C   UNL     1       4.885   4.109   2.501  0.00  0.00    +0.000 A 
ATOM     37  C   UNL     1       4.578   5.440   2.285  0.00  0.00    +0.004 A 
ATOM     38  C   UNL     1       4.210   5.869   1.025  0.00  0.00    +0.045 A 
ENDBRANCH  32  33
ENDBRANCH  30  32
ENDBRANCH  11  30
TORSDOF 9
