REMARK  Name = ZINC21605861
REMARK  6 active torsions:
REMARK  status: ('A' for Active; 'I' for Inactive)
REMARK    1  A    between atoms: C_1  and  C_2
REMARK    2  A    between atoms: C_2  and  C_30
REMARK    3  A    between atoms: C_13  and  C_15
REMARK    4  A    between atoms: C_15  and  S_16
REMARK    5  A    between atoms: S_16  and  C_17
REMARK    6  A    between atoms: C_20  and  C_23
REMARK                            x       y       z     vdW  Elec       q    Type
REMARK                         _______ _______ _______ _____ _____    ______ ____
ROOT
ATOM      1  C   UNL     1       4.997   1.094  -0.171  0.00  0.00    +0.042 C 
ATOM      2  C   UNL     1       3.762   1.966  -0.404  0.00  0.00    +0.113 C 
ATOM      3  C   UNL     1       4.020   3.357   0.118  0.00  0.00    +0.241 C 
ATOM      4  O   UNL     1       5.147   3.805   0.095  0.00  0.00    -0.273 OA
ATOM      5  N   UNL     1       3.016   4.107   0.610  0.00  0.00    -0.282 N 
ATOM      6  C   UNL     1       1.716   3.595   0.693  0.00  0.00    +0.055 A 
ATOM      7  C   UNL     1       0.637   4.434   0.921  0.00  0.00    +0.025 A 
ATOM      8  C   UNL     1      -0.638   3.908   1.007  0.00  0.00    +0.002 A 
ATOM      9  C   UNL     1      -0.844   2.548   0.862  0.00  0.00    +0.002 A 
ATOM     10  C   UNL     1       0.227   1.702   0.638  0.00  0.00    +0.025 A 
ATOM     11  C   UNL     1       1.506   2.223   0.549  0.00  0.00    +0.059 A 
ATOM     12  N   UNL     1       2.612   1.392   0.311  0.00  0.00    -0.255 N 
ATOM     13  C   UNL     1       2.621   0.110   0.726  0.00  0.00    +0.231 C 
ATOM     14  O   UNL     1       3.536  -0.622   0.413  0.00  0.00    -0.274 OA
ATOM     15  C   UNL     1       3.454   2.029  -1.901  0.00  0.00    +0.042 C 
ATOM     16  H   UNL     1       3.212   5.134   0.951  0.00  0.00    +0.155 HD
ENDROOT
BRANCH  13  17
ATOM     17  C   UNL     1       1.493  -0.415   1.576  0.00  0.00    +0.173 C 
BRANCH  17  18
ATOM     18  S   UNL     1       2.040  -1.899   2.455  0.00  0.00    -0.077 S 
BRANCH  18  19
ATOM     19  C   UNL     1       0.570  -2.288   3.345  0.00  0.00    +0.185 A 
ATOM     20  N   UNL     1       0.391  -3.343   4.194  0.00  0.00    -0.201 NA
ATOM     21  H   UNL     1      -0.828  -0.711   2.752  0.00  0.00    +0.191 HD
ATOM     22  C   UNL     1      -0.902  -3.237   4.651  0.00  0.00    +0.182 A 
ATOM     23  N   UNL     1      -1.425  -2.174   4.085  0.00  0.00    -0.152 NA
ATOM     24  N   UNL     1      -0.560  -1.617   3.314  0.00  0.00    -0.253 N 
BRANCH  22  25
ATOM     25  C   UNL     1      -1.576  -4.149   5.599  0.00  0.00    +0.021 A 
ATOM     26  C   UNL     1      -0.890  -5.243   6.127  0.00  0.00    +0.013 A 
ATOM     27  C   UNL     1      -1.523  -6.088   7.015  0.00  0.00    +0.021 A 
ATOM     28  C   UNL     1      -2.840  -5.857   7.376  0.00  0.00    +0.041 A 
ATOM     29  C   UNL     1      -3.527  -4.776   6.852  0.00  0.00    +0.021 A 
ATOM     30  C   UNL     1      -2.904  -3.921   5.966  0.00  0.00    +0.013 A 
ATOM     31 CL   UNL     1      -3.631  -6.928   8.489  0.00  0.00    -0.084 Cl
ENDBRANCH  22  25
ENDBRANCH  18  19
ENDBRANCH  17  18
ENDBRANCH  13  17
TORSDOF 4
