REMARK  Name = ZINC64623220
REMARK  8 active torsions:
REMARK  status: ('A' for Active; 'I' for Inactive)
REMARK    1  A    between atoms: C_1  and  C_2
REMARK    2  A    between atoms: C_5  and  C_8
REMARK    3  A    between atoms: C_15  and  O_20
REMARK    4  A    between atoms: O_20  and  C_21
REMARK    5  A    between atoms: N_27  and  C_28
REMARK    6  A    between atoms: C_33  and  C_34
REMARK    7  A    between atoms: C_34  and  O_36
REMARK    8  A    between atoms: O_36  and  C_37
REMARK                            x       y       z     vdW  Elec       q    Type
REMARK                         _______ _______ _______ _____ _____    ______ ____
ROOT
ATOM      1  C   UNL     1       0.054  -4.291  -0.011  0.00  0.00    +0.134 C 
ATOM      2  C   UNL     1      -1.336  -4.793   0.392  0.00  0.00    +0.131 C 
ATOM      3  C   UNL     1      -1.195  -6.283   0.679  0.00  0.00    -0.035 C 
ATOM      4  C   UNL     1      -2.069  -6.901  -0.106  0.00  0.00    +0.003 A 
ATOM      5  C   UNL     1      -2.444  -8.317  -0.234  0.00  0.00    +0.055 A 
ATOM      6  C   UNL     1      -3.390  -8.616  -1.167  0.00  0.00    +0.121 A 
ATOM      7  C   UNL     1      -4.008  -7.663  -1.990  0.00  0.00    +0.047 A 
ATOM      8  C   UNL     1      -3.741  -6.333  -1.953  0.00  0.00    +0.029 A 
ATOM      9  C   UNL     1      -2.736  -5.885  -0.979  0.00  0.00    +0.043 A 
ATOM     10  N   UNL     1      -2.298  -4.671  -0.705  0.00  0.00    -0.375 N 
ATOM     11  C   UNL     1      -0.163  -6.830   1.635  0.00  0.00    +0.052 C 
ATOM     12  C   UNL     1       1.188  -6.214   1.227  0.00  0.00    +0.114 C 
ATOM     13  N   UNL     1       1.018  -4.777   0.990  0.00  0.00    -0.276 N 
ATOM     14  C   UNL     1       1.750  -3.893   1.695  0.00  0.00    +0.307 C 
ATOM     15  O   UNL     1       1.538  -2.701   1.583  0.00  0.00    -0.252 OA
ATOM     16  N   UNL     1       2.718  -4.330   2.525  0.00  0.00    -0.269 N 
ATOM     17  H   UNL     1       2.946  -5.272   2.552  0.00  0.00    +0.156 HD
ATOM     18  H   UNL     1      -2.555  -3.845  -1.145  0.00  0.00    +0.160 HD
ENDROOT
BRANCH   1  23
ATOM     19  C   UNL     1       0.095   1.486  -0.116  0.00  0.00    +0.044 C 
ATOM     20  C   UNL     1       0.084  -0.020  -0.089  0.00  0.00    -0.050 A 
ATOM     21  C   UNL     1      -0.840  -0.691   0.691  0.00  0.00    +0.004 A 
ATOM     22  C   UNL     1      -0.850  -2.073   0.716  0.00  0.00    +0.006 A 
ATOM     23  C   UNL     1       0.064  -2.784  -0.039  0.00  0.00    -0.025 A 
ATOM     24  C   UNL     1       0.988  -2.114  -0.819  0.00  0.00    +0.006 A 
ATOM     25  C   UNL     1       0.995  -0.732  -0.847  0.00  0.00    +0.004 A 
ENDBRANCH   1  23
BRANCH  16  26
ATOM     26  C   UNL     1       3.392  -3.428   3.345  0.00  0.00    +0.049 A 
ATOM     27  C   UNL     1       2.783  -2.237   3.721  0.00  0.00    +0.024 A 
ATOM     28  C   UNL     1       3.453  -1.345   4.533  0.00  0.00    +0.002 A 
ATOM     29  C   UNL     1       4.734  -1.628   4.980  0.00  0.00    +0.001 A 
ATOM     30  C   UNL     1       5.354  -2.803   4.618  0.00  0.00    +0.017 A 
ATOM     31  C   UNL     1       4.686  -3.720   3.800  0.00  0.00    +0.080 A 
BRANCH  31  32
ATOM     32  C   UNL     1       5.341  -4.982   3.414  0.00  0.00    +0.341 C 
ATOM     33  O   UNL     1       4.800  -5.730   2.623  0.00  0.00    -0.245 OA
BRANCH  32  34
ATOM     34  O   UNL     1       6.539  -5.308   3.938  0.00  0.00    -0.464 OA
ATOM     35  C   UNL     1       7.115  -6.547   3.519  0.00  0.00    +0.280 C 
ENDBRANCH  32  34
ENDBRANCH  31  32
ENDBRANCH  16  26
BRANCH   6  36
ATOM     36  O   UNL     1      -3.758  -9.917  -1.309  0.00  0.00    -0.495 OA
ATOM     37  C   UNL     1      -4.752 -10.206  -2.294  0.00  0.00    +0.277 C 
ENDBRANCH   6  36
TORSDOF 5
