REMARK  Name = ZINC08892809
REMARK  10 active torsions:
REMARK  status: ('A' for Active; 'I' for Inactive)
REMARK    1  A    between atoms: C_1  and  N_54
REMARK    2  A    between atoms: C_2  and  N_54
REMARK    3  A    between atoms: C_3  and  C_4
REMARK    4  A    between atoms: C_3  and  N_54
REMARK    5  A    between atoms: C_4  and  C_5
REMARK    6  A    between atoms: C_5  and  N_6
REMARK    7  A    between atoms: C_7  and  C_25
REMARK    8  A    between atoms: C_9  and  C_14
REMARK    9  A    between atoms: C_10  and  O_13
REMARK   10  A    between atoms: C_14  and  C_16
REMARK                            x       y       z     vdW  Elec       q    Type
REMARK                         _______ _______ _______ _____ _____    ______ ____
ROOT
ATOM      1  N   UNL     1      -3.987  -0.383  -2.748  0.00  0.00    -0.284 N 
ATOM      2  C   UNL     1      -4.750   0.811  -3.132  0.00  0.00    +0.145 C 
ATOM      3  C   UNL     1      -5.069   0.652  -4.600  0.00  0.00    +0.074 C 
ATOM      4  C   UNL     1      -4.537  -0.529  -4.989  0.00  0.00    +0.188 C 
ATOM      5  C   UNL     1      -3.868  -1.165  -3.836  0.00  0.00    +0.282 C 
ATOM      6  O   UNL     1      -3.295  -2.236  -3.866  0.00  0.00    -0.267 OA
ENDROOT
BRANCH   2   7
ATOM      7  C   UNL     1      -3.918   2.049  -2.916  0.00  0.00    -0.021 A 
ATOM      8  C   UNL     1      -4.452   3.133  -2.245  0.00  0.00    +0.006 A 
ATOM      9  C   UNL     1      -3.689   4.268  -2.046  0.00  0.00    +0.001 A 
ATOM     10  C   UNL     1      -2.391   4.320  -2.518  0.00  0.00    +0.015 A 
ATOM     11  C   UNL     1      -1.856   3.236  -3.190  0.00  0.00    +0.018 A 
ATOM     12  C   UNL     1      -2.618   2.098  -3.384  0.00  0.00    +0.021 A 
ATOM     13 BR   UNL     1      -0.080   3.307  -3.836  0.00  0.00    -0.050 Br
ENDBRANCH   2   7
BRANCH   4  14
ATOM     14  O   UNL     1      -4.607  -1.047  -6.238  0.00  0.00    -0.502 OA
ATOM     15  H   UNL     1      -4.135  -1.928  -6.261  0.00  0.00    +0.292 HD
ENDBRANCH   4  14
BRANCH   3  16
ATOM     16  C   UNL     1      -5.817   1.595  -5.440  0.00  0.00    +0.230 C 
ATOM     17  O   UNL     1      -5.259   2.164  -6.361  0.00  0.00    -0.284 OA
BRANCH  16  18
ATOM     18  C   UNL     1      -7.237   1.851  -5.170  0.00  0.00    +0.176 A 
ATOM     19  C   UNL     1      -8.052   2.630  -5.933  0.00  0.00    +0.061 A 
ATOM     20  C   UNL     1      -9.364   2.593  -5.292  0.00  0.00    +0.021 A 
ATOM     21  C   UNL     1     -10.605   3.171  -5.577  0.00  0.00    +0.011 A 
ATOM     22  C   UNL     1     -11.667   2.937  -4.750  0.00  0.00    +0.001 A 
ATOM     23  C   UNL     1     -11.522   2.130  -3.630  0.00  0.00    +0.004 A 
ATOM     24  C   UNL     1     -10.307   1.551  -3.331  0.00  0.00    +0.047 A 
ATOM     25  C   UNL     1      -9.212   1.774  -4.157  0.00  0.00    +0.136 A 
ATOM     26  O   UNL     1      -7.932   1.355  -4.125  0.00  0.00    -0.452 OA
ENDBRANCH  16  18
ENDBRANCH   3  16
BRANCH   1  27
ATOM     27  C   UNL     1      -3.455  -0.674  -1.414  0.00  0.00    +0.107 C 
BRANCH  27  28
ATOM     28  C   UNL     1      -2.039  -0.108  -1.295  0.00  0.00    +0.000 C 
BRANCH  28  29
ATOM     29  C   UNL     1      -1.484  -0.412   0.098  0.00  0.00    -0.078 C 
BRANCH  29  32
ATOM     30  C   UNL     1      -0.138   1.599   0.155  0.00  0.00    -0.097 C 
ATOM     31  C   UNL     1       0.530  -0.341   1.440  0.00  0.00    -0.097 C 
ATOM     32  N   UNL     1      -0.109   0.122   0.190  0.00  0.00    +0.376 N 
ATOM     33  H   UNL     1       0.436  -0.220  -0.610  0.00  0.00    -0.083 HD
ENDBRANCH  29  32
ENDBRANCH  28  29
ENDBRANCH  27  28
ENDBRANCH   1  27
TORSDOF 8
