REMARK  Name = ZINC55007281
REMARK  6 active torsions:
REMARK  status: ('A' for Active; 'I' for Inactive)
REMARK    1  A    between atoms: C_1  and  C_2
REMARK    2  A    between atoms: C_2  and  C_4
REMARK    3  A    between atoms: C_2  and  N_17
REMARK    4  A    between atoms: C_7  and  N_10
REMARK    5  A    between atoms: N_13  and  C_14
REMARK    6  A    between atoms: N_17  and  C_18
REMARK                            x       y       z     vdW  Elec       q    Type
REMARK                         _______ _______ _______ _____ _____    ______ ____
ROOT
ATOM      1  C   UNL     1      -0.052   1.359  -0.263  0.00  0.00    +0.033 C 
ATOM      2  C   UNL     1      -0.070  -0.171  -0.253  0.00  0.00    +0.097 C 
ENDROOT
BRANCH   2   3
ATOM      3  C   UNL     1      -1.496  -0.656  -0.189  0.00  0.00    -0.027 A 
ATOM      4  C   UNL     1      -2.167  -0.668   1.020  0.00  0.00    +0.007 A 
ATOM      5  C   UNL     1      -3.473  -1.112   1.083  0.00  0.00    +0.023 A 
ATOM      6  C   UNL     1      -4.113  -1.547  -0.071  0.00  0.00    +0.035 A 
ATOM      7  C   UNL     1      -3.436  -1.533  -1.284  0.00  0.00    +0.023 A 
ATOM      8  C   UNL     1      -2.132  -1.082  -1.340  0.00  0.00    +0.007 A 
BRANCH   6   9
ATOM      9  N   UNL     1      -5.436  -1.998  -0.011  0.00  0.00    -0.269 N 
ATOM     10  C   UNL     1      -6.259  -1.546   0.955  0.00  0.00    +0.304 C 
ATOM     11  O   UNL     1      -5.887  -0.666   1.708  0.00  0.00    -0.253 OA
ATOM     12  N   UNL     1      -7.495  -2.068   1.087  0.00  0.00    -0.296 N 
ATOM     13  H   UNL     1      -5.761  -2.636  -0.666  0.00  0.00    +0.156 HD
ATOM     14  H   UNL     1      -7.791  -2.769   0.486  0.00  0.00    +0.151 HD
BRANCH  12  15
ATOM     15  C   UNL     1      -8.389  -1.576   2.138  0.00  0.00    +0.075 C 
ATOM     16  C   UNL     1      -9.178  -2.616   2.937  0.00  0.00    +0.024 C 
ATOM     17  C   UNL     1      -9.895  -1.732   1.914  0.00  0.00    +0.024 C 
ENDBRANCH  12  15
ENDBRANCH   6   9
ENDBRANCH   2   3
BRANCH   2  18
ATOM     18  N   UNL     1       0.665  -0.660   0.916  0.00  0.00    -0.342 N 
ATOM     19  H   UNL     1       0.188  -0.879   1.732  0.00  0.00    +0.146 HD
BRANCH  18  20
ATOM     20  C   UNL     1       2.014  -0.806   0.858  0.00  0.00    +0.081 C 
ATOM     21  C   UNL     1       2.688  -1.403   1.900  0.00  0.00    +0.058 C 
ATOM     22  C   UNL     1       2.020  -2.392   2.770  0.00  0.00    +0.000 A 
ATOM     23  C   UNL     1       0.694  -2.760   2.577  0.00  0.00    +0.009 A 
ATOM     24  C   UNL     1       0.115  -3.689   3.417  0.00  0.00    +0.001 A 
ATOM     25  C   UNL     1       0.845  -4.256   4.450  0.00  0.00    +0.001 A 
ATOM     26  C   UNL     1       2.162  -3.905   4.658  0.00  0.00    +0.013 A 
ATOM     27  C   UNL     1       2.766  -2.967   3.820  0.00  0.00    +0.045 A 
ATOM     28  C   UNL     1       4.167  -2.565   4.006  0.00  0.00    +0.251 C 
ATOM     29  O   UNL     1       4.815  -3.058   4.910  0.00  0.00    -0.270 OA
ATOM     30  N   UNL     1       4.743  -1.663   3.195  0.00  0.00    -0.248 N 
ATOM     31  C   UNL     1       4.093  -1.080   2.175  0.00  0.00    +0.252 C 
ATOM     32  O   UNL     1       4.675  -0.272   1.473  0.00  0.00    -0.270 OA
ATOM     33  H   UNL     1       5.670  -1.424   3.352  0.00  0.00    +0.158 HD
ENDBRANCH  18  20
ENDBRANCH   2  18
TORSDOF 5
