REMARK  Name = ZINC67292784
REMARK  7 active torsions:
REMARK  status: ('A' for Active; 'I' for Inactive)
REMARK    1  A    between atoms: C_1  and  C_2
REMARK    2  A    between atoms: C_2  and  C_3
REMARK    3  A    between atoms: C_2  and  C_4
REMARK    4  A    between atoms: C_7  and  N_10
REMARK    5  A    between atoms: C_12  and  C_22
REMARK    6  A    between atoms: N_24  and  C_25
REMARK    7  A    between atoms: C_25  and  C_26
REMARK                            x       y       z     vdW  Elec       q    Type
REMARK                         _______ _______ _______ _____ _____    ______ ____
ROOT
ATOM      1  N   UNL     1       2.739  -1.868   4.575  0.00  0.00    -0.325 N 
ATOM      2  C   UNL     1       2.152  -1.829   5.752  0.00  0.00    +0.212 A 
ATOM      3  C   UNL     1       2.800  -2.409   6.945  0.00  0.00    +0.097 A 
ATOM      4  C   UNL     1       2.455  -1.871   8.177  0.00  0.00    +0.030 A 
ATOM      5  C   UNL     1       1.481  -0.777   8.184  0.00  0.00    +0.020 A 
ATOM      6  C   UNL     1       1.279  -0.005   9.335  0.00  0.00    +0.031 A 
ATOM      7  C   UNL     1       0.359   1.020   9.314  0.00  0.00    +0.042 A 
ATOM      8  C   UNL     1      -0.366   1.290   8.160  0.00  0.00    +0.023 A 
ATOM      9  C   UNL     1      -0.177   0.537   7.019  0.00  0.00    +0.048 A 
ATOM     10  C   UNL     1       0.743  -0.501   7.018  0.00  0.00    +0.138 A 
ATOM     11  O   UNL     1       0.935  -1.249   5.907  0.00  0.00    -0.439 OA
ATOM     12 CL   UNL     1       0.103   1.980  10.737  0.00  0.00    -0.084 Cl
ATOM     13  H   UNL     1       3.644  -2.207   4.496  0.00  0.00    +0.169 HD
ENDROOT
BRANCH   1  17
ATOM     14  C   UNL     1       0.723  -0.549   1.212  0.00  0.00    -0.045 A 
ATOM     15  C   UNL     1       2.038  -0.171   1.419  0.00  0.00    +0.006 A 
ATOM     16  C   UNL     1       2.716  -0.607   2.538  0.00  0.00    +0.026 A 
ATOM     17  C   UNL     1       2.072  -1.432   3.464  0.00  0.00    +0.042 A 
ATOM     18  C   UNL     1       0.744  -1.809   3.249  0.00  0.00    +0.026 A 
ATOM     19  C   UNL     1       0.077  -1.361   2.128  0.00  0.00    +0.006 A 
BRANCH  14  21
ATOM     20  C   UNL     1      -0.055   1.461  -0.014  0.00  0.00    +0.012 C 
ATOM     21  C   UNL     1      -0.012  -0.068  -0.013  0.00  0.00    +0.013 C 
ATOM     22  C   UNL     1       0.713  -0.559  -1.267  0.00  0.00    +0.012 C 
ENDBRANCH  14  21
ENDBRANCH   1  17
BRANCH   3  23
ATOM     23  C   UNL     1       3.770  -3.512   6.833  0.00  0.00    +0.249 C 
ATOM     24  O   UNL     1       4.120  -3.906   5.736  0.00  0.00    -0.270 OA
ATOM     25  N   UNL     1       4.271  -4.085   7.945  0.00  0.00    -0.309 N 
ATOM     26  H   UNL     1       3.938  -3.822   8.818  0.00  0.00    +0.149 HD
BRANCH  25  27
ATOM     27  C   UNL     1       5.318  -5.104   7.837  0.00  0.00    +0.136 C 
BRANCH  27  28
ATOM     28  C   UNL     1       5.706  -5.587   9.236  0.00  0.00    +0.135 C 
ATOM     29  C   UNL     1       6.892  -6.571   9.139  0.00  0.00    +0.035 C 
ATOM     30  C   UNL     1       6.523  -7.637  10.207  0.00  0.00    +0.031 C 
ATOM     31  C   UNL     1       4.978  -7.653  10.085  0.00  0.00    +0.160 C 
ATOM     32  O   UNL     1       4.607  -6.287   9.830  0.00  0.00    -0.375 OA
ENDBRANCH  27  28
ENDBRANCH  25  27
ENDBRANCH   3  23
TORSDOF 5
