REMARK  Name = ZINC12457669
REMARK  8 active torsions:
REMARK  status: ('A' for Active; 'I' for Inactive)
REMARK    1  A    between atoms: C_1  and  C_2
REMARK    2  A    between atoms: C_3  and  C_17
REMARK    3  A    between atoms: N_6  and  C_7
REMARK    4  A    between atoms: C_17  and  C_19
REMARK    5  A    between atoms: C_17  and  N_20
REMARK    6  A    between atoms: N_23  and  C_24
REMARK    7  A    between atoms: C_24  and  C_25
REMARK    8  A    between atoms: C_24  and  C_26
REMARK                            x       y       z     vdW  Elec       q    Type
REMARK                         _______ _______ _______ _____ _____    ______ ____
ROOT
ATOM      1  C   UNL     1      -1.420  -1.317  -0.218  0.00  0.00    +0.066 C 
ATOM      2  C   UNL     1      -2.547  -0.326  -0.082  0.00  0.00    +0.047 A 
ATOM      3  C   UNL     1      -3.868  -0.617  -0.042  0.00  0.00    +0.013 A 
ATOM      4  C   UNL     1      -4.571   0.585   0.091  0.00  0.00    +0.140 A 
ATOM      5  N   UNL     1      -3.706   1.566   0.135  0.00  0.00    -0.174 NA
ATOM      6  N   UNL     1      -2.420   1.022   0.023  0.00  0.00    -0.236 N 
ENDROOT
BRANCH   6   7
ATOM      7  C   UNL     1      -1.219   1.740   0.024  0.00  0.00    +0.073 A 
ATOM      8  C   UNL     1      -0.179   1.353   0.841  0.00  0.00    +0.028 A 
ATOM      9  C   UNL     1       1.022   2.056   0.846  0.00  0.00    +0.003 A 
ATOM     10  C   UNL     1       1.201   3.147   0.050  0.00  0.00    +0.008 A 
ATOM     11  C   UNL     1       0.163   3.578  -0.793  0.00  0.00    -0.016 A 
ATOM     12  C   UNL     1      -1.064   2.869  -0.807  0.00  0.00    +0.008 A 
ATOM     13  C   UNL     1      -2.099   3.300  -1.651  0.00  0.00    +0.010 A 
ATOM     14  C   UNL     1      -1.912   4.391  -2.444  0.00  0.00    +0.001 A 
ATOM     15  C   UNL     1      -0.706   5.089  -2.431  0.00  0.00    +0.001 A 
ATOM     16  C   UNL     1       0.320   4.699  -1.626  0.00  0.00    +0.008 A 
ENDBRANCH   6   7
BRANCH   3  17
ATOM     17  C   UNL     1      -4.474  -1.994  -0.126  0.00  0.00    +0.105 C 
ATOM     18  C   UNL     1      -4.519  -2.443  -1.588  0.00  0.00    +0.033 C 
BRANCH  17  19
ATOM     19  N   UNL     1      -5.834  -1.963   0.417  0.00  0.00    -0.293 N 
ATOM     20  C   UNL     1      -6.388  -3.087   0.914  0.00  0.00    +0.300 C 
ATOM     21  O   UNL     1      -5.758  -4.127   0.912  0.00  0.00    -0.253 OA
ATOM     22  N   UNL     1      -7.639  -3.058   1.413  0.00  0.00    -0.297 N 
ATOM     23  H   UNL     1      -6.337  -1.133   0.419  0.00  0.00    +0.151 HD
ATOM     24  H   UNL     1      -8.142  -2.228   1.415  0.00  0.00    +0.150 HD
BRANCH  22  25
ATOM     25  C   UNL     1      -8.241  -4.279   1.954  0.00  0.00    +0.068 C 
ATOM     26  C   UNL     1      -7.819  -4.453   3.414  0.00  0.00    +0.027 C 
ATOM     27  C   UNL     1      -9.765  -4.177   1.872  0.00  0.00    +0.027 C 
ENDBRANCH  22  25
ENDBRANCH  17  19
ENDBRANCH   3  17
TORSDOF 4
