REMARK  Name = ZINC66882066
REMARK  7 active torsions:
REMARK  status: ('A' for Active; 'I' for Inactive)
REMARK    1  A    between atoms: C_1  and  C_2
REMARK    2  A    between atoms: N_10  and  C_13
REMARK    3  A    between atoms: C_13  and  C_14
REMARK    4  A    between atoms: C_14  and  O_16
REMARK    5  A    between atoms: O_16  and  C_17
REMARK    6  A    between atoms: C_17  and  C_19
REMARK    7  A    between atoms: C_17  and  C_20
REMARK                            x       y       z     vdW  Elec       q    Type
REMARK                         _______ _______ _______ _____ _____    ______ ____
ROOT
ATOM      1  C   UNL     1      -1.327  -6.063   2.627  0.00  0.00    +0.326 C 
ATOM      2  O   UNL     1      -2.256  -5.391   2.246  0.00  0.00    -0.249 OA
ENDROOT
BRANCH   1   3
ATOM      3  C   UNL     1       0.087  -5.607   2.373  0.00  0.00    +0.237 C 
BRANCH   3  13
ATOM      4  C   UNL     1      -0.018   1.503   0.010  0.00  0.00    +0.044 C 
ATOM      5  C   UNL     1       0.002  -0.004   0.002  0.00  0.00    -0.050 A 
ATOM      6  C   UNL     1       0.006  -0.684  -1.202  0.00  0.00    +0.004 A 
ATOM      7  C   UNL     1       0.024  -2.070  -1.226  0.00  0.00    +0.014 A 
ATOM      8  C   UNL     1       0.039  -2.777  -0.035  0.00  0.00    +0.049 A 
ATOM      9  C   UNL     1       0.036  -2.084   1.192  0.00  0.00    +0.050 A 
ATOM     10  C   UNL     1       0.023  -0.699   1.201  0.00  0.00    +0.017 A 
ATOM     11  C   UNL     1       0.054  -3.123   2.244  0.00  0.00    +0.254 C 
ATOM     12  O   UNL     1       0.057  -2.920   3.441  0.00  0.00    -0.270 OA
ATOM     13  N   UNL     1       0.067  -4.331   1.652  0.00  0.00    -0.223 N 
ATOM     14  C   UNL     1       0.059  -4.214   0.312  0.00  0.00    +0.254 C 
ATOM     15  O   UNL     1       0.067  -5.135  -0.480  0.00  0.00    -0.270 OA
ENDBRANCH   3  13
ENDBRANCH   1   3
BRANCH   1  16
ATOM     16  O   UNL     1      -1.553  -7.215   3.277  0.00  0.00    -0.456 OA
BRANCH  16  17
ATOM     17  C   UNL     1      -2.918  -7.586   3.484  0.00  0.00    +0.204 C 
ATOM     18  C   UNL     1      -3.402  -8.427   2.301  0.00  0.00    +0.057 C 
BRANCH  17  19
ATOM     19  C   UNL     1      -3.034  -8.389   4.753  0.00  0.00    -0.004 A 
ATOM     20  C   UNL     1      -2.014  -9.246   5.122  0.00  0.00    +0.011 A 
ATOM     21  C   UNL     1      -2.115  -9.985   6.286  0.00  0.00    +0.050 A 
ATOM     22  C   UNL     1      -3.240  -9.869   7.086  0.00  0.00    +0.166 A 
ATOM     23  C   UNL     1      -4.268  -9.006   6.714  0.00  0.00    +0.167 A 
ATOM     24  C   UNL     1      -4.157  -8.264   5.549  0.00  0.00    +0.056 A 
ATOM     25  O   UNL     1      -5.254  -9.070   7.655  0.00  0.00    -0.453 OA
ATOM     26  C   UNL     1      -5.003 -10.281   8.393  0.00  0.00    +0.466 C 
ATOM     27  O   UNL     1      -3.583 -10.474   8.261  0.00  0.00    -0.453 OA
ENDBRANCH  17  19
ENDBRANCH  16  17
ENDBRANCH   1  16
TORSDOF 5
