REMARK  Name = ZINC08620708
REMARK  7 active torsions:
REMARK  status: ('A' for Active; 'I' for Inactive)
REMARK    1  A    between atoms: C_4  and  C_7
REMARK    2  A    between atoms: N_9  and  N_10
REMARK    3  A    between atoms: C_11  and  C_13
REMARK    4  A    between atoms: C_13  and  O_14
REMARK    5  A    between atoms: O_14  and  C_15
REMARK    6  A    between atoms: C_15  and  C_17
REMARK    7  A    between atoms: C_30  and  C_31
REMARK                            x       y       z     vdW  Elec       q    Type
REMARK                         _______ _______ _______ _____ _____    ______ ____
ROOT
ATOM      1  C   UNL     1      -0.042   5.306   0.030  0.00  0.00    +0.073 A 
ATOM      2  C   UNL     1      -0.005   3.843   0.023  0.00  0.00    +0.015 A 
ATOM      3  C   UNL     1       1.204   3.141   0.007  0.00  0.00    +0.011 A 
ATOM      4  C   UNL     1       1.191   1.777   0.000  0.00  0.00    +0.001 A 
ATOM      5  C   UNL     1      -0.013   1.076   0.008  0.00  0.00    +0.002 A 
ATOM      6  C   UNL     1      -1.207   1.729   0.017  0.00  0.00    +0.028 A 
ATOM      7  C   UNL     1      -1.233   3.136   0.031  0.00  0.00    +0.072 A 
ATOM      8  N   UNL     1      -2.386   3.802   0.044  0.00  0.00    -0.247 NA
ATOM      9  C   UNL     1      -2.453   5.131   0.051  0.00  0.00    +0.072 A 
ATOM     10  C   UNL     1      -1.287   5.916   0.044  0.00  0.00    -0.007 A 
ATOM     11  C   UNL     1      -1.658   7.379   0.055  0.00  0.00    +0.043 C 
ATOM     12  C   UNL     1      -3.192   7.433   0.070  0.00  0.00    +0.042 C 
ATOM     13  C   UNL     1      -3.647   5.995   0.067  0.00  0.00    -0.018 C 
ATOM     14  C   UNL     1      -4.928   5.571   0.077  0.00  0.00    +0.052 C 
ENDROOT
BRANCH  14  15
ATOM     15  C   UNL     1      -6.020   6.545   0.093  0.00  0.00    +0.128 A 
ATOM     16  C   UNL     1      -7.356   6.254   0.099  0.00  0.00    +0.049 A 
ATOM     17  C   UNL     1      -8.037   7.483   0.118  0.00  0.00    +0.042 A 
ATOM     18  C   UNL     1      -7.101   8.456   0.113  0.00  0.00    +0.195 A 
ATOM     19  O   UNL     1      -5.886   7.887   0.098  0.00  0.00    -0.464 OA
ENDBRANCH  14  15
BRANCH   1  20
ATOM     20  C   UNL     1       1.202   6.104   0.023  0.00  0.00    +0.341 C 
ATOM     21  O   UNL     1       1.704   6.438  -1.032  0.00  0.00    -0.245 OA
BRANCH  20  22
ATOM     22  O   UNL     1       1.780   6.462   1.187  0.00  0.00    -0.452 OA
BRANCH  22  23
ATOM     23  C   UNL     1       2.999   7.246   1.104  0.00  0.00    +0.329 C 
BRANCH  23  25
ATOM     24  N   UNL     1       4.623   8.270   2.663  0.00  0.00    -0.231 N 
ATOM     25  C   UNL     1       3.497   7.550   2.493  0.00  0.00    +0.267 C 
ATOM     26  O   UNL     1       2.884   7.146   3.459  0.00  0.00    -0.271 OA
ATOM     27  H   UNL     1       5.113   8.593   1.891  0.00  0.00    +0.173 HD
BRANCH  24  30
ATOM     28  C   UNL     1       6.211   9.273   4.126  0.00  0.00    +0.260 C 
ATOM     29  O   UNL     1       6.826   9.678   3.158  0.00  0.00    -0.269 OA
ATOM     30  N   UNL     1       5.085   8.553   3.955  0.00  0.00    -0.230 N 
ATOM     31  H   UNL     1       4.595   8.230   4.728  0.00  0.00    +0.173 HD
BRANCH  28  35
ATOM     32  C   UNL     1       7.613  10.131   8.043  0.00  0.00    +0.000 A 
ATOM     33  C   UNL     1       8.315  10.593   6.944  0.00  0.00    +0.001 A 
ATOM     34  C   UNL     1       7.865  10.318   5.669  0.00  0.00    +0.013 A 
ATOM     35  C   UNL     1       6.699   9.572   5.489  0.00  0.00    +0.038 A 
ATOM     36  C   UNL     1       5.993   9.113   6.602  0.00  0.00    +0.013 A 
ATOM     37  C   UNL     1       6.456   9.391   7.872  0.00  0.00    +0.001 A 
ENDBRANCH  28  35
ENDBRANCH  24  30
ENDBRANCH  23  25
ENDBRANCH  22  23
ENDBRANCH  20  22
ENDBRANCH   1  20
TORSDOF 7
