REMARK  Name = ZINC14889639
REMARK  8 active torsions:
REMARK  status: ('A' for Active; 'I' for Inactive)
REMARK    1  A    between atoms: C_1  and  S_2
REMARK    2  A    between atoms: S_2  and  C_3
REMARK    3  A    between atoms: C_8  and  C_26
REMARK    4  A    between atoms: N_11  and  C_14
REMARK    5  A    between atoms: C_14  and  C_15
REMARK    6  A    between atoms: C_26  and  N_57
REMARK    7  A    between atoms: C_27  and  C_28
REMARK    8  A    between atoms: C_27  and  N_57
REMARK                            x       y       z     vdW  Elec       q    Type
REMARK                         _______ _______ _______ _____ _____    ______ ____
ROOT
ATOM      1  C   UNL     1      -3.638   3.174   0.056  0.00  0.00    +0.010 A 
ATOM      2  C   UNL     1      -3.638   1.777   0.048  0.00  0.00    +0.015 A 
ATOM      3  C   UNL     1      -2.465   1.085   0.033  0.00  0.00    +0.011 A 
ATOM      4  C   UNL     1      -1.245   1.777   0.018  0.00  0.00    -0.001 A 
ATOM      5  C   UNL     1      -0.013   1.076   0.008  0.00  0.00    +0.017 A 
ATOM      6  C   UNL     1       1.148   1.778   0.001  0.00  0.00    +0.001 A 
ATOM      7  C   UNL     1       1.127   3.188   0.008  0.00  0.00    +0.253 A 
ATOM      8  O   UNL     1       2.179   3.803   0.001  0.00  0.00    -0.267 OA
ATOM      9  N   UNL     1      -0.036   3.864   0.023  0.00  0.00    -0.304 N 
ATOM     10  C   UNL     1      -1.238   3.186   0.031  0.00  0.00    +0.053 A 
ATOM     11  C   UNL     1      -2.442   3.876   0.047  0.00  0.00    +0.041 A 
ENDROOT
BRANCH   1  13
ATOM     12  C   UNL     1      -6.422   2.740   0.082  0.00  0.00    +0.090 C 
ATOM     13  S   UNL     1      -5.167   4.049   0.076  0.00  0.00    -0.129 S 
ENDBRANCH   1  13
BRANCH   9  14
ATOM     14  C   UNL     1      -0.027   5.329   0.031  0.00  0.00    +0.173 C 
BRANCH  14  15
ATOM     15  C   UNL     1      -0.038   5.847  -1.409  0.00  0.00    +0.230 C 
ATOM     16  C   UNL     1      -0.028   7.381  -1.407  0.00  0.00    +0.275 C 
ATOM     17  O   UNL     1      -0.024   7.831  -2.767  0.00  0.00    -0.485 OA
ATOM     18  C   UNL     1       0.850   7.219  -3.611  0.00  0.00    +0.162 A 
ATOM     19  C   UNL     1       1.167   7.824  -4.818  0.00  0.00    +0.049 A 
ATOM     20  C   UNL     1       2.051   7.213  -5.687  0.00  0.00    +0.004 A 
ATOM     21  C   UNL     1       2.622   5.999  -5.356  0.00  0.00    +0.004 A 
ATOM     22  C   UNL     1       2.312   5.392  -4.154  0.00  0.00    +0.049 A 
ATOM     23  C   UNL     1       1.426   5.999  -3.277  0.00  0.00    +0.163 A 
ATOM     24  O   UNL     1       1.134   5.392  -2.094  0.00  0.00    -0.480 OA
ENDBRANCH  14  15
ENDBRANCH   9  14
BRANCH   6  25
ATOM     25  C   UNL     1       2.466   1.048  -0.016  0.00  0.00    -0.041 C 
BRANCH  25  26
ATOM     26  N   UNL     1       2.934   0.927  -1.409  0.00  0.00    +0.385 N 
ATOM     27  H   UNL     1       3.050   1.865  -1.810  0.00  0.00    -0.085 HD
ATOM     28  H   UNL     1       2.240   0.405  -1.956  0.00  0.00    -0.085 HD
BRANCH  26  29
ATOM     29  C   UNL     1       4.225   0.215  -1.456  0.00  0.00    -0.045 C 
BRANCH  29  30
ATOM     30  C   UNL     1       4.678   0.107  -2.889  0.00  0.00    -0.046 A 
ATOM     31  C   UNL     1       4.316  -0.988  -3.660  0.00  0.00    +0.005 A 
ATOM     32  C   UNL     1       4.751  -1.042  -4.975  0.00  0.00    +0.020 A 
ATOM     33  C   UNL     1       5.535  -0.016  -5.468  0.00  0.00    +0.111 A 
ATOM     34  N   UNL     1       5.865   1.007  -4.704  0.00  0.00    -0.263 NA
ATOM     35  C   UNL     1       5.465   1.095  -3.451  0.00  0.00    +0.112 A 
ENDBRANCH  29  30
ENDBRANCH  26  29
ENDBRANCH  25  26
ENDBRANCH   6  25
TORSDOF 7
