REMARK  Name = ZINC57363782
REMARK  11 active torsions:
REMARK  status: ('A' for Active; 'I' for Inactive)
REMARK    1  A    between atoms: C_1  and  C_2
REMARK    2  A    between atoms: C_2  and  O_3
REMARK    3  A    between atoms: O_3  and  C_4
REMARK    4  A    between atoms: C_4  and  C_6
REMARK    5  A    between atoms: C_13  and  C_15
REMARK    6  A    between atoms: C_15  and  C_17
REMARK    7  A    between atoms: C_15  and  N_20
REMARK    8  A    between atoms: C_17  and  C_18
REMARK    9  A    between atoms: C_17  and  C_19
REMARK   10  A    between atoms: C_21  and  C_23
REMARK   11  A    between atoms: C_27  and  C_29
REMARK                            x       y       z     vdW  Elec       q    Type
REMARK                         _______ _______ _______ _____ _____    ______ ____
ROOT
ATOM      1  C   UNL     1       3.758  -5.801   4.877  0.00  0.00    +0.162 C 
ENDROOT
BRANCH   1   8
ATOM      2  C   UNL     1       2.114  -2.437   1.988  0.00  0.00    +0.115 C 
ATOM      3  C   UNL     1       1.588  -1.642   3.184  0.00  0.00    +0.018 C 
ATOM      4  C   UNL     1       2.274  -2.128   4.463  0.00  0.00    +0.020 C 
ATOM      5  C   UNL     1       1.944  -3.608   4.684  0.00  0.00    +0.108 C 
ATOM      6  N   UNL     1       2.315  -4.359   3.477  0.00  0.00    -0.299 N 
ATOM      7  C   UNL     1       1.784  -3.921   2.179  0.00  0.00    +0.122 C 
ATOM      8  C   UNL     1       3.127  -5.431   3.559  0.00  0.00    +0.236 C 
ATOM      9  O   UNL     1       3.352  -6.099   2.571  0.00  0.00    -0.274 OA
BRANCH   2  10
ATOM     10  C   UNL     1       1.463  -1.936   0.725  0.00  0.00    +0.312 C 
ATOM     11  O   UNL     1       0.803  -2.687   0.046  0.00  0.00    -0.250 OA
BRANCH  10  12
ATOM     12  O   UNL     1       1.616  -0.655   0.353  0.00  0.00    -0.465 OA
BRANCH  12  14
ATOM     13  C   UNL     1       1.256   1.233  -1.112  0.00  0.00    +0.048 C 
ATOM     14  C   UNL     1       0.970  -0.248  -0.855  0.00  0.00    +0.229 C 
ENDBRANCH  12  14
ENDBRANCH  10  12
ENDBRANCH   2  10
ENDBRANCH   1   8
BRANCH   1  15
ATOM     15  N   UNL     1       4.945  -6.625   4.637  0.00  0.00    -0.300 N 
ATOM     16  C   UNL     1       5.936  -6.662   5.550  0.00  0.00    +0.245 C 
ATOM     17  O   UNL     1       5.845  -6.011   6.572  0.00  0.00    -0.270 OA
ATOM     18  H   UNL     1       5.018  -7.144   3.821  0.00  0.00    +0.150 HD
BRANCH  16  19
ATOM     19  C   UNL     1       7.134  -7.494   5.307  0.00  0.00    +0.037 A 
ATOM     20  C   UNL     1       7.244  -8.238   4.131  0.00  0.00    +0.013 A 
ATOM     21  C   UNL     1       8.365  -9.011   3.911  0.00  0.00    +0.001 A 
ATOM     22  C   UNL     1       9.378  -9.051   4.853  0.00  0.00    +0.003 A 
ATOM     23  C   UNL     1       9.274  -8.316   6.021  0.00  0.00    -0.050 A 
ATOM     24  C   UNL     1       8.162  -7.534   6.250  0.00  0.00    +0.016 A 
ATOM     25  C   UNL     1      10.382  -8.367   7.041  0.00  0.00    +0.044 C 
ENDBRANCH  16  19
ENDBRANCH   1  15
BRANCH   1  26
ATOM     26  C   UNL     1       2.753  -6.587   5.721  0.00  0.00    +0.012 C 
ATOM     27  C   UNL     1       2.454  -7.925   5.041  0.00  0.00    +0.009 C 
ATOM     28  C   UNL     1       3.341  -6.841   7.110  0.00  0.00    +0.009 C 
ENDBRANCH   1  26
TORSDOF 7
