REMARK  Name = ZINC21238377
REMARK  13 active torsions:
REMARK  status: ('A' for Active; 'I' for Inactive)
REMARK    1  A    between atoms: C_1  and  C_2
REMARK    2  A    between atoms: C_2  and  O_3
REMARK    3  A    between atoms: O_3  and  C_4
REMARK    4  A    between atoms: C_7  and  C_12
REMARK    5  A    between atoms: C_9  and  O_10
REMARK    6  A    between atoms: O_10  and  C_11
REMARK    7  A    between atoms: C_17  and  C_27
REMARK    8  A    between atoms: C_30  and  O_35
REMARK    9  A    between atoms: C_31  and  O_33
REMARK   10  A    between atoms: O_33  and  C_34
REMARK   11  A    between atoms: O_35  and  C_36
REMARK   12  A    between atoms: C_36  and  C_37
REMARK   13  A    between atoms: C_36  and  C_38
REMARK                            x       y       z     vdW  Elec       q    Type
REMARK                         _______ _______ _______ _____ _____    ______ ____
ROOT
ATOM      1  C   UNL     1      -2.689   0.512   0.531  0.00  0.00    +0.032 C 
ATOM      2  C   UNL     1      -1.686  -0.406  -0.164  0.00  0.00    +0.059 C 
ATOM      3  C   UNL     1      -0.291   0.189  -0.074  0.00  0.00    +0.017 C 
ATOM      4  C   UNL     1      -0.117   1.522  -0.076  0.00  0.00    +0.036 C 
ATOM      5  C   UNL     1       1.207   2.243   0.002  0.00  0.00    +0.136 C 
ATOM      6  N   UNL     1       2.365   1.395  -0.181  0.00  0.00    -0.331 N 
ATOM      7  C   UNL     1       2.671   0.390   0.736  0.00  0.00    +0.049 A 
ATOM      8  C   UNL     1       3.794   0.466   1.543  0.00  0.00    +0.025 A 
ATOM      9  C   UNL     1       3.996  -0.494   2.519  0.00  0.00    +0.002 A 
ATOM     10  C   UNL     1       3.087  -1.523   2.687  0.00  0.00    +0.002 A 
ATOM     11  C   UNL     1       1.976  -1.614   1.867  0.00  0.00    +0.025 A 
ATOM     12  C   UNL     1       1.782  -0.664   0.879  0.00  0.00    +0.052 A 
ATOM     13  N   UNL     1       0.714  -0.721  -0.009  0.00  0.00    -0.316 N 
ATOM     14  C   UNL     1      -1.237   2.385  -0.139  0.00  0.00    +0.163 C 
ATOM     15  O   UNL     1      -1.050   3.586  -0.164  0.00  0.00    -0.292 OA
ATOM     16  C   UNL     1      -2.645   1.872  -0.177  0.00  0.00    +0.088 C 
ATOM     17  H   UNL     1       3.020   1.538  -1.054  0.00  0.00    +0.147 HD
ATOM     18  H   UNL     1       0.721  -1.583  -0.692  0.00  0.00    +0.152 HD
ENDROOT
BRANCH   1  22
ATOM     19  C   UNL     1      -6.619  -1.147   0.230  0.00  0.00    +0.162 A 
ATOM     20  C   UNL     1      -5.907  -0.832  -0.916  0.00  0.00    +0.050 A 
ATOM     21  C   UNL     1      -4.640  -0.291  -0.816  0.00  0.00    +0.008 A 
ATOM     22  C   UNL     1      -4.074  -0.073   0.427  0.00  0.00    -0.040 A 
ATOM     23  C   UNL     1      -4.779  -0.385   1.575  0.00  0.00    +0.053 A 
ATOM     24  C   UNL     1      -6.053  -0.923   1.481  0.00  0.00    +0.162 A 
BRANCH  24  25
ATOM     25  O   UNL     1      -6.747  -1.230   2.609  0.00  0.00    -0.491 OA
ATOM     26  C   UNL     1      -6.103  -0.972   3.858  0.00  0.00    +0.277 C 
ENDBRANCH  24  25
BRANCH  19  27
ATOM     27  O   UNL     1      -7.869  -1.675   0.133  0.00  0.00    -0.489 OA
BRANCH  27  29
ATOM     28  C   UNL     1      -9.793  -2.474  -1.092  0.00  0.00    +0.048 C 
ATOM     29  C   UNL     1      -8.387  -1.878  -1.184  0.00  0.00    +0.226 C 
ENDBRANCH  27  29
ENDBRANCH  19  27
ENDBRANCH   1  22
BRANCH   5  30
ATOM     30  C   UNL     1       1.310   2.908   1.350  0.00  0.00    -0.019 A 
ATOM     31  C   UNL     1       1.331   2.139   2.498  0.00  0.00    +0.009 A 
ATOM     32  C   UNL     1       1.431   2.744   3.737  0.00  0.00    +0.050 A 
ATOM     33  C   UNL     1       1.500   4.125   3.830  0.00  0.00    +0.162 A 
ATOM     34  C   UNL     1       1.474   4.899   2.674  0.00  0.00    +0.162 A 
ATOM     35  C   UNL     1       1.379   4.286   1.435  0.00  0.00    +0.055 A 
BRANCH  34  36
ATOM     36  O   UNL     1       1.541   6.255   2.760  0.00  0.00    -0.491 OA
ATOM     37  C   UNL     1       1.509   6.985   1.533  0.00  0.00    +0.277 C 
ENDBRANCH  34  36
BRANCH  33  38
ATOM     38  O   UNL     1       1.593   4.722   5.049  0.00  0.00    -0.486 OA
BRANCH  38  39
ATOM     39  C   UNL     1       1.739   3.864   6.182  0.00  0.00    +0.167 C 
ATOM     40  C   UNL     1       2.433   4.627   7.313  0.00  0.00    +0.051 C 
ATOM     41  C   UNL     1       0.359   3.401   6.652  0.00  0.00    +0.051 C 
ENDBRANCH  38  39
ENDBRANCH  33  38
ENDBRANCH   5  30
TORSDOF 8
