REMARK  Name = ZINC04702669
REMARK  4 active torsions:
REMARK  status: ('A' for Active; 'I' for Inactive)
REMARK    1  A    between atoms: C_1  and  C_2
REMARK    2  A    between atoms: C_9  and  C_12
REMARK    3  A    between atoms: N_14  and  N_15
REMARK    4  A    between atoms: C_16  and  C_18
REMARK                            x       y       z     vdW  Elec       q    Type
REMARK                         _______ _______ _______ _____ _____    ______ ____
ROOT
ATOM      1  C   UNL     1       1.147   1.655   0.000  0.00  0.00    +0.276 C 
ATOM      2  O   UNL     1       1.130   2.872   0.007  0.00  0.00    -0.267 OA
ATOM      3  N   UNL     1      -0.011   0.966   0.007  0.00  0.00    -0.229 N 
ATOM      4  H   UNL     1       0.002  -0.004   0.002  0.00  0.00    +0.173 HD
ENDROOT
BRANCH   1  13
ATOM      5  C   UNL     1       8.205  -0.714  -0.078  0.00  0.00    +0.044 C 
ATOM      6  C   UNL     1       6.698  -0.709  -0.065  0.00  0.00    -0.050 A 
ATOM      7  C   UNL     1       6.006  -1.914  -0.066  0.00  0.00    +0.005 A 
ATOM      8  C   UNL     1       4.630  -1.933  -0.053  0.00  0.00    +0.026 A 
ATOM      9  C   UNL     1       3.921  -0.735  -0.040  0.00  0.00    +0.047 A 
ATOM     10  C   UNL     1       4.625   0.485  -0.039  0.00  0.00    +0.001 A 
ATOM     11  C   UNL     1       6.026   0.478  -0.052  0.00  0.00    +0.013 A 
ATOM     12  C   UNL     1       3.658   1.519  -0.030  0.00  0.00    +0.041 A 
ATOM     13  C   UNL     1       2.430   0.938  -0.016  0.00  0.00    +0.104 A 
ATOM     14  N   UNL     1       2.579  -0.436  -0.025  0.00  0.00    -0.351 N 
ATOM     15  H   UNL     1       1.857  -1.082  -0.022  0.00  0.00    +0.166 HD
ENDBRANCH   1  13
BRANCH   3  16
ATOM     16  N   UNL     1      -1.234   1.650   0.017  0.00  0.00    -0.234 N 
ATOM     17  C   UNL     1      -2.392   0.960   0.019  0.00  0.00    +0.235 C 
ATOM     18  O   UNL     1      -2.375  -0.253   0.012  0.00  0.00    -0.274 OA
ATOM     19  H   UNL     1      -1.247   2.620   0.022  0.00  0.00    +0.173 HD
BRANCH  17  20
ATOM     20  C   UNL     1      -3.707   1.696   0.029  0.00  0.00    +0.049 C 
ATOM     21  C   UNL     1      -3.794   2.567   1.283  0.00  0.00    +0.019 C 
ATOM     22  C   UNL     1      -5.129   3.314   1.294  0.00  0.00    -0.009 C 
ATOM     23  C   UNL     1      -6.279   2.304   1.294  0.00  0.00    +0.007 C 
ATOM     24  C   UNL     1      -6.191   1.433   0.039  0.00  0.00    -0.009 C 
ATOM     25  C   UNL     1      -4.856   0.686   0.029  0.00  0.00    +0.019 C 
ATOM     26  C   UNL     1      -6.290   2.318  -1.205  0.00  0.00    +0.007 C 
ATOM     27  C   UNL     1      -5.141   3.328  -1.205  0.00  0.00    -0.009 C 
ATOM     28  C   UNL     1      -5.228   4.199   0.050  0.00  0.00    +0.007 C 
ATOM     29  C   UNL     1      -3.806   2.581  -1.215  0.00  0.00    +0.019 C 
ENDBRANCH  17  20
ENDBRANCH   3  16
TORSDOF 3
