REMARK  Name = ZINC66929117
REMARK  6 active torsions:
REMARK  status: ('A' for Active; 'I' for Inactive)
REMARK    1  A    between atoms: C_4  and  N_7
REMARK    2  A    between atoms: C_8  and  C_28
REMARK    3  A    between atoms: C_11  and  C_13
REMARK    4  A    between atoms: N_15  and  C_16
REMARK    5  A    between atoms: C_16  and  C_17
REMARK    6  A    between atoms: C_17  and  O_27
REMARK                            x       y       z     vdW  Elec       q    Type
REMARK                         _______ _______ _______ _____ _____    ______ ____
ROOT
ATOM      1  C   UNL     1       7.277  -0.525   0.155  0.00  0.00    +0.260 C 
ATOM      2  O   UNL     1       8.102  -1.407   0.006  0.00  0.00    -0.269 OA
ATOM      3  N   UNL     1       7.661   0.767   0.135  0.00  0.00    -0.307 N 
ATOM      4  H   UNL     1       7.004   1.470   0.253  0.00  0.00    +0.149 HD
ENDROOT
BRANCH   1   8
ATOM      5  N   UNL     1       3.656  -0.598   0.692  0.00  0.00    -0.212 N 
ATOM      6  C   UNL     1       3.799  -2.061   0.629  0.00  0.00    +0.189 C 
ATOM      7  C   UNL     1       5.308  -2.270   0.398  0.00  0.00    +0.096 C 
ATOM      8  C   UNL     1       5.869  -0.866   0.355  0.00  0.00    +0.123 C 
ATOM      9  N   UNL     1       4.909  -0.014   0.517  0.00  0.00    -0.178 NA
BRANCH   5  13
ATOM     10  C   UNL     1       0.086   1.462   1.281  0.00  0.00    +0.000 A 
ATOM     11  C   UNL     1       1.268   2.162   1.120  0.00  0.00    +0.002 A 
ATOM     12  C   UNL     1       2.454   1.482   0.925  0.00  0.00    +0.025 A 
ATOM     13  C   UNL     1       2.459   0.093   0.890  0.00  0.00    +0.052 A 
ATOM     14  C   UNL     1       1.270  -0.607   1.052  0.00  0.00    +0.025 A 
ATOM     15  C   UNL     1       0.087   0.079   1.246  0.00  0.00    +0.002 A 
ENDBRANCH   5  13
BRANCH   6  16
ATOM     16  C   UNL     1       3.001  -2.622  -0.520  0.00  0.00    +0.233 C 
ATOM     17  O   UNL     1       2.644  -1.894  -1.423  0.00  0.00    -0.274 OA
ATOM     18  N   UNL     1       2.685  -3.932  -0.545  0.00  0.00    -0.328 N 
ATOM     19  H   UNL     1       2.971  -4.513   0.176  0.00  0.00    +0.145 HD
ATOM     20  H   UNL     1       2.171  -4.293  -1.285  0.00  0.00    +0.145 HD
ENDBRANCH   6  16
ENDBRANCH   1   8
BRANCH   3  21
ATOM     21  C   UNL     1       9.072   1.109  -0.065  0.00  0.00    +0.144 C 
BRANCH  21  22
ATOM     22  C   UNL     1       9.217   2.628  -0.178  0.00  0.00    +0.107 C 
ATOM     23  C   UNL     1       8.335   3.135  -1.317  0.00  0.00    +0.041 C 
ATOM     24  C   UNL     1       8.658   4.615  -1.556  0.00  0.00    +0.008 C 
ATOM     25  C   UNL     1      10.055   4.712  -2.165  0.00  0.00    +0.035 C 
ATOM     26  C   UNL     1      11.046   3.931  -1.342  0.00  0.00    -0.041 A 
ATOM     27  C   UNL     1      10.662   2.971  -0.432  0.00  0.00    -0.011 A 
ATOM     28  C   UNL     1      11.627   2.282   0.290  0.00  0.00    +0.007 A 
ATOM     29  C   UNL     1      12.967   2.554   0.105  0.00  0.00    +0.000 A 
ATOM     30  C   UNL     1      13.353   3.520  -0.805  0.00  0.00    +0.000 A 
ATOM     31  C   UNL     1      12.395   4.204  -1.525  0.00  0.00    +0.004 A 
BRANCH  22  32
ATOM     32  O   UNL     1       8.798   3.233   1.047  0.00  0.00    -0.382 OA
ATOM     33  H   UNL     1       9.307   2.952   1.819  0.00  0.00    +0.211 HD
ENDBRANCH  22  32
ENDBRANCH  21  22
ENDBRANCH   3  21
TORSDOF 6
