REMARK  Name = ZINC09185574
REMARK  4 active torsions:
REMARK  status: ('A' for Active; 'I' for Inactive)
REMARK    1  A    between atoms: C_15  and  C_17
REMARK    2  A    between atoms: N_19  and  C_20
REMARK    3  A    between atoms: C_22  and  N_27
REMARK    4  A    between atoms: N_32  and  C_35
REMARK                            x       y       z     vdW  Elec       q    Type
REMARK                         _______ _______ _______ _____ _____    ______ ____
ROOT
ATOM      1  C   UNL     1       5.186  -1.944   3.949  0.00  0.00    +0.001 A 
ATOM      2  C   UNL     1       4.964  -2.080   2.590  0.00  0.00    +0.000 A 
ATOM      3  C   UNL     1       4.903  -0.960   1.777  0.00  0.00    +0.006 A 
ATOM      4  C   UNL     1       5.064   0.293   2.321  0.00  0.00    -0.021 A 
ATOM      5  C   UNL     1       5.291   0.441   3.696  0.00  0.00    -0.019 A 
ATOM      6  C   UNL     1       5.349  -0.694   4.507  0.00  0.00    +0.008 A 
ATOM      7  C   UNL     1       5.472   1.785   4.280  0.00  0.00    +0.022 C 
ATOM      8  C   UNL     1       5.073   2.869   3.585  0.00  0.00    +0.054 C 
ATOM      9  C   UNL     1       5.000   1.530   1.466  0.00  0.00    +0.100 C 
ATOM     10  C   UNL     1       4.002   1.381   0.296  0.00  0.00    +0.113 C 
ATOM     11  C   UNL     1       3.287   2.766   0.253  0.00  0.00    +0.117 C 
ATOM     12  C   UNL     1       3.412   3.313   1.689  0.00  0.00    +0.156 C 
ATOM     13  C   UNL     1       1.841   2.350   0.031  0.00  0.00    +0.228 C 
ATOM     14  O   UNL     1       0.959   3.058  -0.404  0.00  0.00    -0.275 OA
ATOM     15  N   UNL     1       1.709   1.067   0.399  0.00  0.00    -0.238 N 
ATOM     16  C   UNL     1       2.869   0.456   0.688  0.00  0.00    +0.228 C 
ATOM     17  O   UNL     1       2.989  -0.648   1.175  0.00  0.00    -0.275 OA
ATOM     18  N   UNL     1       4.749   2.797   2.111  0.00  0.00    -0.383 NA
ATOM     19  H   UNL     1       5.425   3.441   1.684  0.00  0.00    +0.127 HD
ENDROOT
BRANCH  15  20
ATOM     20  C   UNL     1       0.411   0.393   0.483  0.00  0.00    +0.084 C 
ATOM     21  C   UNL     1      -0.515   1.183   1.410  0.00  0.00    +0.023 C 
ATOM     22  C   UNL     1      -1.870   0.479   1.499  0.00  0.00    +0.002 C 
ATOM     23  C   UNL     1      -2.494   0.396   0.104  0.00  0.00    +0.000 C 
ATOM     24  C   UNL     1      -1.568  -0.394  -0.823  0.00  0.00    +0.002 C 
ATOM     25  C   UNL     1      -0.213   0.310  -0.911  0.00  0.00    +0.023 C 
ENDBRANCH  15  20
BRANCH  12  26
ATOM     26  C   UNL     1       2.140   3.043   2.451  0.00  0.00    +0.237 C 
ATOM     27  O   UNL     1       2.042   2.045   3.133  0.00  0.00    -0.273 OA
ATOM     28  N   UNL     1       1.111   3.910   2.374  0.00  0.00    -0.283 N 
ATOM     29  H   UNL     1       1.162   4.671   1.775  0.00  0.00    +0.155 HD
BRANCH  28  30
ATOM     30  C   UNL     1      -0.032   3.712   3.158  0.00  0.00    +0.054 A 
ATOM     31  C   UNL     1       0.038   2.931   4.304  0.00  0.00    +0.057 A 
ATOM     32  C   UNL     1      -1.091   2.737   5.075  0.00  0.00    +0.128 A 
ATOM     33  C   UNL     1      -2.290   3.320   4.708  0.00  0.00    +0.034 A 
ATOM     34  C   UNL     1      -2.364   4.099   3.568  0.00  0.00    +0.024 A 
ATOM     35  C   UNL     1      -1.236   4.301   2.795  0.00  0.00    +0.062 A 
ATOM     36 CL   UNL     1      -1.327   5.285   1.367  0.00  0.00    -0.082 Cl
BRANCH  32  37
ATOM     37  N   UNL     1      -1.018   1.905   6.297  0.00  0.00    +0.056 N 
ATOM     38  O   UNL     1       0.038   1.391   6.621  0.00  0.00    -0.126 OA
ATOM     39  O   UNL     1      -2.013   1.733   6.978  0.00  0.00    -0.126 OA
ENDBRANCH  32  37
ENDBRANCH  28  30
ENDBRANCH  12  26
TORSDOF 4
