REMARK  Name = ZINC63213547
REMARK  4 active torsions:
REMARK  status: ('A' for Active; 'I' for Inactive)
REMARK    1  A    between atoms: C_4  and  N_20
REMARK    2  A    between atoms: C_6  and  N_10
REMARK    3  A    between atoms: N_10  and  S_11
REMARK    4  A    between atoms: S_11  and  N_14
REMARK                            x       y       z     vdW  Elec       q    Type
REMARK                         _______ _______ _______ _____ _____    ______ ____
ROOT
ATOM      1  C   UNL     1      -0.310   1.511  -0.167  0.00  0.00    -0.000 C 
ATOM      2  C   UNL     1       1.010   2.120  -0.083  0.00  0.00    -0.002 C 
ATOM      3  C   UNL     1       1.904   1.752  -1.284  0.00  0.00    -0.015 C 
ATOM      4  C   UNL     1       2.471   0.377  -1.054  0.00  0.00    -0.056 C 
ATOM      5  C   UNL     1       1.624  -0.728  -1.713  0.00  0.00    +0.063 C 
ATOM      6  C   UNL     1       0.110  -0.502  -1.541  0.00  0.00    +0.019 C 
ATOM      7  C   UNL     1      -0.248  -0.030  -0.158  0.00  0.00    +0.001 C 
ENDROOT
BRANCH   4   8
ATOM      8  N   UNL     1       3.831   0.325  -1.609  0.00  0.00    +0.381 N 
ATOM      9  H   UNL     1       4.408   1.013  -1.150  0.00  0.00    -0.090 HD
ATOM     10  H   UNL     1       4.220  -0.594  -1.460  0.00  0.00    -0.090 HD
ATOM     11  H   UNL     1       3.798   0.519  -2.598  0.00  0.00    -0.090 HD
ENDBRANCH   4   8
BRANCH   5  12
ATOM     12  N   UNL     1       1.933  -0.771  -3.144  0.00  0.00    -0.178 NA
ATOM     13  H   UNL     1       2.120   0.051  -3.625  0.00  0.00    +0.149 HD
BRANCH  12  14
ATOM     14  S   UNL     1       1.965  -2.222  -3.942  0.00  0.00    +0.097 S 
ATOM     15  O   UNL     1       0.766  -2.902  -3.595  0.00  0.00    -0.141 OA
ATOM     16  O   UNL     1       2.317  -1.938  -5.289  0.00  0.00    -0.141 OA
BRANCH  14  17
ATOM     17  N   UNL     1       3.212  -3.104  -3.303  0.00  0.00    -0.167 NA
ATOM     18  C   UNL     1       2.968  -4.077  -2.230  0.00  0.00    +0.110 C 
ATOM     19  C   UNL     1       3.542  -5.433  -2.653  0.00  0.00    +0.017 C 
ATOM     20  C   UNL     1       5.017  -5.264  -3.025  0.00  0.00    +0.003 C 
ATOM     21  C   UNL     1       5.140  -4.298  -4.205  0.00  0.00    +0.017 C 
ATOM     22  C   UNL     1       4.583  -2.934  -3.803  0.00  0.00    +0.110 C 
ENDBRANCH  14  17
ENDBRANCH  12  14
ENDBRANCH   5  12
TORSDOF 4
