REMARK  Name = ZINC45595718
REMARK  4 active torsions:
REMARK  status: ('A' for Active; 'I' for Inactive)
REMARK    1  A    between atoms: C_4  and  S_7
REMARK    2  A    between atoms: S_7  and  N_10
REMARK    3  A    between atoms: N_10  and  C_11
REMARK    4  A    between atoms: N_19  and  C_20
REMARK                            x       y       z     vdW  Elec       q    Type
REMARK                         _______ _______ _______ _____ _____    ______ ____
ROOT
ATOM      1  C   UNL     1       3.566  -1.936   2.399  0.00  0.00    +0.079 C 
ATOM      2  C   UNL     1       2.572  -1.085   3.192  0.00  0.00    +0.039 C 
ATOM      3  C   UNL     1       1.706  -1.998   4.066  0.00  0.00    +0.111 C 
ATOM      4  N   UNL     1       2.587  -2.829   4.898  0.00  0.00    -0.286 N 
ATOM      5  C   UNL     1       3.639  -3.619   4.243  0.00  0.00    +0.111 C 
ATOM      6  C   UNL     1       4.482  -2.688   3.367  0.00  0.00    +0.039 C 
ATOM      7  C   UNL     1       2.434  -2.866   6.237  0.00  0.00    +0.303 C 
ATOM      8  O   UNL     1       1.624  -2.136   6.776  0.00  0.00    -0.253 OA
ATOM      9  N   UNL     1       3.177  -3.711   6.978  0.00  0.00    -0.292 N 
ATOM     10  H   UNL     1       3.872  -4.241   6.557  0.00  0.00    +0.151 HD
ENDROOT
BRANCH   9  11
ATOM     11  C   UNL     1       2.936  -3.829   8.418  0.00  0.00    +0.105 C 
ATOM     12  C   UNL     1       3.435  -5.195   8.934  0.00  0.00    +0.032 C 
ATOM     13  C   UNL     1       3.948  -4.848  10.348  0.00  0.00    +0.037 C 
ATOM     14  C   UNL     1       4.330  -3.385  10.282  0.00  0.00    -0.042 A 
ATOM     15  C   UNL     1       3.746  -2.797   9.172  0.00  0.00    -0.024 A 
ATOM     16  C   UNL     1       3.957  -1.454   8.910  0.00  0.00    +0.006 A 
ATOM     17  C   UNL     1       4.747  -0.697   9.753  0.00  0.00    +0.000 A 
ATOM     18  C   UNL     1       5.330  -1.281  10.862  0.00  0.00    +0.000 A 
ATOM     19  C   UNL     1       5.123  -2.625  11.125  0.00  0.00    +0.004 A 
ENDBRANCH   9  11
BRANCH   1  20
ATOM     20  N   UNL     1       4.373  -1.069   1.537  0.00  0.00    -0.187 NA
ATOM     21  H   UNL     1       5.167  -0.638   1.890  0.00  0.00    +0.148 HD
BRANCH  20  22
ATOM     22  S   UNL     1       3.929  -0.824  -0.039  0.00  0.00    +0.059 S 
ATOM     23  O   UNL     1       3.676  -2.107  -0.594  0.00  0.00    -0.153 OA
ATOM     24  O   UNL     1       4.882   0.072  -0.595  0.00  0.00    -0.153 OA
BRANCH  22  28
ATOM     25  C   UNL     1      -0.031   1.368   0.008  0.00  0.00    +0.000 A 
ATOM     26  C   UNL     1       1.153   2.080   0.002  0.00  0.00    +0.002 A 
ATOM     27  C   UNL     1       2.362   1.411  -0.013  0.00  0.00    +0.028 A 
ATOM     28  C   UNL     1       2.388   0.029  -0.020  0.00  0.00    +0.105 A 
ATOM     29  C   UNL     1       1.203  -0.684  -0.012  0.00  0.00    +0.028 A 
ATOM     30  C   UNL     1      -0.006  -0.015   0.001  0.00  0.00    +0.002 A 
ENDBRANCH  22  28
ENDBRANCH  20  22
ENDBRANCH   1  20
TORSDOF 4
