REMARK  Name = ZINC01128304
REMARK  2 active torsions:
REMARK  status: ('A' for Active; 'I' for Inactive)
REMARK    1  A    between atoms: C_4  and  C_7
REMARK    2  A    between atoms: C_10  and  C_19
REMARK                            x       y       z     vdW  Elec       q    Type
REMARK                         _______ _______ _______ _____ _____    ______ ____
ROOT
ATOM      1  C   UNL     1       3.711  -0.707  -0.038  0.00  0.00    +0.106 C 
ATOM      2  C   UNL     1       4.019  -1.178  -1.464  0.00  0.00    +0.059 C 
ATOM      3  C   UNL     1       2.874  -2.061  -1.975  0.00  0.00    +0.145 C 
ATOM      4  N   UNL     1       2.570  -3.072  -0.963  0.00  0.00    -0.224 N 
ATOM      5  C   UNL     1       2.928  -2.979   0.340  0.00  0.00    +0.216 A 
ATOM      6  N   UNL     1       2.502  -4.049   0.957  0.00  0.00    -0.180 NA
ATOM      7  C   UNL     1       1.866  -4.844   0.085  0.00  0.00    +0.233 A 
ATOM      8  N   UNL     1       1.886  -4.280  -1.103  0.00  0.00    -0.132 NA
ATOM      9  N   UNL     1       1.278  -6.073   0.388  0.00  0.00    -0.326 N 
ATOM     10  N   UNL     1       3.630  -1.887   0.844  0.00  0.00    -0.307 N 
ATOM     11  H   UNL     1       1.310  -6.415   1.295  0.00  0.00    +0.145 HD
ATOM     12  H   UNL     1       0.837  -6.585  -0.308  0.00  0.00    +0.145 HD
ATOM     13  H   UNL     1       4.044  -1.901   1.722  0.00  0.00    +0.149 HD
ENDROOT
BRANCH   3  14
ATOM     14  C   UNL     1       3.292  -2.736  -3.256  0.00  0.00    +0.014 A 
ATOM     15  C   UNL     1       4.388  -3.580  -3.269  0.00  0.00    +0.048 A 
ATOM     16  C   UNL     1       4.771  -4.199  -4.446  0.00  0.00    +0.020 A 
ATOM     17  C   UNL     1       4.058  -3.975  -5.608  0.00  0.00    +0.003 A 
ATOM     18  C   UNL     1       2.962  -3.132  -5.597  0.00  0.00    +0.020 A 
ATOM     19  C   UNL     1       2.575  -2.517  -4.419  0.00  0.00    +0.048 A 
ATOM     20 CL   UNL     1       1.194  -1.465  -4.403  0.00  0.00    -0.083 Cl
ATOM     21 CL   UNL     1       5.284  -3.861  -1.809  0.00  0.00    -0.083 Cl
ENDBRANCH   3  14
BRANCH   1  25
ATOM     22  C   UNL     1      -0.017   1.378   0.010  0.00  0.00    +0.000 A 
ATOM     23  C   UNL     1       1.171   2.086   0.002  0.00  0.00    +0.000 A 
ATOM     24  C   UNL     1       2.377   1.411  -0.013  0.00  0.00    +0.005 A 
ATOM     25  C   UNL     1       2.396   0.029  -0.020  0.00  0.00    -0.027 A 
ATOM     26  C   UNL     1       1.208  -0.679  -0.012  0.00  0.00    +0.005 A 
ATOM     27  C   UNL     1       0.002  -0.004   0.002  0.00  0.00    +0.000 A 
ENDBRANCH   1  25
TORSDOF 2
