REMARK  Name = ZINC20877062
REMARK  13 active torsions:
REMARK  status: ('A' for Active; 'I' for Inactive)
REMARK    1  A    between atoms: C_1  and  O_2
REMARK    2  A    between atoms: O_2  and  C_3
REMARK    3  A    between atoms: C_5  and  C_24
REMARK    4  A    between atoms: C_8  and  O_9
REMARK    5  A    between atoms: O_9  and  C_10
REMARK    6  A    between atoms: C_10  and  C_11
REMARK    7  A    between atoms: C_11  and  C_13
REMARK    8  A    between atoms: C_11  and  O_22
REMARK    9  A    between atoms: C_24  and  N_25
REMARK   10  A    between atoms: N_25  and  C_26
REMARK   11  A    between atoms: C_26  and  C_27
REMARK   12  A    between atoms: C_27  and  C_29
REMARK   13  A    between atoms: C_27  and  O_35
REMARK                            x       y       z     vdW  Elec       q    Type
REMARK                         _______ _______ _______ _____ _____    ______ ____
ROOT
ATOM      1  C   UNL     1      -1.120  -6.202   2.494  0.00  0.00    +0.163 A 
ATOM      2  C   UNL     1      -1.257  -4.823   2.523  0.00  0.00    +0.054 A 
ATOM      3  C   UNL     1      -0.154  -4.023   2.760  0.00  0.00    -0.029 A 
ATOM      4  C   UNL     1       1.085  -4.596   2.980  0.00  0.00    +0.024 A 
ATOM      5  C   UNL     1       1.227  -5.972   2.957  0.00  0.00    +0.063 A 
ATOM      6  C   UNL     1       0.126  -6.779   2.714  0.00  0.00    +0.176 A 
ATOM      7 BR   UNL     1       2.924  -6.752   3.257  0.00  0.00    -0.046 Br
ENDROOT
BRANCH   1   9
ATOM      8  C   UNL     1      -3.451  -6.327   2.037  0.00  0.00    +0.277 C 
ATOM      9  O   UNL     1      -2.203  -6.989   2.255  0.00  0.00    -0.491 OA
ENDBRANCH   1   9
BRANCH   6  10
ATOM     10  O   UNL     1       0.265  -8.132   2.691  0.00  0.00    -0.484 OA
BRANCH  10  11
ATOM     11  C   UNL     1       0.089  -8.823   3.930  0.00  0.00    +0.265 C 
BRANCH  11  12
ATOM     12  C   UNL     1       0.281 -10.325   3.707  0.00  0.00    +0.182 C 
BRANCH  12  13
ATOM     13  C   UNL     1       0.217 -11.041   5.032  0.00  0.00    -0.012 A 
ATOM     14  C   UNL     1      -1.007 -11.404   5.561  0.00  0.00    +0.010 A 
ATOM     15  C   UNL     1      -1.071 -12.065   6.774  0.00  0.00    +0.050 A 
ATOM     16  C   UNL     1       0.093 -12.356   7.466  0.00  0.00    +0.166 A 
ATOM     17  C   UNL     1       1.326 -11.986   6.936  0.00  0.00    +0.167 A 
ATOM     18  C   UNL     1       1.383 -11.328   5.718  0.00  0.00    +0.055 A 
ATOM     19  O   UNL     1       2.309 -12.379   7.798  0.00  0.00    -0.453 OA
ATOM     20  C   UNL     1       1.694 -13.354   8.661  0.00  0.00    +0.466 C 
ATOM     21  O   UNL     1       0.303 -12.983   8.661  0.00  0.00    -0.453 OA
ENDBRANCH  12  13
BRANCH  12  22
ATOM     22  O   UNL     1      -0.752 -10.815   2.850  0.00  0.00    -0.384 OA
ATOM     23  H   UNL     1      -0.779 -11.880   2.576  0.00  0.00    +0.210 HD
ENDBRANCH  12  22
ENDBRANCH  11  12
ENDBRANCH  10  11
ENDBRANCH   6  10
BRANCH   3  24
ATOM     24  C   UNL     1      -0.304  -2.524   2.786  0.00  0.00    +0.116 C 
BRANCH  24  25
ATOM     25  N   UNL     1      -0.089  -1.987   1.436  0.00  0.00    -0.309 NA
ATOM     26  H   UNL     1       0.923  -2.249   1.094  0.00  0.00    +0.122 HD
BRANCH  25  27
ATOM     27  C   UNL     1      -0.228  -0.525   1.422  0.00  0.00    +0.117 C 
BRANCH  27  28
ATOM     28  C   UNL     1       0.002  -0.004   0.002  0.00  0.00    +0.158 C 
BRANCH  28  29
ATOM     29  C   UNL     1      -0.018   1.503   0.010  0.00  0.00    -0.018 A 
ATOM     30  C   UNL     1      -1.225   2.178   0.020  0.00  0.00    +0.006 A 
ATOM     31  C   UNL     1      -1.244   3.560   0.032  0.00  0.00    +0.000 A 
ATOM     32  C   UNL     1      -0.056   4.267   0.025  0.00  0.00    +0.000 A 
ATOM     33  C   UNL     1       1.151   3.592   0.010  0.00  0.00    +0.000 A 
ATOM     34  C   UNL     1       1.169   2.210   0.003  0.00  0.00    +0.006 A 
ENDBRANCH  28  29
BRANCH  28  35
ATOM     35  O   UNL     1      -1.032  -0.490  -0.857  0.00  0.00    -0.386 OA
ATOM     36  H   UNL     1      -1.034  -0.218  -1.923  0.00  0.00    +0.210 HD
ENDBRANCH  28  35
ENDBRANCH  27  28
ENDBRANCH  25  27
ENDBRANCH  24  25
ENDBRANCH   3  24
TORSDOF 12
