REMARK  Name = ZINC56186572
REMARK  10 active torsions:
REMARK  status: ('A' for Active; 'I' for Inactive)
REMARK    1  A    between atoms: C_1  and  C_2
REMARK    2  A    between atoms: C_5  and  N_9
REMARK    3  A    between atoms: C_6  and  C_8
REMARK    4  A    between atoms: C_13  and  C_15
REMARK    5  A    between atoms: C_15  and  C_17
REMARK    6  A    between atoms: C_15  and  N_18
REMARK    7  A    between atoms: N_18  and  C_19
REMARK    8  A    between atoms: C_22  and  N_25
REMARK    9  A    between atoms: C_26  and  O_28
REMARK   10  A    between atoms: O_28  and  C_29
REMARK                            x       y       z     vdW  Elec       q    Type
REMARK                         _______ _______ _______ _____ _____    ______ ____
ROOT
ATOM      1  N   UNL     1       0.114  -4.214   0.033  0.00  0.00    -0.269 N 
ATOM      2  C   UNL     1       0.008  -4.874  -1.137  0.00  0.00    +0.310 C 
ATOM      3  O   UNL     1      -0.007  -4.257  -2.184  0.00  0.00    -0.252 OA
ATOM      4  N   UNL     1      -0.081  -6.219  -1.147  0.00  0.00    -0.238 N 
ATOM      5  C   UNL     1      -0.187  -6.880  -2.317  0.00  0.00    +0.240 C 
ATOM      6  O   UNL     1      -0.202  -6.264  -3.361  0.00  0.00    -0.273 OA
ATOM      7  H   UNL     1       0.193  -4.708   0.863  0.00  0.00    +0.156 HD
ATOM      8  H   UNL     1      -0.068  -6.711  -0.311  0.00  0.00    +0.159 HD
ENDROOT
BRANCH   1  13
ATOM      9  C   UNL     1       0.097   1.459   0.098  0.00  0.00    +0.044 C 
ATOM     10  C   UNL     1       0.102  -0.048   0.081  0.00  0.00    -0.050 A 
ATOM     11  C   UNL     1       0.694  -0.724  -0.971  0.00  0.00    +0.005 A 
ATOM     12  C   UNL     1       0.699  -2.105  -0.990  0.00  0.00    +0.024 A 
ATOM     13  C   UNL     1       0.111  -2.814   0.049  0.00  0.00    +0.038 A 
ATOM     14  C   UNL     1      -0.482  -2.133   1.103  0.00  0.00    -0.029 A 
ATOM     15  C   UNL     1      -0.481  -0.751   1.119  0.00  0.00    +0.008 A 
ATOM     16  C   UNL     1      -1.123  -2.899   2.232  0.00  0.00    +0.045 C 
ENDBRANCH   1  13
BRANCH   5  17
ATOM     17  C   UNL     1      -0.286  -8.383  -2.327  0.00  0.00    +0.154 C 
ATOM     18  C   UNL     1       0.963  -8.981  -1.677  0.00  0.00    +0.038 C 
BRANCH  17  19
ATOM     19  N   UNL     1      -0.392  -8.856  -3.709  0.00  0.00    -0.333 N 
ATOM     20  H   UNL     1      -0.039  -8.318  -4.434  0.00  0.00    +0.147 HD
BRANCH  19  21
ATOM     21  C   UNL     1      -1.001 -10.086  -3.983  0.00  0.00    +0.028 A 
ATOM     22  C   UNL     1      -1.511 -10.854  -2.946  0.00  0.00    +0.025 A 
ATOM     23  C   UNL     1      -2.113 -12.067  -3.216  0.00  0.00    +0.025 A 
ATOM     24  C   UNL     1      -2.208 -12.518  -4.526  0.00  0.00    +0.037 A 
ATOM     25  C   UNL     1      -1.698 -11.749  -5.564  0.00  0.00    +0.025 A 
ATOM     26  C   UNL     1      -1.101 -10.534  -5.294  0.00  0.00    +0.025 A 
BRANCH  24  27
ATOM     27  N   UNL     1      -2.819 -13.750  -4.801  0.00  0.00    -0.251 N 
ATOM     28  C   UNL     1      -3.870 -14.160  -4.064  0.00  0.00    +0.404 C 
ATOM     29  O   UNL     1      -4.236 -13.503  -3.110  0.00  0.00    -0.226 OA
ATOM     30  H   UNL     1      -2.485 -14.307  -5.521  0.00  0.00    +0.158 HD
BRANCH  28  31
ATOM     31  O   UNL     1      -4.514 -15.298  -4.385  0.00  0.00    -0.453 OA
ATOM     32  C   UNL     1      -5.620 -15.673  -3.560  0.00  0.00    +0.282 C 
ENDBRANCH  28  31
ENDBRANCH  24  27
ENDBRANCH  19  21
ENDBRANCH  17  19
ENDBRANCH   5  17
TORSDOF 6
