REMARK  Name = ZINC06890253
REMARK  4 active torsions:
REMARK  status: ('A' for Active; 'I' for Inactive)
REMARK    1  A    between atoms: C_4  and  C_7
REMARK    2  A    between atoms: C_13  and  C_15
REMARK    3  A    between atoms: C_15  and  C_18
REMARK    4  A    between atoms: N_16  and  O_17
REMARK                            x       y       z     vdW  Elec       q    Type
REMARK                         _______ _______ _______ _____ _____    ______ ____
ROOT
ATOM      1  C   UNL     1       3.576  -0.835   0.037  0.00  0.00    +0.038 C 
ATOM      2  C   UNL     1       3.658  -1.867   1.192  0.00  0.00    +0.028 C 
ATOM      3  C   UNL     1       4.675  -2.899   0.662  0.00  0.00    +0.109 C 
ATOM      4  N   UNL     1       4.695  -2.780  -0.803  0.00  0.00    -0.296 N 
ATOM      5  C   UNL     1       3.724  -1.746  -1.207  0.00  0.00    +0.116 C 
ATOM      6  C   UNL     1       5.473  -3.497  -1.639  0.00  0.00    +0.269 C 
ATOM      7  O   UNL     1       5.341  -3.379  -2.841  0.00  0.00    -0.268 OA
ENDROOT
BRANCH   1  11
ATOM      8  C   UNL     1      -0.201   1.161   0.028  0.00  0.00    +0.000 A 
ATOM      9  C   UNL     1       0.968   1.894   0.114  0.00  0.00    +0.000 A 
ATOM     10  C   UNL     1       2.190   1.248   0.116  0.00  0.00    +0.004 A 
ATOM     11  C   UNL     1       2.244  -0.131   0.035  0.00  0.00    -0.043 A 
ATOM     12  C   UNL     1       1.075  -0.864  -0.050  0.00  0.00    +0.004 A 
ATOM     13  C   UNL     1      -0.148  -0.218  -0.054  0.00  0.00    +0.000 A 
ENDBRANCH   1  11
BRANCH   6  14
ATOM     14  C   UNL     1       6.487  -4.427  -1.092  0.00  0.00    +0.171 C 
ATOM     15  N   UNL     1       6.150  -5.642  -0.771  0.00  0.00    -0.082 NA
BRANCH  14  16
ATOM     16  C   UNL     1       7.886  -3.974  -0.909  0.00  0.00    +0.009 A 
ATOM     17  C   UNL     1       8.274  -2.707  -1.345  0.00  0.00    +0.010 A 
ATOM     18  C   UNL     1       9.578  -2.290  -1.172  0.00  0.00    +0.001 A 
ATOM     19  C   UNL     1      10.500  -3.126  -0.567  0.00  0.00    +0.000 A 
ATOM     20  C   UNL     1      10.121  -4.384  -0.132  0.00  0.00    +0.001 A 
ATOM     21  C   UNL     1       8.819  -4.810  -0.295  0.00  0.00    +0.010 A 
ENDBRANCH  14  16
BRANCH  15  22
ATOM     22  O   UNL     1       4.842  -6.110  -1.046  0.00  0.00    -0.409 OA
ATOM     23  H   UNL     1       4.686  -7.024  -0.772  0.00  0.00    +0.328 HD
ENDBRANCH  15  22
ENDBRANCH   6  14
TORSDOF 4
