REMARK  Name = ZINC16012359
REMARK  4 active torsions:
REMARK  status: ('A' for Active; 'I' for Inactive)
REMARK    1  A    between atoms: C_1  and  C_2
REMARK    2  A    between atoms: C_16  and  C_19
REMARK    3  A    between atoms: C_19  and  C_20
REMARK    4  A    between atoms: N_28  and  C_31
REMARK                            x       y       z     vdW  Elec       q    Type
REMARK                         _______ _______ _______ _____ _____    ______ ____
ROOT
ATOM      1  C   UNL     1      -0.018   1.503   0.010  0.00  0.00    +0.047 C 
ATOM      2  C   UNL     1       0.002  -0.004   0.002  0.00  0.00    -0.011 A 
ATOM      3  C   UNL     1       0.006  -0.686  -1.199  0.00  0.00    +0.046 A 
ATOM      4  C   UNL     1       0.025  -2.069  -1.216  0.00  0.00    +0.021 A 
ATOM      5  C   UNL     1       0.041  -2.772  -0.024  0.00  0.00    +0.009 A 
ATOM      6  C   UNL     1       0.037  -2.096   1.175  0.00  0.00    +0.004 A 
ATOM      7  C   UNL     1       0.023  -0.705   1.205  0.00  0.00    +0.043 A 
ATOM      8  N   UNL     1       0.030  -0.250   2.526  0.00  0.00    -0.283 N 
ATOM      9  C   UNL     1       0.051  -1.264   3.412  0.00  0.00    +0.243 C 
ATOM     10  O   UNL     1       0.062  -1.169   4.621  0.00  0.00    -0.273 OA
ATOM     11  C   UNL     1       0.050  -2.537   2.611  0.00  0.00    +0.136 C 
ATOM     12  C   UNL     1      -1.162  -3.417   2.941  0.00  0.00    +0.122 C 
ATOM     13  C   UNL     1      -0.622  -4.872   2.863  0.00  0.00    +0.107 C 
ATOM     14  C   UNL     1       0.860  -4.724   2.458  0.00  0.00    +0.072 C 
ATOM     15  N   UNL     1       1.239  -3.354   2.917  0.00  0.00    -0.295 NA
ATOM     16  C   UNL     1      -0.719  -5.358   4.291  0.00  0.00    +0.227 C 
ATOM     17  O   UNL     1      -0.384  -6.455   4.682  0.00  0.00    -0.275 OA
ATOM     18  N   UNL     1      -1.233  -4.388   5.056  0.00  0.00    -0.238 N 
ATOM     19  C   UNL     1      -1.532  -3.245   4.397  0.00  0.00    +0.228 C 
ATOM     20  O   UNL     1      -2.014  -2.244   4.884  0.00  0.00    -0.275 OA
ATOM     21 CL   UNL     1      -0.014   0.197  -2.694  0.00  0.00    -0.083 Cl
ATOM     22  H   UNL     1       0.020   0.688   2.775  0.00  0.00    +0.155 HD
ATOM     23  H   UNL     1       2.046  -3.019   2.412  0.00  0.00    +0.124 HD
ENDROOT
BRANCH  18  24
ATOM     24  C   UNL     1      -1.460  -4.550   6.495  0.00  0.00    +0.084 C 
ATOM     25  C   UNL     1      -0.131  -4.851   7.190  0.00  0.00    +0.023 C 
ATOM     26  C   UNL     1      -0.368  -5.021   8.692  0.00  0.00    +0.002 C 
ATOM     27  C   UNL     1      -1.341  -6.179   8.927  0.00  0.00    +0.000 C 
ATOM     28  C   UNL     1      -2.670  -5.878   8.232  0.00  0.00    +0.002 C 
ATOM     29  C   UNL     1      -2.432  -5.708   6.730  0.00  0.00    +0.023 C 
ENDBRANCH  18  24
BRANCH  14  30
ATOM     30  C   UNL     1       1.716  -5.768   3.179  0.00  0.00    +0.054 C 
BRANCH  30  31
ATOM     31  C   UNL     1       3.135  -5.686   2.679  0.00  0.00    -0.046 A 
ATOM     32  C   UNL     1       3.529  -6.443   1.592  0.00  0.00    +0.004 A 
ATOM     33  C   UNL     1       4.831  -6.368   1.133  0.00  0.00    +0.000 A 
ATOM     34  C   UNL     1       5.739  -5.536   1.762  0.00  0.00    +0.000 A 
ATOM     35  C   UNL     1       5.344  -4.778   2.848  0.00  0.00    +0.000 A 
ATOM     36  C   UNL     1       4.041  -4.849   3.304  0.00  0.00    +0.004 A 
ENDBRANCH  30  31
ENDBRANCH  14  30
TORSDOF 3
