REMARK  Name = ZINC10059075
REMARK  4 active torsions:
REMARK  status: ('A' for Active; 'I' for Inactive)
REMARK    1  A    between atoms: C_4  and  C_7
REMARK    2  A    between atoms: C_10  and  C_33
REMARK    3  A    between atoms: N_12  and  C_13
REMARK    4  A    between atoms: C_16  and  C_19
REMARK                            x       y       z     vdW  Elec       q    Type
REMARK                         _______ _______ _______ _____ _____    ______ ____
ROOT
ATOM      1  C   UNL     1      -2.804   5.604  -3.821  0.00  0.00    +0.052 A 
ATOM      2  C   UNL     1      -3.066   6.336  -2.668  0.00  0.00    +0.025 A 
ATOM      3  C   UNL     1      -2.930   5.741  -1.429  0.00  0.00    +0.009 A 
ATOM      4  C   UNL     1      -2.534   4.419  -1.335  0.00  0.00    -0.005 A 
ATOM      5  C   UNL     1      -2.266   3.690  -2.479  0.00  0.00    +0.009 A 
ATOM      6  C   UNL     1      -2.405   4.277  -3.721  0.00  0.00    +0.025 A 
ENDROOT
BRANCH   4   7
ATOM      7  C   UNL     1      -2.386   3.774   0.019  0.00  0.00    +0.217 C 
ATOM      8  C   UNL     1      -1.211   1.637   0.017  0.00  0.00    +0.159 C 
ATOM      9  N   UNL     1      -2.381   0.900   0.018  0.00  0.00    -0.259 N 
ATOM     10  C   UNL     1      -3.554   1.589   0.294  0.00  0.00    +0.205 A 
ATOM     11  N   UNL     1      -3.573   2.967   0.304  0.00  0.00    -0.287 N 
ATOM     12  C   UNL     1      -4.847   3.349   0.610  0.00  0.00    +0.072 A 
ATOM     13  C   UNL     1      -5.450   4.592   0.764  0.00  0.00    +0.028 A 
ATOM     14  C   UNL     1      -6.798   4.604   1.084  0.00  0.00    +0.002 A 
ATOM     15  C   UNL     1      -7.524   3.437   1.247  0.00  0.00    +0.002 A 
ATOM     16  C   UNL     1      -6.947   2.188   1.100  0.00  0.00    +0.030 A 
ATOM     17  C   UNL     1      -5.587   2.151   0.777  0.00  0.00    +0.091 A 
ATOM     18  N   UNL     1      -4.740   1.123   0.568  0.00  0.00    -0.214 NA
ATOM     19  N   UNL     1      -0.011   0.966   0.007  0.00  0.00    -0.332 N 
ATOM     20  H   UNL     1      -2.381  -0.052  -0.164  0.00  0.00    +0.158 HD
ATOM     21  H   UNL     1       0.002  -0.004   0.002  0.00  0.00    +0.145 HD
ATOM     22  H   UNL     1       0.822   1.462   0.002  0.00  0.00    +0.145 HD
ATOM     23  N   UNL     1      -1.103   2.972   0.031  0.00  0.00    -0.337 N 
ATOM     24  H   UNL     1      -0.185   3.433   0.049  0.00  0.00    +0.164 HD
ENDBRANCH   4   7
BRANCH   1  29
ATOM     25  C   UNL     1      -2.695   5.544  -6.367  0.00  0.00    +0.134 C 
ATOM     26  C   UNL     1      -2.994   6.650  -7.398  0.00  0.00    +0.087 C 
ATOM     27  C   UNL     1      -3.385   7.841  -6.553  0.00  0.00    +0.069 C 
ATOM     28  N   UNL     1      -3.337   7.517  -5.306  0.00  0.00    -0.183 NA
ATOM     29  N   UNL     1      -2.940   6.202  -5.074  0.00  0.00    -0.216 N 
BRANCH  25  33
ATOM     30  C   UNL     1       1.373   4.274  -6.661  0.00  0.00    +0.000 A 
ATOM     31  C   UNL     1       0.363   3.479  -7.168  0.00  0.00    +0.000 A 
ATOM     32  C   UNL     1      -0.954   3.890  -7.073  0.00  0.00    +0.005 A 
ATOM     33  C   UNL     1      -1.260   5.096  -6.471  0.00  0.00    -0.025 A 
ATOM     34  C   UNL     1      -0.249   5.894  -5.968  0.00  0.00    +0.005 A 
ATOM     35  C   UNL     1       1.067   5.481  -6.059  0.00  0.00    +0.000 A 
ENDBRANCH  25  33
BRANCH  27  36
ATOM     36  C   UNL     1      -3.768   9.166  -7.074  0.00  0.00    -0.002 A 
ATOM     37  C   UNL     1      -3.784   9.400  -8.451  0.00  0.00    +0.010 A 
ATOM     38  C   UNL     1      -4.149  10.640  -8.932  0.00  0.00    +0.001 A 
ATOM     39  C   UNL     1      -4.487  11.654  -8.053  0.00  0.00    +0.000 A 
ATOM     40  C   UNL     1      -4.468  11.431  -6.688  0.00  0.00    +0.001 A 
ATOM     41  C   UNL     1      -4.110  10.194  -6.193  0.00  0.00    +0.010 A 
ENDBRANCH  27  36
ENDBRANCH   1  29
TORSDOF 4
