REMARK  Name = ZINC38090412
REMARK  8 active torsions:
REMARK  status: ('A' for Active; 'I' for Inactive)
REMARK    1  A    between atoms: C_1  and  C_2
REMARK    2  A    between atoms: N_8  and  S_9
REMARK    3  A    between atoms: S_9  and  N_12
REMARK    4  A    between atoms: N_12  and  C_13
REMARK    5  A    between atoms: N_12  and  C_14
REMARK    6  A    between atoms: C_14  and  C_16
REMARK    7  A    between atoms: C_14  and  C_17
REMARK    8  A    between atoms: C_20  and  O_23
REMARK                            x       y       z     vdW  Elec       q    Type
REMARK                         _______ _______ _______ _____ _____    ______ ____
ROOT
ATOM      1  N   UNL     1       0.421   0.918   3.247  0.00  0.00    -0.162 NA
ATOM      2  C   UNL     1       0.921  -0.089   4.186  0.00  0.00    +0.133 C 
ENDROOT
BRANCH   1   3
ATOM      3  S   UNL     1       1.229   1.204   1.830  0.00  0.00    +0.100 S 
ATOM      4  O   UNL     1       2.510   0.604   1.965  0.00  0.00    -0.141 OA
ATOM      5  O   UNL     1       1.061   2.584   1.538  0.00  0.00    -0.141 OA
BRANCH   3  12
ATOM      6  C   UNL     1       2.041  -1.418   1.135  0.00  0.00    +0.026 C 
ATOM      7  C   UNL     1       0.800  -1.022   0.333  0.00  0.00    +0.078 C 
ATOM      8  C   UNL     1       1.099  -1.139  -1.165  0.00  0.00    +0.020 C 
ATOM      9  C   UNL     1      -0.097  -0.611  -1.962  0.00  0.00    +0.003 C 
ATOM     10  C   UNL     1      -0.322   0.865  -1.628  0.00  0.00    +0.017 C 
ATOM     11  C   UNL     1      -0.637   1.005  -0.135  0.00  0.00    +0.111 C 
ATOM     12  N   UNL     1       0.438   0.368   0.639  0.00  0.00    -0.164 NA
ENDBRANCH   3  12
ENDBRANCH   1   3
BRANCH   1  13
ATOM     13  C   UNL     1      -0.794   1.673   3.562  0.00  0.00    +0.107 C 
ATOM     14  C   UNL     1      -1.930   0.700   3.885  0.00  0.00    +0.031 C 
BRANCH  13  15
ATOM     15  C   UNL     1      -0.540   2.561   4.753  0.00  0.00    -0.029 A 
ATOM     16  C   UNL     1      -0.001   2.027   5.910  0.00  0.00    +0.009 A 
ATOM     17  C   UNL     1       0.233   2.838   7.003  0.00  0.00    +0.046 A 
ATOM     18  C   UNL     1      -0.072   4.190   6.940  0.00  0.00    +0.117 A 
ATOM     19  C   UNL     1      -0.612   4.724   5.778  0.00  0.00    +0.046 A 
ATOM     20  C   UNL     1      -0.839   3.909   4.686  0.00  0.00    +0.009 A 
BRANCH  18  21
ATOM     21  O   UNL     1       0.157   4.991   8.014  0.00  0.00    -0.507 OA
ATOM     22  H   UNL     1       1.036   5.392   8.025  0.00  0.00    +0.292 HD
ENDBRANCH  18  21
ENDBRANCH  13  15
ENDBRANCH   1  13
TORSDOF 5
