REMARK  Name = ZINC21526710
REMARK  9 active torsions:
REMARK  status: ('A' for Active; 'I' for Inactive)
REMARK    1  A    between atoms: C_1  and  C_2
REMARK    2  A    between atoms: C_2  and  C_26
REMARK    3  A    between atoms: N_14  and  C_15
REMARK    4  A    between atoms: C_15  and  C_16
REMARK    5  A    between atoms: C_16  and  C_17
REMARK    6  A    between atoms: C_17  and  N_18
REMARK    7  A    between atoms: N_18  and  C_19
REMARK    8  A    between atoms: N_18  and  C_20
REMARK    9  A    between atoms: N_28  and  C_29
REMARK                            x       y       z     vdW  Elec       q    Type
REMARK                         _______ _______ _______ _____ _____    ______ ____
ROOT
ATOM      1  C   UNL     1       3.669   2.054   0.419  0.00  0.00    +0.043 C 
ATOM      2  C   UNL     1       2.324   1.379   0.699  0.00  0.00    +0.128 C 
ATOM      3  C   UNL     1       1.221   2.174   0.002  0.00  0.00    +0.157 C 
ATOM      4  N   UNL     1      -0.017   1.389   0.010  0.00  0.00    -0.331 N 
ATOM      5  C   UNL     1      -1.315   1.801   0.015  0.00  0.00    +0.088 A 
ATOM      6  C   UNL     1      -2.194   2.910   0.031  0.00  0.00    +0.067 A 
ATOM      7  C   UNL     1      -3.448   2.426   0.020  0.00  0.00    +0.198 A 
ATOM      8  O   UNL     1      -3.410   1.083  -0.002  0.00  0.00    -0.461 OA
ATOM      9  C   UNL     1      -2.126   0.666  -0.002  0.00  0.00    +0.153 A 
ATOM     10  C   UNL     1      -1.284  -0.457  -0.013  0.00  0.00    +0.079 A 
ATOM     11  C   UNL     1       0.002  -0.004   0.002  0.00  0.00    +0.109 A 
ATOM     12  C   UNL     1       1.273  -0.738   0.020  0.00  0.00    +0.264 C 
ATOM     13  O   UNL     1       1.321  -1.941  -0.160  0.00  0.00    -0.268 OA
ATOM     14  N   UNL     1       2.389  -0.006   0.246  0.00  0.00    -0.281 N 
ENDROOT
BRANCH   2  15
ATOM     15  C   UNL     1       2.072   1.394   2.184  0.00  0.00    +0.238 C 
ATOM     16  O   UNL     1       2.573   2.255   2.876  0.00  0.00    -0.273 OA
ATOM     17  N   UNL     1       1.289   0.451   2.744  0.00  0.00    -0.311 N 
ATOM     18  H   UNL     1       0.834  -0.330   2.117  0.00  0.00    +0.149 HD
BRANCH  17  19
ATOM     19  C   UNL     1       1.044   0.465   4.189  0.00  0.00    +0.073 C 
ATOM     20  C   UNL     1       2.233  -0.206   4.904  0.00  0.00    +0.022 C 
ATOM     21  C   UNL     1       2.245   0.246   6.339  0.00  0.00    +0.002 C 
ATOM     22  C   UNL     1       1.503  -0.731   7.271  0.00  0.00    +0.000 C 
ATOM     23  C   UNL     1       0.190  -1.258   6.661  0.00  0.00    +0.000 C 
ATOM     24  C   UNL     1      -0.590  -0.181   5.956  0.00  0.00    +0.002 C 
ATOM     25  C   UNL     1      -0.218  -0.208   4.459  0.00  0.00    +0.022 C 
ENDBRANCH  17  19
ENDBRANCH   2  15
BRANCH  14  26
ATOM     26  C   UNL     1       3.700  -0.622   0.028  0.00  0.00    +0.107 C 
BRANCH  26  27
ATOM     27  C   UNL     1       4.140  -0.388  -1.419  0.00  0.00    +0.000 C 
BRANCH  27  28
ATOM     28  C   UNL     1       5.509  -1.032  -1.646  0.00  0.00    -0.077 C 
BRANCH  28  29
ATOM     29  N   UNL     1       5.931  -0.808  -3.035  0.00  0.00    +0.380 N 
ATOM     30  C   UNL     1       5.052  -1.517  -3.973  0.00  0.00    -0.096 C 
ATOM     31  H   UNL     1       5.850   0.269  -3.243  0.00  0.00    -0.082 HD
BRANCH  29  32
ATOM     32  C   UNL     1       7.334  -1.200  -3.228  0.00  0.00    -0.069 C 
ATOM     33  C   UNL     1       8.228  -0.371  -2.304  0.00  0.00    -0.015 C 
ATOM     34  C   UNL     1       9.688  -0.779  -2.506  0.00  0.00    -0.002 C 
ATOM     35  C   UNL     1      10.091  -0.532  -3.961  0.00  0.00    -0.000 C 
ATOM     36  C   UNL     1       9.197  -1.361  -4.886  0.00  0.00    -0.002 C 
ATOM     37  C   UNL     1       7.736  -0.952  -4.684  0.00  0.00    -0.015 C 
ENDBRANCH  29  32
ENDBRANCH  28  29
ENDBRANCH  27  28
ENDBRANCH  26  27
ENDBRANCH  14  26
TORSDOF 7
