REMARK  Name = ZINC39677379
REMARK  8 active torsions:
REMARK  status: ('A' for Active; 'I' for Inactive)
REMARK    1  A    between atoms: C_1  and  C_2
REMARK    2  A    between atoms: C_2  and  C_3
REMARK    3  A    between atoms: C_3  and  C_4
REMARK    4  A    between atoms: C_4  and  C_6
REMARK    5  A    between atoms: C_4  and  C_7
REMARK    6  A    between atoms: C_11  and  C_20
REMARK    7  A    between atoms: N_22  and  C_23
REMARK    8  A    between atoms: C_23  and  C_24
REMARK                            x       y       z     vdW  Elec       q    Type
REMARK                         _______ _______ _______ _____ _____    ______ ____
ROOT
ATOM      1  C   UNL     1       1.661  -2.557   2.537  0.00  0.00    +0.218 C 
ATOM      2  O   UNL     1       2.241  -1.790   3.274  0.00  0.00    -0.275 OA
ATOM      3  N   UNL     1       1.829  -3.887   2.680  0.00  0.00    -0.300 N 
ATOM      4  C   UNL     1       1.216  -4.972   1.878  0.00  0.00    +0.121 C 
ATOM      5  C   UNL     1       2.342  -6.016   1.709  0.00  0.00    +0.100 C 
ATOM      6  C   UNL     1       3.292  -5.765   2.892  0.00  0.00    -0.004 C 
ATOM      7  C   UNL     1       2.675  -4.594   3.671  0.00  0.00    +0.115 C 
ATOM      8  C   UNL     1       4.678  -5.380   2.384  0.00  0.00    -0.010 C 
ATOM      9  C   UNL     1       5.619  -5.191   3.577  0.00  0.00    -0.082 C 
ATOM     10  N   UNL     1       5.688  -6.436   4.351  0.00  0.00    +0.379 N 
ATOM     11  C   UNL     1       4.369  -6.750   4.913  0.00  0.00    -0.082 C 
ATOM     12  C   UNL     1       3.374  -7.005   3.777  0.00  0.00    -0.010 C 
ATOM     13  H   UNL     1       5.982  -7.190   3.748  0.00  0.00    -0.086 HD
ATOM     14  H   UNL     1       6.355  -6.329   5.100  0.00  0.00    -0.086 HD
ENDROOT
BRANCH   5  15
ATOM     15  C   UNL     1       1.777  -7.412   1.774  0.00  0.00    +0.218 C 
ATOM     16  O   UNL     1       0.796  -7.638   2.451  0.00  0.00    -0.275 OA
ATOM     17  N   UNL     1       2.362  -8.409   1.082  0.00  0.00    -0.311 N 
ATOM     18  H   UNL     1       3.147  -8.228   0.541  0.00  0.00    +0.149 HD
BRANCH  17  19
ATOM     19  C   UNL     1       1.813  -9.766   1.145  0.00  0.00    +0.139 C 
BRANCH  19  20
ATOM     20  C   UNL     1       2.645 -10.685   0.288  0.00  0.00    -0.027 A 
ATOM     21  C   UNL     1       2.326 -10.861  -1.046  0.00  0.00    +0.009 A 
ATOM     22  C   UNL     1       3.085 -11.704  -1.835  0.00  0.00    +0.050 A 
ATOM     23  C   UNL     1       4.170 -12.376  -1.290  0.00  0.00    +0.162 A 
ATOM     24  C   UNL     1       4.492 -12.197   0.050  0.00  0.00    +0.162 A 
ATOM     25  C   UNL     1       3.728 -11.346   0.835  0.00  0.00    +0.054 A 
ATOM     26  O   UNL     1       5.556 -12.840   0.602  0.00  0.00    -0.485 OA
ATOM     27  C   UNL     1       6.075 -13.963  -0.119  0.00  0.00    +0.270 C 
ATOM     28  C   UNL     1       6.204 -13.568  -1.596  0.00  0.00    +0.270 C 
ATOM     29  O   UNL     1       4.906 -13.206  -2.079  0.00  0.00    -0.485 OA
ENDBRANCH  19  20
ENDBRANCH  17  19
ENDBRANCH   5  15
BRANCH   1  30
ATOM     30  C   UNL     1       0.750  -2.025   1.460  0.00  0.00    +0.072 C 
ATOM     31  C   UNL     1      -0.667  -2.556   1.683  0.00  0.00    +0.017 C 
BRANCH  30  32
ATOM     32  C   UNL     1       0.737  -0.496   1.514  0.00  0.00    +0.012 C 
BRANCH  32  34
ATOM     33  C   UNL     1      -0.100   1.577   0.399  0.00  0.00    +0.004 C 
ATOM     34  C   UNL     1      -0.087   0.048   0.345  0.00  0.00    -0.003 C 
ENDBRANCH  32  34
ENDBRANCH  30  32
ENDBRANCH   1  30
TORSDOF 6
