REMARK  Name = ZINC67059406
REMARK  8 active torsions:
REMARK  status: ('A' for Active; 'I' for Inactive)
REMARK    1  A    between atoms: C_1  and  N_2
REMARK    2  A    between atoms: N_2  and  C_3
REMARK    3  A    between atoms: C_6  and  C_10
REMARK    4  A    between atoms: C_10  and  N_11
REMARK    5  A    between atoms: N_14  and  N_15
REMARK    6  A    between atoms: C_16  and  C_18
REMARK    7  A    between atoms: C_18  and  C_19
REMARK    8  A    between atoms: C_19  and  C_20
REMARK                            x       y       z     vdW  Elec       q    Type
REMARK                         _______ _______ _______ _____ _____    ______ ____
ROOT
ATOM      1  N   UNL     1      -1.351  -4.764  -2.463  0.00  0.00    -0.294 N 
ATOM      2  C   UNL     1      -1.585  -6.091  -2.499  0.00  0.00    +0.316 C 
ATOM      3  O   UNL     1      -0.653  -6.872  -2.529  0.00  0.00    -0.251 OA
ATOM      4  N   UNL     1      -2.851  -6.552  -2.503  0.00  0.00    -0.218 N 
ATOM      5  H   UNL     1      -2.094  -4.141  -2.439  0.00  0.00    +0.151 HD
ATOM      6  H   UNL     1      -3.019  -7.507  -2.530  0.00  0.00    +0.174 HD
ENDROOT
BRANCH   4   7
ATOM      7  N   UNL     1      -3.924  -5.653  -2.469  0.00  0.00    -0.233 N 
ATOM      8  C   UNL     1      -5.191  -6.114  -2.473  0.00  0.00    +0.229 C 
ATOM      9  O   UNL     1      -5.401  -7.308  -2.506  0.00  0.00    -0.274 OA
ATOM     10  H   UNL     1      -3.756  -4.698  -2.442  0.00  0.00    +0.173 HD
BRANCH   8  11
ATOM     11  C   UNL     1      -6.345  -5.147  -2.436  0.00  0.00    +0.097 C 
BRANCH  11  12
ATOM     12  C   UNL     1      -7.663  -5.925  -2.448  0.00  0.00    +0.013 C 
BRANCH  12  13
ATOM     13  C   UNL     1      -8.835  -4.942  -2.411  0.00  0.00    -0.011 C 
ATOM     14  C   UNL     1      -8.825  -4.186  -1.081  0.00  0.00    +0.003 C 
ATOM     15  C   UNL     1      -9.997  -3.203  -1.044  0.00  0.00    +0.000 C 
ATOM     16  C   UNL     1     -11.312  -3.973  -1.182  0.00  0.00    +0.000 C 
ATOM     17  C   UNL     1     -11.323  -4.730  -2.512  0.00  0.00    +0.000 C 
ATOM     18  C   UNL     1     -10.150  -5.712  -2.549  0.00  0.00    +0.003 C 
ENDBRANCH  12  13
ENDBRANCH  11  12
ENDBRANCH   8  11
ENDBRANCH   4   7
BRANCH   1  19
ATOM     19  C   UNL     1       0.025  -4.262  -2.458  0.00  0.00    +0.141 C 
BRANCH  19  25
ATOM     20  C   UNL     1      -0.018   1.461   0.010  0.00  0.00    +0.130 C 
ATOM     21  N   UNL     1       0.002  -0.004   0.002  0.00  0.00    -0.323 N 
ATOM     22  C   UNL     1       0.024  -0.743   1.267  0.00  0.00    +0.130 C 
ATOM     23  C   UNL     1       0.000  -0.693  -1.206  0.00  0.00    +0.098 A 
ATOM     24  C   UNL     1       0.013  -2.084  -1.206  0.00  0.00    +0.047 A 
ATOM     25  C   UNL     1       0.011  -2.756  -2.415  0.00  0.00    -0.026 A 
ATOM     26  C   UNL     1      -0.004  -2.012  -3.587  0.00  0.00    +0.023 A 
ATOM     27  C   UNL     1      -0.017  -0.633  -3.513  0.00  0.00    +0.084 A 
ATOM     28  N   UNL     1      -0.020  -0.019  -2.345  0.00  0.00    -0.350 N 
ATOM     29  H   UNL     1      -0.033   0.951  -2.321  0.00  0.00    +0.166 HD
ENDBRANCH  19  25
ENDBRANCH   1  19
TORSDOF 6
