REMARK  Name = ZINC20213360
REMARK  7 active torsions:
REMARK  status: ('A' for Active; 'I' for Inactive)
REMARK    1  A    between atoms: C_1  and  C_2
REMARK    2  A    between atoms: C_2  and  O_3
REMARK    3  A    between atoms: O_3  and  C_4
REMARK    4  A    between atoms: C_9  and  N_12
REMARK    5  A    between atoms: C_18  and  C_23
REMARK    6  A    between atoms: C_30  and  C_37
REMARK    7  A    between atoms: C_32  and  O_33
REMARK                            x       y       z     vdW  Elec       q    Type
REMARK                         _______ _______ _______ _____ _____    ______ ____
ROOT
ATOM      1  N   UNL     1       4.577   0.743  -0.061  0.00  0.00    -0.231 N 
ATOM      2  C   UNL     1       3.827  -0.374  -0.068  0.00  0.00    +0.254 C 
ATOM      3  O   UNL     1       4.250  -1.512  -0.090  0.00  0.00    -0.270 OA
ATOM      4  C   UNL     1       2.399   0.018  -0.045  0.00  0.00    +0.049 A 
ATOM      5  C   UNL     1       1.206  -0.687  -0.042  0.00  0.00    +0.014 A 
ATOM      6  C   UNL     1       0.002  -0.004  -0.017  0.00  0.00    +0.014 A 
ATOM      7  C   UNL     1      -0.017   1.390   0.004  0.00  0.00    +0.038 A 
ATOM      8  C   UNL     1       1.182   2.108   0.001  0.00  0.00    +0.027 A 
ATOM      9  C   UNL     1       2.387   1.427  -0.024  0.00  0.00    +0.050 A 
ATOM     10  C   UNL     1       3.806   1.845  -0.035  0.00  0.00    +0.254 C 
ATOM     11  O   UNL     1       4.207   2.990  -0.023  0.00  0.00    -0.270 OA
ENDROOT
BRANCH   7  12
ATOM     12  C   UNL     1      -1.309   2.111   0.024  0.00  0.00    +0.248 C 
ATOM     13  O   UNL     1      -1.327   3.326   0.042  0.00  0.00    -0.270 OA
ATOM     14  N   UNL     1      -2.466   1.420   0.021  0.00  0.00    -0.281 N 
ATOM     15  C   UNL     1      -3.681   2.095   0.136  0.00  0.00    +0.037 A 
ATOM     16  C   UNL     1      -4.736   1.506   0.834  0.00  0.00    +0.024 A 
ATOM     17  C   UNL     1      -5.929   2.157   0.959  0.00  0.00    +0.013 A 
ATOM     18  C   UNL     1      -6.099   3.417   0.374  0.00  0.00    +0.021 A 
ATOM     19  C   UNL     1      -7.371   4.135   0.488  0.00  0.00    -0.033 A 
ATOM     20  C   UNL     1      -7.474   5.354  -0.101  0.00  0.00    +0.091 A 
ATOM     21  C   UNL     1      -6.373   5.893  -0.798  0.00  0.00    +0.285 A 
ATOM     22  O   UNL     1      -5.210   5.230  -0.898  0.00  0.00    -0.425 OA
ATOM     23  C   UNL     1      -5.041   4.013  -0.336  0.00  0.00    +0.141 A 
ATOM     24  C   UNL     1      -3.833   3.342  -0.450  0.00  0.00    +0.070 A 
ATOM     25  C   UNL     1      -8.533   3.536   1.238  0.00  0.00    +0.045 C 
ATOM     26  H   UNL     1      -2.452   0.324  -0.071  0.00  0.00    +0.155 HD
BRANCH  21  27
ATOM     27  O   UNL     1      -6.479   6.987  -1.321  0.00  0.00    -0.480 OA
ATOM     28  H   UNL     1      -5.628   7.420  -1.868  0.00  0.00    +0.295 HD
ENDBRANCH  21  27
ENDBRANCH   7  12
BRANCH   1  34
ATOM     29  C   UNL     1       9.494  -1.467  -0.153  0.00  0.00    +0.403 C 
ATOM     30  O   UNL     1       9.914  -1.934   0.887  0.00  0.00    -0.226 OA
ATOM     31  N   UNL     1       8.591  -0.467  -0.127  0.00  0.00    -0.267 N 
ATOM     32  C   UNL     1       8.105   0.069   1.151  0.00  0.00    +0.113 C 
ATOM     33  C   UNL     1       6.573   0.022   1.155  0.00  0.00    +0.042 C 
ATOM     34  C   UNL     1       6.042   0.757  -0.078  0.00  0.00    +0.088 C 
ATOM     35  C   UNL     1       6.543   0.060  -1.345  0.00  0.00    +0.042 C 
ATOM     36  C   UNL     1       8.074   0.108  -1.377  0.00  0.00    +0.113 C 
BRANCH  29  37
ATOM     37  O   UNL     1       9.932  -1.948  -1.332  0.00  0.00    -0.451 OA
BRANCH  37  39
ATOM     38  C   UNL     1      11.279  -3.438  -2.709  0.00  0.00    +0.048 C 
ATOM     39  C   UNL     1      10.904  -3.026  -1.284  0.00  0.00    +0.230 C 
ENDBRANCH  37  39
ENDBRANCH  29  37
ENDBRANCH   1  34
TORSDOF 5
