REMARK  Name = ZINC36618840
REMARK  7 active torsions:
REMARK  status: ('A' for Active; 'I' for Inactive)
REMARK    1  A    between atoms: C_1  and  C_2
REMARK    2  A    between atoms: C_2  and  O_3
REMARK    3  A    between atoms: O_3  and  C_4
REMARK    4  A    between atoms: C_9  and  C_10
REMARK    5  A    between atoms: C_14  and  C_24
REMARK    6  A    between atoms: C_19  and  N_23
REMARK    7  A    between atoms: C_20  and  C_21
REMARK                            x       y       z     vdW  Elec       q    Type
REMARK                         _______ _______ _______ _____ _____    ______ ____
ROOT
ATOM      1  C   UNL     1       2.118  -1.624   3.450  0.00  0.00    +0.086 C 
ATOM      2  C   UNL     1       3.644  -1.742   3.535  0.00  0.00    +0.140 C 
ATOM      3  C   UNL     1       4.311  -0.838   2.524  0.00  0.00    +0.085 C 
ATOM      4  N   UNL     1       4.988   0.039   3.215  0.00  0.00    -0.150 NA
ATOM      5  N   UNL     1       4.833  -0.136   4.590  0.00  0.00    -0.115 NA
ATOM      6  C   UNL     1       4.036  -1.121   4.873  0.00  0.00    +0.227 C 
ATOM      7  O   UNL     1       3.509  -1.568   6.034  0.00  0.00    -0.425 OA
ATOM      8  C   UNL     1       2.198  -1.912   5.957  0.00  0.00    +0.200 C 
ATOM      9  C   UNL     1       1.520  -1.958   4.790  0.00  0.00    +0.095 C 
ENDROOT
BRANCH   3  10
ATOM     10  C   UNL     1       4.217  -0.929   1.059  0.00  0.00    +0.017 A 
ATOM     11  C   UNL     1       3.602   0.093   0.329  0.00  0.00    +0.011 A 
ATOM     12  C   UNL     1       3.518   0.001  -1.044  0.00  0.00    +0.001 A 
ATOM     13  C   UNL     1       4.040  -1.100  -1.701  0.00  0.00    +0.001 A 
ATOM     14  C   UNL     1       4.650  -2.116  -0.988  0.00  0.00    +0.020 A 
ATOM     15  C   UNL     1       4.748  -2.036   0.387  0.00  0.00    +0.050 A 
ATOM     16 CL   UNL     1       5.520  -3.308   1.280  0.00  0.00    -0.083 Cl
ENDBRANCH   3  10
BRANCH   1  22
ATOM     17  C   UNL     1       0.889  -2.106   1.317  0.00  0.00    +0.124 A 
ATOM     18  C   UNL     1       0.414  -2.991   0.361  0.00  0.00    +0.046 A 
ATOM     19  C   UNL     1       0.640  -4.346   0.503  0.00  0.00    +0.004 A 
ATOM     20  C   UNL     1       1.340  -4.821   1.598  0.00  0.00    +0.001 A 
ATOM     21  C   UNL     1       1.814  -3.940   2.553  0.00  0.00    +0.008 A 
ATOM     22  C   UNL     1       1.595  -2.583   2.412  0.00  0.00    +0.004 A 
BRANCH  17  23
ATOM     23  O   UNL     1       0.668  -0.772   1.180  0.00  0.00    -0.492 OA
BRANCH  23  25
ATOM     24  C   UNL     1      -0.213   1.171   0.045  0.00  0.00    +0.048 C 
ATOM     25  C   UNL     1      -0.066  -0.351   0.028  0.00  0.00    +0.225 C 
ENDBRANCH  23  25
ENDBRANCH  17  23
ENDBRANCH   1  22
BRANCH   8  26
ATOM     26  N   UNL     1       1.532  -2.225   7.116  0.00  0.00    -0.328 N 
ATOM     27  H   UNL     1       1.998  -2.197   7.966  0.00  0.00    +0.145 HD
ATOM     28  H   UNL     1       0.594  -2.473   7.084  0.00  0.00    +0.145 HD
ENDBRANCH   8  26
BRANCH   9  29
ATOM     29  C   UNL     1       0.144  -2.352   4.829  0.00  0.00    +0.100 C 
ATOM     30  N   UNL     1      -0.947  -2.665   4.861  0.00  0.00    -0.191 NA
ENDBRANCH   9  29
TORSDOF 6
