REMARK  Name = ZINC13513810
REMARK  10 active torsions:
REMARK  status: ('A' for Active; 'I' for Inactive)
REMARK    1  A    between atoms: C_1  and  C_2
REMARK    2  A    between atoms: C_2  and  N_3
REMARK    3  A    between atoms: N_3  and  C_4
REMARK    4  A    between atoms: N_3  and  C_6
REMARK    5  A    between atoms: C_4  and  C_5
REMARK    6  A    between atoms: C_6  and  C_7
REMARK    7  A    between atoms: C_7  and  N_8
REMARK    8  A    between atoms: C_9  and  C_28
REMARK    9  A    between atoms: C_11  and  C_16
REMARK   10  A    between atoms: C_16  and  C_18
REMARK                            x       y       z     vdW  Elec       q    Type
REMARK                         _______ _______ _______ _____ _____    ______ ____
ROOT
ATOM      1  N   UNL     1      -1.461  -2.309  -0.852  0.00  0.00    -0.285 N 
ATOM      2  C   UNL     1      -2.569  -2.640  -1.756  0.00  0.00    +0.145 C 
ATOM      3  C   UNL     1      -3.724  -3.052  -0.872  0.00  0.00    +0.076 C 
ATOM      4  C   UNL     1      -3.291  -2.956   0.406  0.00  0.00    +0.249 C 
ATOM      5  C   UNL     1      -1.885  -2.500   0.410  0.00  0.00    +0.288 C 
ATOM      6  O   UNL     1      -1.212  -2.321   1.406  0.00  0.00    -0.266 OA
ATOM      7  O   UNL     1      -4.026  -3.238   1.506  0.00  0.00    -0.282 OA
ENDROOT
BRANCH   2   8
ATOM      8  C   UNL     1      -2.176  -3.779  -2.662  0.00  0.00    -0.021 A 
ATOM      9  C   UNL     1      -2.522  -3.748  -4.000  0.00  0.00    +0.006 A 
ATOM     10  C   UNL     1      -2.162  -4.791  -4.832  0.00  0.00    +0.002 A 
ATOM     11  C   UNL     1      -1.456  -5.866  -4.326  0.00  0.00    +0.020 A 
ATOM     12  C   UNL     1      -1.109  -5.898  -2.987  0.00  0.00    +0.041 A 
ATOM     13  C   UNL     1      -1.466  -4.851  -2.156  0.00  0.00    +0.025 A 
ATOM     14 CL   UNL     1      -0.222  -7.248  -2.351  0.00  0.00    -0.084 Cl
ENDBRANCH   2   8
BRANCH   3  15
ATOM     15  C   UNL     1      -5.056  -3.474  -1.315  0.00  0.00    +0.195 C 
ATOM     16  O   UNL     1      -5.441  -4.607  -1.090  0.00  0.00    -0.287 OA
BRANCH  15  17
ATOM     17  C   UNL     1      -5.930  -2.526  -2.033  0.00  0.00    +0.026 A 
ATOM     18  C   UNL     1      -5.541  -1.192  -2.186  0.00  0.00    +0.015 A 
ATOM     19  C   UNL     1      -6.357  -0.311  -2.860  0.00  0.00    +0.050 A 
ATOM     20  C   UNL     1      -7.573  -0.740  -3.381  0.00  0.00    +0.162 A 
ATOM     21  C   UNL     1      -7.968  -2.068  -3.230  0.00  0.00    +0.163 A 
ATOM     22  C   UNL     1      -7.151  -2.958  -2.558  0.00  0.00    +0.061 A 
ATOM     23  O   UNL     1      -9.151  -2.505  -3.742  0.00  0.00    -0.485 OA
ATOM     24  C   UNL     1     -10.113  -1.502  -4.087  0.00  0.00    +0.270 C 
ATOM     25  C   UNL     1      -9.393  -0.396  -4.870  0.00  0.00    +0.270 C 
ATOM     26  O   UNL     1      -8.366   0.149  -4.035  0.00  0.00    -0.485 OA
ENDBRANCH  15  17
ENDBRANCH   3  15
BRANCH   1  27
ATOM     27  C   UNL     1      -0.127  -1.857  -1.254  0.00  0.00    +0.090 C 
BRANCH  27  28
ATOM     28  C   UNL     1      -0.112  -0.329  -1.345  0.00  0.00    -0.060 C 
BRANCH  28  29
ATOM     29  N   UNL     1       1.226   0.124  -1.748  0.00  0.00    +0.380 N 
ATOM     30  H   UNL     1       1.511  -0.428  -2.655  0.00  0.00    -0.082 HD
BRANCH  29  32
ATOM     31  C   UNL     1       0.584   1.762  -3.451  0.00  0.00    -0.017 C 
ATOM     32  C   UNL     1       1.220   1.556  -2.075  0.00  0.00    -0.082 C 
ENDBRANCH  29  32
BRANCH  29  33
ATOM     33  C   UNL     1       2.219  -0.174  -0.707  0.00  0.00    -0.082 C 
ATOM     34  C   UNL     1       3.626  -0.070  -1.299  0.00  0.00    -0.017 C 
ENDBRANCH  29  33
ENDBRANCH  28  29
ENDBRANCH  27  28
ENDBRANCH   1  27
TORSDOF 8
