REMARK  Name = ZINC63181010
REMARK  10 active torsions:
REMARK  status: ('A' for Active; 'I' for Inactive)
REMARK    1  A    between atoms: C_1  and  C_2
REMARK    2  A    between atoms: C_6  and  N_8
REMARK    3  A    between atoms: C_9  and  C_29
REMARK    4  A    between atoms: C_12  and  S_13
REMARK    5  A    between atoms: S_13  and  C_14
REMARK    6  A    between atoms: C_14  and  C_15
REMARK    7  A    between atoms: N_17  and  C_18
REMARK    8  A    between atoms: C_21  and  C_24
REMARK    9  A    between atoms: N_26  and  C_27
REMARK   10  A    between atoms: N_26  and  C_28
REMARK                            x       y       z     vdW  Elec       q    Type
REMARK                         _______ _______ _______ _____ _____    ______ ____
ROOT
ATOM      1  N   UNL     1      -0.243  -2.157   2.768  0.00  0.00    -0.270 N 
ATOM      2  C   UNL     1      -1.235  -2.994   3.253  0.00  0.00    +0.168 A 
ATOM      3  N   UNL     1      -0.770  -3.538   4.368  0.00  0.00    -0.128 NA
ATOM      4  N   UNL     1       0.417  -3.105   4.602  0.00  0.00    -0.122 NA
ATOM      5  C   UNL     1       0.791  -2.261   3.651  0.00  0.00    +0.197 A 
ENDROOT
BRANCH   2   6
ATOM      6  C   UNL     1      -2.493  -3.221   2.674  0.00  0.00    +0.025 C 
ATOM      7  C   UNL     1      -3.503  -4.056   3.152  0.00  0.00    +0.006 A 
ATOM      8  C   UNL     1      -3.595  -4.887   4.289  0.00  0.00    +0.010 A 
ATOM      9  C   UNL     1      -4.727  -5.604   4.510  0.00  0.00    +0.001 A 
ATOM     10  C   UNL     1      -5.814  -5.542   3.636  0.00  0.00    +0.002 A 
ATOM     11  C   UNL     1      -5.795  -4.766   2.525  0.00  0.00    +0.026 A 
ATOM     12  C   UNL     1      -4.647  -3.987   2.228  0.00  0.00    +0.043 A 
ATOM     13  N   UNL     1      -4.384  -3.166   1.230  0.00  0.00    -0.380 N 
ATOM     14  C   UNL     1      -3.039  -2.608   1.403  0.00  0.00    +0.152 C 
ATOM     15  H   UNL     1      -4.986  -2.961   0.498  0.00  0.00    +0.160 HD
ENDBRANCH   2   6
BRANCH   1  21
ATOM     16  C   UNL     1      -0.259   2.288   0.664  0.00  0.00    +0.044 C 
ATOM     17  C   UNL     1      -0.299   0.785   0.561  0.00  0.00    -0.048 A 
ATOM     18  C   UNL     1      -0.383   0.180  -0.680  0.00  0.00    +0.003 A 
ATOM     19  C   UNL     1      -0.419  -1.199  -0.779  0.00  0.00    +0.002 A 
ATOM     20  C   UNL     1      -0.373  -1.976   0.362  0.00  0.00    +0.026 A 
ATOM     21  C   UNL     1      -0.290  -1.371   1.609  0.00  0.00    +0.051 A 
ATOM     22  C   UNL     1      -0.247   0.013   1.705  0.00  0.00    +0.029 A 
ENDBRANCH   1  21
BRANCH   5  23
ATOM     23  S   UNL     1       2.338  -1.424   3.549  0.00  0.00    -0.076 S 
BRANCH  23  24
ATOM     24  C   UNL     1       3.244  -1.997   5.012  0.00  0.00    +0.173 C 
BRANCH  24  25
ATOM     25  C   UNL     1       4.604  -1.348   5.047  0.00  0.00    +0.227 C 
ATOM     26  O   UNL     1       4.930  -0.576   4.170  0.00  0.00    -0.275 OA
ATOM     27  N   UNL     1       5.458  -1.627   6.051  0.00  0.00    -0.285 N 
ATOM     28  H   UNL     1       5.174  -2.190   6.788  0.00  0.00    +0.155 HD
BRANCH  27  29
ATOM     29  C   UNL     1       6.751  -1.104   6.032  0.00  0.00    +0.033 A 
ATOM     30  C   UNL     1       6.978   0.169   5.519  0.00  0.00    +0.024 A 
ATOM     31  C   UNL     1       8.252   0.688   5.499  0.00  0.00    +0.015 A 
ATOM     32  C   UNL     1       9.320  -0.065   5.995  0.00  0.00    +0.037 A 
ATOM     33  C   UNL     1       9.089  -1.344   6.510  0.00  0.00    +0.015 A 
ATOM     34  C   UNL     1       7.811  -1.855   6.532  0.00  0.00    +0.024 A 
BRANCH  32  35
ATOM     35  C   UNL     1      10.688   0.487   5.974  0.00  0.00    +0.246 C 
ATOM     36  O   UNL     1      11.486   0.168   6.835  0.00  0.00    -0.270 OA
ATOM     37  N   UNL     1      11.053   1.346   5.002  0.00  0.00    -0.304 N 
ATOM     38  C   UNL     1      12.370   1.986   5.046  0.00  0.00    +0.132 C 
ATOM     39  C   UNL     1      10.133   1.639   3.900  0.00  0.00    +0.132 C 
ENDBRANCH  32  35
ENDBRANCH  27  29
ENDBRANCH  24  25
ENDBRANCH  23  24
ENDBRANCH   5  23
TORSDOF 7
