REMARK  Name = ZINC48687918
REMARK  5 active torsions:
REMARK  status: ('A' for Active; 'I' for Inactive)
REMARK    1  A    between atoms: C_1  and  C_2
REMARK    2  A    between atoms: C_7  and  N_12
REMARK    3  A    between atoms: C_9  and  C_11
REMARK    4  A    between atoms: C_13  and  C_15
REMARK    5  A    between atoms: N_17  and  C_18
REMARK                            x       y       z     vdW  Elec       q    Type
REMARK                         _______ _______ _______ _____ _____    ______ ____
ROOT
ATOM      1  C   UNL     1       1.930  -4.250   4.116  0.00  0.00    +0.303 C 
ATOM      2  O   UNL     1       2.762  -3.549   4.655  0.00  0.00    -0.265 OA
ATOM      3  N   UNL     1       1.665  -5.478   4.605  0.00  0.00    -0.278 N 
ATOM      4  H   UNL     1       0.954  -6.011   4.216  0.00  0.00    +0.155 HD
ENDROOT
BRANCH   3   5
ATOM      5  C   UNL     1       2.413  -5.982   5.673  0.00  0.00    +0.038 A 
ATOM      6  C   UNL     1       2.857  -5.128   6.674  0.00  0.00    +0.027 A 
ATOM      7  C   UNL     1       3.597  -5.625   7.731  0.00  0.00    +0.051 A 
ATOM      8  C   UNL     1       3.898  -6.974   7.793  0.00  0.00    +0.167 A 
ATOM      9  C   UNL     1       3.453  -7.835   6.789  0.00  0.00    +0.169 A 
ATOM     10  C   UNL     1       2.708  -7.338   5.735  0.00  0.00    +0.073 A 
ATOM     11  O   UNL     1       3.881  -9.102   7.088  0.00  0.00    -0.447 OA
ATOM     12  C   UNL     1       4.980  -8.890   7.985  0.00  0.00    +0.254 C 
ATOM     13  O   UNL     1       4.601  -7.712   8.710  0.00  0.00    -0.448 OA
ATOM     14  C   UNL     1       5.170 -10.084   8.926  0.00  0.00    +0.093 C 
ATOM     15  C   UNL     1       6.334 -10.885   8.285  0.00  0.00    +0.008 C 
ATOM     16  C   UNL     1       7.263  -9.769   7.742  0.00  0.00    +0.008 C 
ATOM     17  C   UNL     1       6.291  -8.683   7.226  0.00  0.00    +0.093 C 
ENDBRANCH   3   5
BRANCH   1  19
ATOM     18  N   UNL     1       1.468  -2.524   2.423  0.00  0.00    -0.304 N 
ATOM     19  C   UNL     1       1.202  -3.752   2.911  0.00  0.00    +0.300 C 
ATOM     20  O   UNL     1       0.371  -4.453   2.372  0.00  0.00    -0.265 OA
ATOM     21  H   UNL     1       2.132  -1.964   2.854  0.00  0.00    +0.149 HD
BRANCH  18  27
ATOM     22  C   UNL     1      -0.024   1.534   0.025  0.00  0.00    +0.008 C 
ATOM     23  C   UNL     1      -0.009   0.004   0.015  0.00  0.00    -0.009 C 
ATOM     24  C   UNL     1       0.698  -0.491  -1.248  0.00  0.00    +0.003 C 
ATOM     25  C   UNL     1       0.713  -2.021  -1.258  0.00  0.00    +0.002 C 
ATOM     26  C   UNL     1       1.459  -2.531  -0.023  0.00  0.00    +0.022 C 
ATOM     27  C   UNL     1       0.753  -2.036   1.241  0.00  0.00    +0.076 C 
ATOM     28  C   UNL     1       0.738  -0.506   1.250  0.00  0.00    +0.009 C 
ATOM     29  C   UNL     1       0.032  -0.011   2.514  0.00  0.00    +0.009 C 
ENDBRANCH  18  27
ENDBRANCH   1  19
TORSDOF 3
