REMARK  Name = ZINC22635676
REMARK  6 active torsions:
REMARK  status: ('A' for Active; 'I' for Inactive)
REMARK    1  A    between atoms: C_1  and  C_2
REMARK    2  A    between atoms: C_2  and  C_3
REMARK    3  A    between atoms: C_2  and  N_4
REMARK    4  A    between atoms: C_12  and  O_29
REMARK    5  A    between atoms: C_14  and  C_17
REMARK    6  A    between atoms: C_20  and  C_22
REMARK                            x       y       z     vdW  Elec       q    Type
REMARK                         _______ _______ _______ _____ _____    ______ ____
ROOT
ATOM      1  N   UNL     1       5.763  -5.041   6.831  0.00  0.00    +0.384 N 
ATOM      2  C   UNL     1       6.608  -3.898   6.456  0.00  0.00    -0.073 C 
ATOM      3  C   UNL     1       7.178  -4.104   5.050  0.00  0.00    +0.018 C 
ATOM      4  C   UNL     1       6.023  -4.433   4.111  0.00  0.00    -0.027 A 
ATOM      5  C   UNL     1       4.836  -4.844   4.618  0.00  0.00    -0.021 A 
ATOM      6  S   UNL     1       3.802  -5.105   3.203  0.00  0.00    -0.080 S 
ATOM      7  C   UNL     1       4.918  -4.678   1.977  0.00  0.00    +0.080 A 
ATOM      8  C   UNL     1       6.090  -4.338   2.666  0.00  0.00    +0.067 A 
ATOM      9  C   UNL     1       7.260  -3.923   1.849  0.00  0.00    +0.220 C 
ATOM     10  N   UNL     1       7.058  -3.669   0.585  0.00  0.00    -0.220 NA
ATOM     11  C   UNL     1       5.757  -3.700  -0.071  0.00  0.00    +0.260 C 
ATOM     12  N   UNL     1       4.830  -4.625   0.609  0.00  0.00    -0.311 N 
ATOM     13  C   UNL     1       4.503  -5.030   6.065  0.00  0.00    -0.035 C 
ATOM     14  H   UNL     1       4.120  -5.223   0.019  0.00  0.00    +0.149 HD
ATOM     15  H   UNL     1       6.310  -5.963   6.586  0.00  0.00    -0.081 HD
ENDROOT
BRANCH  11  16
ATOM     16  C   UNL     1       5.166  -2.314  -0.058  0.00  0.00    +0.148 A 
ATOM     17  C   UNL     1       5.865  -1.163  -0.059  0.00  0.00    +0.049 A 
ATOM     18  C   UNL     1       4.927  -0.110  -0.045  0.00  0.00    +0.050 A 
ATOM     19  C   UNL     1       3.695  -0.684  -0.036  0.00  0.00    +0.135 A 
ATOM     20  O   UNL     1       3.855  -2.022  -0.039  0.00  0.00    -0.456 OA
BRANCH  19  21
ATOM     21  C   UNL     1       2.404   0.035  -0.021  0.00  0.00    +0.017 A 
ATOM     22  C   UNL     1       1.204  -0.680  -0.013  0.00  0.00    +0.014 A 
ATOM     23  C   UNL     1       0.002  -0.004   0.002  0.00  0.00    +0.039 A 
ATOM     24  C   UNL     1      -0.017   1.382   0.010  0.00  0.00    +0.123 A 
ATOM     25  C   UNL     1       1.171   2.096   0.002  0.00  0.00    +0.039 A 
ATOM     26  C   UNL     1       2.379   1.430  -0.013  0.00  0.00    +0.014 A 
ATOM     27  F   UNL     1      -1.197   2.039   0.019  0.00  0.00    -0.205 F 
ENDBRANCH  19  21
ENDBRANCH  11  16
BRANCH   1  29
ATOM     28  C   UNL     1       4.728  -3.786   8.662  0.00  0.00    -0.014 C 
ATOM     29  C   UNL     1       5.500  -5.049   8.276  0.00  0.00    -0.074 C 
ATOM     30  C   UNL     1       4.671  -6.284   8.637  0.00  0.00    -0.014 C 
ENDBRANCH   1  29
BRANCH   9  31
ATOM     31  O   UNL     1       8.492  -3.811   2.397  0.00  0.00    -0.492 OA
ATOM     32  H   UNL     1       9.345  -3.502   1.775  0.00  0.00    +0.294 HD
ENDBRANCH   9  31
TORSDOF 4
