REMARK  Name = ZINC64701217
REMARK  11 active torsions:
REMARK  status: ('A' for Active; 'I' for Inactive)
REMARK    1  A    between atoms: C_1  and  C_2
REMARK    2  A    between atoms: C_4  and  C_35
REMARK    3  A    between atoms: C_5  and  N_9
REMARK    4  A    between atoms: C_6  and  C_8
REMARK    5  A    between atoms: C_10  and  C_12
REMARK    6  A    between atoms: C_12  and  S_13
REMARK    7  A    between atoms: S_13  and  C_14
REMARK    8  A    between atoms: C_24  and  C_26
REMARK    9  A    between atoms: C_29  and  C_32
REMARK   10  A    between atoms: C_32  and  C_33
REMARK   11  A    between atoms: C_32  and  C_34
REMARK                            x       y       z     vdW  Elec       q    Type
REMARK                         _______ _______ _______ _____ _____    ______ ____
ROOT
ATOM      1  C   UNL     1      -0.747  -8.897   2.088  0.00  0.00    +0.272 C 
ATOM      2  N   UNL     1      -2.074  -9.064   1.468  0.00  0.00    -0.163 NA
ATOM      3  N   UNL     1      -2.328  -9.931   0.628  0.00  0.00    -0.081 NA
ATOM      4  C   UNL     1      -1.428 -10.854   0.204  0.00  0.00    +0.276 C 
ATOM      5  O   UNL     1      -1.675 -11.618  -0.699  0.00  0.00    -0.270 OA
ATOM      6  C   UNL     1      -0.111 -10.873   0.918  0.00  0.00    +0.193 C 
ATOM      7  N   UNL     1       0.226  -9.433   1.160  0.00  0.00    -0.178 NA
ATOM      8  N   UNL     1       1.543  -9.528   1.455  0.00  0.00    -0.274 N 
ATOM      9  C   UNL     1       2.064 -10.429   0.495  0.00  0.00    +0.047 C 
ATOM     10  C   UNL     1       1.084 -11.306   0.113  0.00  0.00    +0.027 C 
ATOM     11  H   UNL     1       2.025  -9.077   2.166  0.00  0.00    +0.167 HD
ENDROOT
BRANCH   9  12
ATOM     12  C   UNL     1       3.456 -10.433  -0.008  0.00  0.00    -0.003 A 
ATOM     13  C   UNL     1       3.853 -11.370  -0.962  0.00  0.00    +0.010 A 
ATOM     14  C   UNL     1       5.152 -11.368  -1.428  0.00  0.00    +0.004 A 
ATOM     15  C   UNL     1       6.060 -10.440  -0.950  0.00  0.00    -0.045 A 
ATOM     16  C   UNL     1       5.672  -9.509  -0.004  0.00  0.00    +0.004 A 
ATOM     17  C   UNL     1       4.375  -9.496   0.465  0.00  0.00    +0.010 A 
BRANCH  15  18
ATOM     18  C   UNL     1       7.478 -10.445  -1.462  0.00  0.00    +0.013 C 
ATOM     19  C   UNL     1       7.787  -9.098  -2.119  0.00  0.00    +0.012 C 
ATOM     20  C   UNL     1       8.440 -10.677  -0.295  0.00  0.00    +0.012 C 
ENDBRANCH  15  18
ENDBRANCH   9  12
BRANCH   1  21
ATOM     21  S   UNL     1      -0.418  -7.138   2.382  0.00  0.00    -0.107 S 
BRANCH  21  22
ATOM     22  C   UNL     1      -0.526  -6.390   0.733  0.00  0.00    +0.168 C 
BRANCH  22  24
ATOM     23  N   UNL     1      -0.299  -4.141  -0.272  0.00  0.00    -0.284 N 
ATOM     24  C   UNL     1      -0.270  -4.908   0.836  0.00  0.00    +0.227 C 
ATOM     25  O   UNL     1      -0.036  -4.407   1.915  0.00  0.00    -0.275 OA
ATOM     26  H   UNL     1      -0.421  -4.551  -1.143  0.00  0.00    +0.155 HD
BRANCH  23  31
ATOM     27  C   UNL     1       0.286   1.486   0.157  0.00  0.00    +0.044 C 
ATOM     28  C   UNL     1       0.130  -0.009   0.043  0.00  0.00    -0.050 A 
ATOM     29  C   UNL     1       1.121  -0.844   0.526  0.00  0.00    +0.008 A 
ATOM     30  C   UNL     1       0.982  -2.215   0.423  0.00  0.00    -0.029 A 
ATOM     31  C   UNL     1      -0.155  -2.753  -0.166  0.00  0.00    +0.039 A 
ATOM     32  C   UNL     1      -1.148  -1.911  -0.649  0.00  0.00    -0.029 A 
ATOM     33  C   UNL     1      -1.005  -0.542  -0.539  0.00  0.00    +0.008 A 
ATOM     34  C   UNL     1      -2.383  -2.491  -1.289  0.00  0.00    +0.045 C 
ATOM     35  C   UNL     1       2.062  -3.124   0.949  0.00  0.00    +0.045 C 
ENDBRANCH  23  31
ENDBRANCH  22  24
ENDBRANCH  21  22
ENDBRANCH   1  21
TORSDOF 6
