REMARK  Name = ZINC46720950
REMARK  5 active torsions:
REMARK  status: ('A' for Active; 'I' for Inactive)
REMARK    1  A    between atoms: C_1  and  C_2
REMARK    2  A    between atoms: C_8  and  N_10
REMARK    3  A    between atoms: C_14  and  C_16
REMARK    4  A    between atoms: C_16  and  N_17
REMARK    5  A    between atoms: C_21  and  C_24
REMARK                            x       y       z     vdW  Elec       q    Type
REMARK                         _______ _______ _______ _____ _____    ______ ____
ROOT
ATOM      1  C   UNL     1       0.083   1.145   7.106  0.00  0.00    +0.019 C 
ENDROOT
BRANCH   1   6
ATOM      2  N   UNL     1       0.056  -0.038   2.447  0.00  0.00    -0.296 N 
ATOM      3  C   UNL     1       0.738   0.093   3.602  0.00  0.00    +0.306 C 
ATOM      4  O   UNL     1       1.921  -0.180   3.644  0.00  0.00    -0.252 OA
ATOM      5  N   UNL     1       0.107   0.528   4.711  0.00  0.00    -0.242 N 
ATOM      6  C   UNL     1       0.789   0.659   5.866  0.00  0.00    +0.204 C 
ATOM      7  O   UNL     1       1.969   0.387   5.908  0.00  0.00    -0.277 OA
ATOM      8  H   UNL     1      -0.888   0.180   2.413  0.00  0.00    +0.151 HD
ATOM      9  H   UNL     1      -0.838   0.746   4.678  0.00  0.00    +0.159 HD
BRANCH   2  16
ATOM     10  C   UNL     1      -0.019   1.526   0.010  0.00  0.00    +0.009 C 
ATOM     11  C   UNL     1       0.002  -0.004   0.002  0.00  0.00    +0.006 C 
ATOM     12  C   UNL     1      -1.433  -0.534   0.013  0.00  0.00    +0.005 C 
ATOM     13  C   UNL     1      -1.413  -2.063   0.004  0.00  0.00    +0.000 C 
ATOM     14  C   UNL     1      -0.673  -2.570   1.244  0.00  0.00    +0.002 C 
ATOM     15  C   UNL     1       0.763  -2.041   1.233  0.00  0.00    +0.022 C 
ATOM     16  C   UNL     1       0.742  -0.511   1.242  0.00  0.00    +0.077 C 
ENDBRANCH   2  16
ENDBRANCH   1   6
BRANCH   1  17
ATOM     17  N   UNL     1       1.037   1.202   8.222  0.00  0.00    +0.386 N 
ATOM     18  C   UNL     1       1.501  -0.155   8.536  0.00  0.00    -0.078 C 
ATOM     19  C   UNL     1       2.556  -0.094   9.643  0.00  0.00    -0.018 C 
ATOM     20  C   UNL     1       1.939   0.538  10.894  0.00  0.00    +0.009 C 
ATOM     21  C   UNL     1       1.391   1.923  10.537  0.00  0.00    +0.059 C 
ATOM     22  C   UNL     1       0.380   1.787   9.396  0.00  0.00    -0.065 C 
ATOM     23  H   UNL     1       1.827   1.773   7.960  0.00  0.00    -0.081 HD
BRANCH  21  24
ATOM     24  C   UNL     1       0.714   2.522  11.742  0.00  0.00    +0.198 A 
ATOM     25  N   UNL     1      -0.298   1.996  12.364  0.00  0.00    -0.213 NA
ATOM     26  C   UNL     1      -0.645   2.806  13.400  0.00  0.00    +0.110 A 
ATOM     27  C   UNL     1      -1.633   2.746  14.384  0.00  0.00    +0.031 A 
ATOM     28  C   UNL     1      -1.728   3.752  15.320  0.00  0.00    +0.002 A 
ATOM     29  C   UNL     1      -0.848   4.824  15.289  0.00  0.00    +0.004 A 
ATOM     30  C   UNL     1       0.133   4.897  14.323  0.00  0.00    +0.048 A 
ATOM     31  C   UNL     1       0.243   3.892  13.374  0.00  0.00    +0.155 A 
ATOM     32  O   UNL     1       1.074   3.674  12.331  0.00  0.00    -0.440 OA
ENDBRANCH  21  24
ENDBRANCH   1  17
TORSDOF 4
