REMARK  Name = ZINC36019089
REMARK  12 active torsions:
REMARK  status: ('A' for Active; 'I' for Inactive)
REMARK    1  A    between atoms: C_1  and  C_2
REMARK    2  A    between atoms: C_2  and  C_3
REMARK    3  A    between atoms: C_3  and  N_4
REMARK    4  A    between atoms: N_10  and  C_13
REMARK    5  A    between atoms: C_13  and  C_14
REMARK    6  A    between atoms: C_15  and  C_32
REMARK    7  A    between atoms: C_16  and  C_24
REMARK    8  A    between atoms: N_21  and  C_22
REMARK    9  A    between atoms: C_22  and  C_23
REMARK   10  A    between atoms: C_32  and  O_34
REMARK   11  A    between atoms: O_34  and  C_35
REMARK   12  A    between atoms: C_35  and  C_36
REMARK                            x       y       z     vdW  Elec       q    Type
REMARK                         _______ _______ _______ _____ _____    ______ ____
ROOT
ATOM      1  C   UNL     1      -3.244  -8.881   1.246  0.00  0.00    +0.041 C 
ATOM      2  C   UNL     1      -3.270 -10.173   0.852  0.00  0.00    +0.080 C 
ATOM      3  C   UNL     1      -4.624 -10.817   0.635  0.00  0.00    +0.144 C 
ATOM      4  N   UNL     1      -5.809  -9.977   0.875  0.00  0.00    -0.288 N 
ATOM      5  C   UNL     1      -5.622  -8.701   1.268  0.00  0.00    +0.307 C 
ATOM      6  O   UNL     1      -6.594  -7.999   1.468  0.00  0.00    -0.252 OA
ATOM      7  N   UNL     1      -4.400  -8.183   1.449  0.00  0.00    -0.258 N 
ATOM      8  H   UNL     1      -6.703 -10.332   0.753  0.00  0.00    +0.151 HD
ENDROOT
BRANCH   3   9
ATOM      9  C   UNL     1      -4.716 -12.019   1.540  0.00  0.00    -0.021 A 
ATOM     10  C   UNL     1      -5.031 -11.854   2.877  0.00  0.00    +0.007 A 
ATOM     11  C   UNL     1      -5.116 -12.955   3.708  0.00  0.00    +0.022 A 
ATOM     12  C   UNL     1      -4.886 -14.222   3.203  0.00  0.00    +0.059 A 
ATOM     13  C   UNL     1      -4.572 -14.387   1.865  0.00  0.00    +0.060 A 
ATOM     14  C   UNL     1      -4.492 -13.284   1.033  0.00  0.00    +0.027 A 
ATOM     15 CL   UNL     1      -4.283 -15.977   1.230  0.00  0.00    -0.082 Cl
ATOM     16 CL   UNL     1      -4.992 -15.605   4.247  0.00  0.00    -0.082 Cl
ENDBRANCH   3   9
BRANCH   7  17
ATOM     17  C   UNL     1      -4.298  -6.788   1.883  0.00  0.00    +0.111 C 
ATOM     18  C   UNL     1      -4.363  -5.868   0.662  0.00  0.00    +0.025 C 
ENDBRANCH   7  17
BRANCH   2  19
ATOM     19  C   UNL     1      -2.073 -10.899   0.647  0.00  0.00    +0.339 C 
ATOM     20  O   UNL     1      -1.003 -10.405   0.950  0.00  0.00    -0.245 OA
BRANCH  19  21
ATOM     21  O   UNL     1      -2.119 -12.138   0.114  0.00  0.00    -0.462 OA
BRANCH  21  22
ATOM     22  C   UNL     1      -0.872 -12.813  -0.065  0.00  0.00    +0.229 C 
ATOM     23  C   UNL     1      -1.122 -14.193  -0.675  0.00  0.00    +0.048 C 
ENDBRANCH  21  22
ENDBRANCH  19  21
ENDBRANCH   2  19
BRANCH   1  24
ATOM     24  C   UNL     1      -1.919  -8.202   1.473  0.00  0.00    +0.136 C 
BRANCH  24  31
ATOM     25  N   UNL     1       1.127 -10.131   6.439  0.00  0.00    -0.299 N 
ATOM     26  C   UNL     1       0.906  -8.857   6.060  0.00  0.00    +0.302 C 
ATOM     27  O   UNL     1       1.645  -7.971   6.443  0.00  0.00    -0.253 OA
ATOM     28  N   UNL     1      -0.135  -8.565   5.255  0.00  0.00    -0.283 N 
ATOM     29  C   UNL     1      -0.328  -7.202   4.736  0.00  0.00    +0.124 C 
ATOM     30  C   UNL     1      -0.512  -7.282   3.216  0.00  0.00    +0.104 C 
ATOM     31  N   UNL     1      -1.595  -8.225   2.906  0.00  0.00    -0.294 NA
ATOM     32  C   UNL     1      -1.261  -9.585   3.348  0.00  0.00    +0.104 C 
ATOM     33  C   UNL     1      -1.105  -9.601   4.868  0.00  0.00    +0.124 C 
ATOM     34  H   UNL     1       0.496 -10.826   6.195  0.00  0.00    +0.150 HD
BRANCH  25  35
ATOM     35  C   UNL     1       2.319 -10.466   7.222  0.00  0.00    +0.105 C 
BRANCH  35  37
ATOM     36  C   UNL     1       3.575 -12.316   8.336  0.00  0.00    +0.005 C 
ATOM     37  C   UNL     1       2.330 -11.967   7.519  0.00  0.00    +0.015 C 
ENDBRANCH  35  37
ENDBRANCH  25  35
ENDBRANCH  24  31
ENDBRANCH   1  24
TORSDOF 9
