REMARK  Name = ZINC63229087
REMARK  12 active torsions:
REMARK  status: ('A' for Active; 'I' for Inactive)
REMARK    1  A    between atoms: C_1  and  C_2
REMARK    2  A    between atoms: C_2  and  C_3
REMARK    3  A    between atoms: C_3  and  O_4
REMARK    4  A    between atoms: O_4  and  C_5
REMARK    5  A    between atoms: C_8  and  C_13
REMARK    6  A    between atoms: C_10  and  O_11
REMARK    7  A    between atoms: O_11  and  C_12
REMARK    8  A    between atoms: C_25  and  C_29
REMARK    9  A    between atoms: C_33  and  O_37
REMARK   10  A    between atoms: C_34  and  O_35
REMARK   11  A    between atoms: O_35  and  C_36
REMARK   12  A    between atoms: O_37  and  C_38
REMARK                            x       y       z     vdW  Elec       q    Type
REMARK                         _______ _______ _______ _____ _____    ______ ____
ROOT
ATOM      1  C   UNL     1       3.349  -4.483   5.547  0.00  0.00    +0.111 C 
ATOM      2  C   UNL     1       4.864  -4.453   5.329  0.00  0.00    +0.128 C 
ATOM      3  C   UNL     1       5.489  -4.998   6.609  0.00  0.00    -0.028 C 
ATOM      4  C   UNL     1       6.287  -5.992   6.242  0.00  0.00    -0.000 A 
ATOM      5  C   UNL     1       7.215  -6.839   7.008  0.00  0.00    +0.010 A 
ATOM      6  C   UNL     1       7.879  -7.792   6.302  0.00  0.00    +0.001 A 
ATOM      7  C   UNL     1       7.715  -7.984   4.927  0.00  0.00    +0.002 A 
ATOM      8  C   UNL     1       6.888  -7.248   4.143  0.00  0.00    +0.026 A 
ATOM      9  C   UNL     1       6.139  -6.211   4.771  0.00  0.00    +0.043 A 
ATOM     10  N   UNL     1       5.295  -5.341   4.251  0.00  0.00    -0.376 N 
ATOM     11  C   UNL     1       5.097  -4.472   7.968  0.00  0.00    +0.065 C 
ATOM     12  C   UNL     1       3.558  -4.446   7.991  0.00  0.00    +0.094 C 
ATOM     13  N   UNL     1       3.046  -3.768   6.797  0.00  0.00    -0.307 NA
ATOM     14  H   UNL     1       3.373  -2.814   6.755  0.00  0.00    +0.123 HD
ATOM     15  H   UNL     1       5.004  -5.293   3.326  0.00  0.00    +0.160 HD
ENDROOT
BRANCH   1  19
ATOM     16  C   UNL     1       1.386  -2.554   2.274  0.00  0.00    +0.162 A 
ATOM     17  C   UNL     1       1.962  -1.799   3.283  0.00  0.00    +0.050 A 
ATOM     18  C   UNL     1       2.595  -2.425   4.340  0.00  0.00    +0.009 A 
ATOM     19  C   UNL     1       2.656  -3.805   4.393  0.00  0.00    -0.024 A 
ATOM     20  C   UNL     1       2.084  -4.565   3.389  0.00  0.00    +0.054 A 
ATOM     21  C   UNL     1       1.442  -3.944   2.330  0.00  0.00    +0.162 A 
BRANCH  21  22
ATOM     22  O   UNL     1       0.874  -4.690   1.346  0.00  0.00    -0.491 OA
ATOM     23  C   UNL     1       0.971  -6.110   1.470  0.00  0.00    +0.277 C 
ENDBRANCH  21  22
BRANCH  16  24
ATOM     24  O   UNL     1       0.761  -1.940   1.234  0.00  0.00    -0.488 OA
BRANCH  24  25
ATOM     25  C   UNL     1       0.742  -0.511   1.242  0.00  0.00    +0.229 C 
BRANCH  25  27
ATOM     26  C   UNL     1      -0.019   1.526   0.010  0.00  0.00    +0.007 C 
ATOM     27  C   UNL     1       0.002  -0.004   0.002  0.00  0.00    +0.038 C 
ENDBRANCH  25  27
ENDBRANCH  24  25
ENDBRANCH  16  24
ENDBRANCH   1  19
BRANCH  11  28
ATOM     28  C   UNL     1       5.617  -5.387   9.047  0.00  0.00    +0.006 A 
ATOM     29  C   UNL     1       5.223  -6.712   9.080  0.00  0.00    +0.008 A 
ATOM     30  C   UNL     1       5.699  -7.553  10.068  0.00  0.00    +0.004 A 
ATOM     31  C   UNL     1       6.571  -7.073  11.028  0.00  0.00    +0.049 A 
ATOM     32  C   UNL     1       6.970  -5.747  11.001  0.00  0.00    +0.162 A 
ATOM     33  C   UNL     1       6.496  -4.901  10.002  0.00  0.00    +0.165 A 
BRANCH  33  34
ATOM     34  O   UNL     1       6.889  -3.600   9.967  0.00  0.00    -0.491 OA
ATOM     35  C   UNL     1       6.092  -2.662  10.694  0.00  0.00    +0.277 C 
ENDBRANCH  33  34
BRANCH  32  36
ATOM     36  O   UNL     1       7.827  -5.274  11.944  0.00  0.00    -0.491 OA
ATOM     37  C   UNL     1       8.277  -6.200  12.935  0.00  0.00    +0.277 C 
ENDBRANCH  32  36
ENDBRANCH  11  28
TORSDOF 8
