REMARK  Name = ZINC65747980
REMARK  14 active torsions:
REMARK  status: ('A' for Active; 'I' for Inactive)
REMARK    1  A    between atoms: C_1  and  C_2
REMARK    2  A    between atoms: C_2  and  C_4
REMARK    3  A    between atoms: C_2  and  C_16
REMARK    4  A    between atoms: C_9  and  O_14
REMARK    5  A    between atoms: O_14  and  C_15
REMARK    6  A    between atoms: C_16  and  O_18
REMARK    7  A    between atoms: O_18  and  C_19
REMARK    8  A    between atoms: C_21  and  O_42
REMARK    9  A    between atoms: C_23  and  O_41
REMARK   10  A    between atoms: C_25  and  O_40
REMARK   11  A    between atoms: C_27  and  C_30
REMARK   12  A    between atoms: C_30  and  O_32
REMARK   13  A    between atoms: O_32  and  C_33
REMARK   14  A    between atoms: C_33  and  C_34
REMARK                            x       y       z     vdW  Elec       q    Type
REMARK                         _______ _______ _______ _____ _____    ______ ____
ROOT
ATOM      1  C   UNL     1       0.952  -0.660  -3.582  0.00  0.00    +0.343 C 
ATOM      2  C   UNL     1       0.199  -0.297  -4.865  0.00  0.00    +0.214 C 
ATOM      3  C   UNL     1       0.127   1.228  -4.990  0.00  0.00    +0.180 C 
ATOM      4  C   UNL     1       1.548   1.799  -4.969  0.00  0.00    +0.185 C 
ATOM      5  C   UNL     1       2.249   1.354  -3.683  0.00  0.00    +0.261 C 
ATOM      6  O   UNL     1       2.254  -0.074  -3.614  0.00  0.00    -0.322 OA
ENDROOT
BRANCH   5   7
ATOM      7  C   UNL     1       3.668   1.862  -3.682  0.00  0.00    +0.339 C 
ATOM      8  O   UNL     1       4.590   1.081  -3.718  0.00  0.00    -0.248 OA
BRANCH   7   9
ATOM      9  O   UNL     1       3.908   3.182  -3.641  0.00  0.00    -0.458 OA
BRANCH   9  10
ATOM     10  C   UNL     1       5.277   3.593  -3.643  0.00  0.00    +0.267 C 
BRANCH  10  11
ATOM     11  C   UNL     1       5.350   5.097  -3.595  0.00  0.00    -0.010 A 
ATOM     12  C   UNL     1       5.364   5.827  -4.769  0.00  0.00    +0.007 A 
ATOM     13  C   UNL     1       5.431   7.207  -4.724  0.00  0.00    +0.000 A 
ATOM     14  C   UNL     1       5.483   7.857  -3.505  0.00  0.00    +0.000 A 
ATOM     15  C   UNL     1       5.468   7.128  -2.331  0.00  0.00    +0.000 A 
ATOM     16  C   UNL     1       5.397   5.748  -2.376  0.00  0.00    +0.007 A 
ENDBRANCH  10  11
ENDBRANCH   9  10
ENDBRANCH   7   9
ENDBRANCH   5   7
BRANCH   4  17
ATOM     17  O   UNL     1       2.274   1.315  -6.101  0.00  0.00    -0.386 OA
ATOM     18  H   UNL     1       3.184   1.637  -6.152  0.00  0.00    +0.210 HD
ENDBRANCH   4  17
BRANCH   3  19
ATOM     19  O   UNL     1      -0.512   1.577  -6.220  0.00  0.00    -0.386 OA
ATOM     20  H   UNL     1      -1.415   1.242  -6.303  0.00  0.00    +0.210 HD
ENDBRANCH   3  19
BRANCH   2  21
ATOM     21  O   UNL     1       0.888  -0.838  -5.993  0.00  0.00    -0.383 OA
ATOM     22  H   UNL     1       0.974  -1.801  -5.977  0.00  0.00    +0.210 HD
ENDBRANCH   2  21
BRANCH   1  23
ATOM     23  O   UNL     1       0.233  -0.166  -2.451  0.00  0.00    -0.432 OA
BRANCH  23  24
ATOM     24  C   UNL     1       0.707  -0.490  -1.238  0.00  0.00    +0.317 C 
ATOM     25  O   UNL     1       1.700  -1.172  -1.140  0.00  0.00    -0.250 OA
BRANCH  24  27
ATOM     26  C   UNL     1      -0.019   1.526   0.010  0.00  0.00    +0.024 C 
ATOM     27  C   UNL     1       0.002  -0.004   0.002  0.00  0.00    +0.125 C 
BRANCH  27  28
ATOM     28  C   UNL     1       0.731  -0.503   1.223  0.00  0.00    -0.033 A 
ATOM     29  C   UNL     1       2.061  -0.139   1.425  0.00  0.00    +0.005 A 
ATOM     30  C   UNL     1       2.748  -0.572   2.517  0.00  0.00    +0.009 A 
ATOM     31  C   UNL     1       2.109  -1.400   3.457  0.00  0.00    -0.014 A 
ATOM     32  C   UNL     1       2.786  -1.866   4.596  0.00  0.00    +0.054 A 
ATOM     33  C   UNL     1       2.134  -2.668   5.488  0.00  0.00    +0.121 A 
ATOM     34  C   UNL     1       0.799  -3.033   5.283  0.00  0.00    +0.046 A 
ATOM     35  C   UNL     1       0.117  -2.598   4.190  0.00  0.00    +0.012 A 
ATOM     36  C   UNL     1       0.757  -1.770   3.251  0.00  0.00    -0.017 A 
ATOM     37  C   UNL     1       0.079  -1.299   2.114  0.00  0.00    +0.013 A 
BRANCH  33  38
ATOM     38  O   UNL     1       2.790  -3.118   6.590  0.00  0.00    -0.495 OA
ATOM     39  C   UNL     1       2.055  -3.954   7.486  0.00  0.00    +0.277 C 
ENDBRANCH  33  38
ENDBRANCH  27  28
ENDBRANCH  24  27
ENDBRANCH  23  24
ENDBRANCH   1  23
TORSDOF 12
