REMARK  Name = ZINC03769980
REMARK  8 active torsions:
REMARK  status: ('A' for Active; 'I' for Inactive)
REMARK    1  A    between atoms: C_1  and  N_2
REMARK    2  A    between atoms: C_3  and  C_5
REMARK    3  A    between atoms: C_11  and  C_12
REMARK    4  A    between atoms: C_12  and  O_14
REMARK    5  A    between atoms: O_14  and  C_15
REMARK    6  A    between atoms: C_17  and  N_28
REMARK    7  A    between atoms: C_18  and  C_26
REMARK    8  A    between atoms: C_19  and  C_21
REMARK                            x       y       z     vdW  Elec       q    Type
REMARK                         _______ _______ _______ _____ _____    ______ ____
ROOT
ATOM      1  C   UNL     1      -5.404  -1.529   0.027  0.00  0.00    +0.058 C 
ATOM      2  C   UNL     1      -4.510  -0.511   0.089  0.00  0.00    +0.099 A 
ATOM      3  N   UNL     1      -4.854   0.826   0.097  0.00  0.00    -0.257 N 
ATOM      4  C   UNL     1      -3.856   1.731   0.164  0.00  0.00    +0.272 A 
ATOM      5  O   UNL     1      -4.091   2.922   0.174  0.00  0.00    -0.266 OA
ATOM      6  C   UNL     1      -2.463   1.229   0.223  0.00  0.00    +0.086 A 
ATOM      7  C   UNL     1      -1.297   1.923   0.293  0.00  0.00    +0.112 C 
ATOM      8  S   UNL     1      -2.731  -0.536   0.169  0.00  0.00    -0.065 S 
ATOM      9  C   UNL     1      -6.206   1.184   0.038  0.00  0.00    +0.119 C 
ATOM     10  C   UNL     1      -7.215   0.288  -0.028  0.00  0.00    +0.080 C 
ATOM     11  C   UNL     1      -6.879  -1.189  -0.039  0.00  0.00    +0.107 C 
ENDROOT
BRANCH   1  14
ATOM     12  C   UNL     1      -5.424  -5.263  -0.043  0.00  0.00    +0.128 C 
ATOM     13  N   UNL     1      -5.874  -3.868  -0.040  0.00  0.00    -0.315 N 
ATOM     14  C   UNL     1      -4.971  -2.869   0.023  0.00  0.00    +0.243 C 
ATOM     15  O   UNL     1      -3.781  -3.126   0.077  0.00  0.00    -0.270 OA
ATOM     16  H   UNL     1      -6.821  -3.664  -0.082  0.00  0.00    +0.149 HD
ENDBRANCH   1  14
BRANCH  11  17
ATOM     17  C   UNL     1      -7.446  -1.792  -1.298  0.00  0.00    +0.003 A 
ATOM     18  C   UNL     1      -8.359  -2.785  -1.433  0.00  0.00    +0.012 A 
ATOM     19  C   UNL     1      -8.736  -3.181  -2.703  0.00  0.00    +0.008 A 
ATOM     20  C   UNL     1      -8.183  -2.563  -3.776  0.00  0.00    +0.045 A 
ATOM     21  S   UNL     1      -7.096  -1.379  -2.999  0.00  0.00    -0.101 S 
ENDBRANCH  11  17
BRANCH   9  22
ATOM     22  N   UNL     1      -6.524   2.520   0.046  0.00  0.00    -0.343 N 
ATOM     23  H   UNL     1      -5.898   3.170  -0.308  0.00  0.00    +0.144 HD
ATOM     24  H   UNL     1      -7.376   2.814   0.407  0.00  0.00    +0.144 HD
ENDBRANCH   9  22
BRANCH   7  25
ATOM     25  C   UNL     1      -0.022   1.208   0.342  0.00  0.00    +0.333 C 
ATOM     26  O   UNL     1      -0.005  -0.008   0.321  0.00  0.00    -0.246 OA
BRANCH  25  27
ATOM     27  O   UNL     1       1.136   1.898   0.406  0.00  0.00    -0.465 OA
ATOM     28  C   UNL     1       2.344   1.135   0.446  0.00  0.00    +0.280 C 
ENDBRANCH  25  27
ENDBRANCH   7  25
BRANCH  10  29
ATOM     29  C   UNL     1      -8.577   0.727  -0.087  0.00  0.00    +0.099 C 
ATOM     30  N   UNL     1      -9.658   1.075  -0.134  0.00  0.00    -0.191 NA
ENDBRANCH  10  29
TORSDOF 6
