REMARK  Name = ZINC04025997
REMARK  6 active torsions:
REMARK  status: ('A' for Active; 'I' for Inactive)
REMARK    1  A    between atoms: C_1  and  C_2
REMARK    2  A    between atoms: C_2  and  O_4
REMARK    3  A    between atoms: O_4  and  C_5
REMARK    4  A    between atoms: C_9  and  C_31
REMARK    5  A    between atoms: C_14  and  C_30
REMARK    6  A    between atoms: C_22  and  O_24
REMARK                            x       y       z     vdW  Elec       q    Type
REMARK                         _______ _______ _______ _____ _____    ______ ____
ROOT
ATOM      1  C   UNL     1       2.828   4.126   0.030  0.00  0.00    +0.179 C 
ATOM      2  C   UNL     1       3.578   3.605   1.258  0.00  0.00    +0.045 C 
ATOM      3  C   UNL     1       3.596   2.076   1.235  0.00  0.00    +0.013 C 
ATOM      4  C   UNL     1       2.159   1.549   1.252  0.00  0.00    +0.001 C 
ATOM      5  C   UNL     1       2.177   0.019   1.230  0.00  0.00    +0.001 C 
ATOM      6  C   UNL     1       2.871  -0.473  -0.045  0.00  0.00    +0.005 C 
ATOM      7  C   UNL     1       2.938  -2.000   0.001  0.00  0.00    +0.015 C 
ATOM      8  C   UNL     1       1.557  -2.607   0.097  0.00  0.00    +0.029 C 
ATOM      9  C   UNL     1       0.728  -2.038   1.262  0.00  0.00    +0.006 C 
ATOM     10  C   UNL     1       0.744  -0.508   1.241  0.00  0.00    -0.002 C 
ATOM     11  C   UNL     1       0.002  -0.004   0.002  0.00  0.00    +0.026 C 
ATOM     12  C   UNL     1      -0.019   1.526   0.010  0.00  0.00    +0.113 C 
ATOM     13  C   UNL     1       1.416   2.056  -0.000  0.00  0.00    +0.091 C 
ATOM     14  C   UNL     1       1.392   3.598   0.048  0.00  0.00    +0.081 C 
ATOM     15 CL   UNL     1      -0.891   2.123  -1.450  0.00  0.00    -0.119 Cl
ATOM     16  C   UNL     1      -0.711  -2.474   0.853  0.00  0.00    +0.012 C 
ATOM     17  C   UNL     1      -0.721  -2.285  -0.679  0.00  0.00    +0.075 C 
ATOM     18  C   UNL     1       0.724  -2.362  -1.138  0.00  0.00    +0.139 C 
ATOM     19  O   UNL     1       1.128  -2.248  -2.271  0.00  0.00    -0.297 OA
ATOM     20  C   UNL     1       1.696  -4.117   0.302  0.00  0.00    +0.019 C 
ATOM     21  C   UNL     1       1.454   2.033   2.521  0.00  0.00    +0.014 C 
ENDROOT
BRANCH  13  22
ATOM     22  O   UNL     1       2.084   1.598  -1.178  0.00  0.00    -0.386 OA
ATOM     23  H   UNL     1       1.668   1.883  -2.002  0.00  0.00    +0.210 HD
ENDBRANCH  13  22
BRANCH   1  24
ATOM     24  O   UNL     1       2.810   5.578   0.054  0.00  0.00    -0.461 OA
BRANCH  24  26
ATOM     25  C   UNL     1       3.875   7.716  -0.568  0.00  0.00    +0.136 C 
ATOM     26  C   UNL     1       3.827   6.210  -0.552  0.00  0.00    +0.304 C 
ATOM     27  O   UNL     1       4.703   5.572  -1.085  0.00  0.00    -0.251 OA
ENDBRANCH  24  26
ENDBRANCH   1  24
TORSDOF 3
