REMARK  Name = ZINC02090285
REMARK  9 active torsions:
REMARK  status: ('A' for Active; 'I' for Inactive)
REMARK    1  A    between atoms: C_1  and  C_2
REMARK    2  A    between atoms: C_3  and  C_22
REMARK    3  A    between atoms: C_14  and  C_18
REMARK    4  A    between atoms: C_15  and  N_17
REMARK    5  A    between atoms: C_18  and  O_20
REMARK    6  A    between atoms: O_20  and  C_21
REMARK    7  A    between atoms: C_22  and  O_24
REMARK    8  A    between atoms: O_24  and  C_25
REMARK    9  A    between atoms: C_25  and  C_26
REMARK                            x       y       z     vdW  Elec       q    Type
REMARK                         _______ _______ _______ _____ _____    ______ ____
ROOT
ATOM      1  C   UNL     1       2.054   5.760  -2.447  0.00  0.00    +0.087 C 
ATOM      2  C   UNL     1       1.588   5.110  -1.169  0.00  0.00    +0.116 C 
ATOM      3  C   UNL     1       1.085   3.869  -1.220  0.00  0.00    +0.098 C 
ATOM      4  C   UNL     1       0.611   3.180   0.027  0.00  0.00    +0.145 C 
ATOM      5  C   UNL     1      -0.895   3.121   0.057  0.00  0.00    -0.002 A 
ATOM      6  C   UNL     1      -1.875   4.089   0.075  0.00  0.00    +0.007 A 
ATOM      7  C   UNL     1      -3.208   3.722   0.101  0.00  0.00    +0.000 A 
ATOM      8  C   UNL     1      -3.554   2.383   0.110  0.00  0.00    +0.002 A 
ATOM      9  C   UNL     1      -2.576   1.411   0.093  0.00  0.00    +0.023 A 
ATOM     10  C   UNL     1      -1.230   1.772   0.061  0.00  0.00    +0.038 A 
ATOM     11  N   UNL     1      -0.075   0.988   0.048  0.00  0.00    -0.284 N 
ATOM     12  C   UNL     1       1.044   1.733   0.025  0.00  0.00    +0.237 C 
ATOM     13  O   UNL     1       2.185   1.321   0.006  0.00  0.00    -0.274 OA
ATOM     14  C   UNL     1       1.135   3.881   1.247  0.00  0.00    +0.117 C 
ATOM     15  C   UNL     1       1.643   5.139   1.152  0.00  0.00    +0.195 C 
ATOM     16  O   UNL     1       1.691   5.794  -0.020  0.00  0.00    -0.446 OA
ATOM     17  H   UNL     1      -0.080   0.018   0.050  0.00  0.00    +0.155 HD
ENDROOT
BRANCH  15  18
ATOM     18  N   UNL     1       2.118   5.753   2.279  0.00  0.00    -0.329 N 
ATOM     19  H   UNL     1       2.160   5.266   3.116  0.00  0.00    +0.145 HD
ATOM     20  H   UNL     1       2.413   6.677   2.241  0.00  0.00    +0.145 HD
ENDBRANCH  15  18
BRANCH  14  21
ATOM     21  C   UNL     1       1.101   3.235   2.492  0.00  0.00    +0.341 C 
ATOM     22  O   UNL     1       0.061   3.186   3.124  0.00  0.00    -0.245 OA
BRANCH  21  23
ATOM     23  O   UNL     1       2.221   2.667   2.989  0.00  0.00    -0.465 OA
ATOM     24  C   UNL     1       2.113   2.027   4.262  0.00  0.00    +0.280 C 
ENDBRANCH  21  23
ENDBRANCH  14  21
BRANCH   3  25
ATOM     25  C   UNL     1       1.000   3.199  -2.465  0.00  0.00    +0.340 C 
ATOM     26  O   UNL     1       1.382   3.751  -3.480  0.00  0.00    -0.245 OA
BRANCH  25  27
ATOM     27  O   UNL     1       0.495   1.949  -2.526  0.00  0.00    -0.457 OA
BRANCH  27  28
ATOM     28  C   UNL     1       0.439   1.334  -3.814  0.00  0.00    +0.259 C 
BRANCH  28  29
ATOM     29  C   UNL     1      -0.149  -0.047  -3.686  0.00  0.00    +0.006 C 
ATOM     30  C   UNL     1      -1.062  -0.452  -4.534  0.00  0.00    +0.007 C 
ENDBRANCH  28  29
ENDBRANCH  27  28
ENDBRANCH  25  27
ENDBRANCH   3  25
TORSDOF 7
