REMARK  Name = ZINC40321714
REMARK  9 active torsions:
REMARK  status: ('A' for Active; 'I' for Inactive)
REMARK    1  A    between atoms: C_1  and  O_2
REMARK    2  A    between atoms: O_2  and  C_3
REMARK    3  A    between atoms: C_6  and  C_9
REMARK    4  A    between atoms: C_9  and  C_11
REMARK    5  A    between atoms: C_9  and  N_29
REMARK    6  A    between atoms: C_11  and  N_12
REMARK    7  A    between atoms: C_13  and  C_15
REMARK    8  A    between atoms: C_18  and  S_20
REMARK    9  A    between atoms: S_20  and  C_23
REMARK                            x       y       z     vdW  Elec       q    Type
REMARK                         _______ _______ _______ _____ _____    ______ ____
ROOT
ATOM      1  C   UNL     1       4.078  -2.898   4.011  0.00  0.00    +0.094 C 
ENDROOT
BRANCH   1   2
ATOM      2  N   UNL     1       4.793  -1.673   3.647  0.00  0.00    -0.310 N 
ATOM      3  C   UNL     1       6.080  -1.736   3.250  0.00  0.00    +0.279 C 
ATOM      4  O   UNL     1       6.647  -2.811   3.193  0.00  0.00    -0.267 OA
ATOM      5  H   UNL     1       4.341  -0.816   3.692  0.00  0.00    +0.149 HD
BRANCH   3   6
ATOM      6  C   UNL     1       6.795  -0.508   2.885  0.00  0.00    +0.192 A 
ATOM      7  C   UNL     1       8.091  -0.431   2.463  0.00  0.00    +0.056 A 
ATOM      8  C   UNL     1       8.358   0.927   2.226  0.00  0.00    +0.070 A 
ATOM      9  C   UNL     1       7.228   1.610   2.511  0.00  0.00    +0.246 A 
ATOM     10  O   UNL     1       6.287   0.741   2.903  0.00  0.00    -0.433 OA
BRANCH   9  11
ATOM     11  S   UNL     1       7.023   3.355   2.382  0.00  0.00    +0.058 S 
ATOM     12  O   UNL     1       5.964   3.706   3.263  0.00  0.00    -0.161 OA
ATOM     13  O   UNL     1       8.321   3.925   2.487  0.00  0.00    -0.161 OA
BRANCH  11  14
ATOM     14  C   UNL     1       6.454   3.694   0.750  0.00  0.00    +0.097 A 
ATOM     15  C   UNL     1       7.364   3.927  -0.265  0.00  0.00    +0.027 A 
ATOM     16  C   UNL     1       6.917   4.193  -1.546  0.00  0.00    +0.002 A 
ATOM     17  C   UNL     1       5.561   4.226  -1.812  0.00  0.00    +0.000 A 
ATOM     18  C   UNL     1       4.652   3.992  -0.798  0.00  0.00    +0.002 A 
ATOM     19  C   UNL     1       5.098   3.722   0.482  0.00  0.00    +0.027 A 
ENDBRANCH  11  14
ENDBRANCH   9  11
ENDBRANCH   3   6
ENDBRANCH   1   2
BRANCH   1  20
ATOM     20  C   UNL     1       2.611  -2.568   4.295  0.00  0.00    -0.020 C 
BRANCH  20  21
ATOM     21  N   UNL     1       1.908  -3.787   4.718  0.00  0.00    +0.385 N 
ATOM     22  C   UNL     1       0.478  -3.470   4.894  0.00  0.00    -0.078 C 
ATOM     23  C   UNL     1      -0.313  -4.744   4.726  0.00  0.00    -0.019 C 
ATOM     24  C   UNL     1      -0.619  -5.401   6.085  0.00  0.00    -0.002 C 
ATOM     25  C   UNL     1       0.590  -5.330   7.040  0.00  0.00    -0.002 C 
ATOM     26  C   UNL     1       1.894  -5.609   6.337  0.00  0.00    -0.019 C 
ATOM     27  C   UNL     1       2.514  -4.273   5.878  0.00  0.00    -0.078 C 
ATOM     28  H   UNL     1       1.998  -4.480   3.991  0.00  0.00    -0.081 HD
ENDBRANCH  20  21
BRANCH  20  32
ATOM     29  C   UNL     1       0.788  -1.030   0.750  0.00  0.00    +0.120 A 
ATOM     30  C   UNL     1       1.212  -0.162   1.746  0.00  0.00    +0.046 A 
ATOM     31  C   UNL     1       1.801  -0.662   2.891  0.00  0.00    +0.005 A 
ATOM     32  C   UNL     1       1.968  -2.026   3.045  0.00  0.00    -0.059 A 
ATOM     33  C   UNL     1       1.547  -2.892   2.053  0.00  0.00    +0.005 A 
ATOM     34  C   UNL     1       0.952  -2.398   0.909  0.00  0.00    +0.046 A 
BRANCH  29  36
ATOM     35  C   UNL     1       0.071   0.879  -0.474  0.00  0.00    +0.277 C 
ATOM     36  O   UNL     1       0.208  -0.540  -0.378  0.00  0.00    -0.495 OA
ENDBRANCH  29  36
ENDBRANCH  20  32
ENDBRANCH   1  20
TORSDOF 8
