REMARK  Name = ZINC11998216
REMARK  7 active torsions:
REMARK  status: ('A' for Active; 'I' for Inactive)
REMARK    1  A    between atoms: C_1  and  C_2
REMARK    2  A    between atoms: C_5  and  C_8
REMARK    3  A    between atoms: C_8  and  C_10
REMARK    4  A    between atoms: C_8  and  N_61
REMARK    5  A    between atoms: C_10  and  N_11
REMARK    6  A    between atoms: C_12  and  C_14
REMARK    7  A    between atoms: C_18  and  N_20
REMARK                            x       y       z     vdW  Elec       q    Type
REMARK                         _______ _______ _______ _____ _____    ______ ____
ROOT
ATOM      1  N   UNL     1      -1.046   3.141   3.002  0.00  0.00    -0.313 N 
ATOM      2  C   UNL     1      -1.954   3.977   3.544  0.00  0.00    +0.244 C 
ATOM      3  O   UNL     1      -2.867   3.532   4.211  0.00  0.00    -0.270 OA
ATOM      4  H   UNL     1      -0.317   3.496   2.470  0.00  0.00    +0.149 HD
ENDROOT
BRANCH   2   5
ATOM      5  C   UNL     1      -1.838   5.435   3.328  0.00  0.00    +0.039 A 
ATOM      6  C   UNL     1      -0.786   5.949   2.567  0.00  0.00    +0.013 A 
ATOM      7  C   UNL     1      -0.683   7.309   2.362  0.00  0.00    +0.003 A 
ATOM      8  C   UNL     1      -1.613   8.169   2.917  0.00  0.00    +0.025 A 
ATOM      9  C   UNL     1      -2.660   7.668   3.680  0.00  0.00    +0.060 A 
ATOM     10  C   UNL     1      -2.776   6.302   3.887  0.00  0.00    +0.038 A 
BRANCH   9  11
ATOM     11  N   UNL     1      -3.599   8.543   4.240  0.00  0.00    -0.144 N 
ATOM     12  C   UNL     1      -4.863   8.238   4.570  0.00  0.00    +0.240 C 
ATOM     13  O   UNL     1      -5.288   7.112   4.422  0.00  0.00    -0.274 OA
ATOM     14  C   UNL     1      -5.736   9.320   5.129  0.00  0.00    +0.122 C 
ATOM     15  C   UNL     1      -4.834  10.473   5.641  0.00  0.00    +0.198 C 
ATOM     16  S   UNL     1      -3.344  10.156   4.609  0.00  0.00    +0.052 S 
ATOM     17  O   UNL     1      -2.163  10.188   5.399  0.00  0.00    -0.155 OA
ATOM     18  O   UNL     1      -3.426  10.851   3.373  0.00  0.00    -0.155 OA
ENDBRANCH   9  11
ENDBRANCH   2   5
BRANCH   1  19
ATOM     19  C   UNL     1      -1.161   1.696   3.217  0.00  0.00    +0.094 C 
BRANCH  19  20
ATOM     20  C   UNL     1      -0.077   0.974   2.415  0.00  0.00    -0.020 C 
BRANCH  20  25
ATOM     21  C   UNL     1      -0.841  -4.737   2.853  0.00  0.00    +0.044 C 
ATOM     22  C   UNL     1      -0.641  -3.248   2.739  0.00  0.00    -0.050 A 
ATOM     23  C   UNL     1       0.542  -2.674   3.166  0.00  0.00    +0.003 A 
ATOM     24  C   UNL     1       0.724  -1.308   3.061  0.00  0.00    +0.002 A 
ATOM     25  C   UNL     1      -0.276  -0.515   2.529  0.00  0.00    -0.059 A 
ATOM     26  C   UNL     1      -1.461  -1.089   2.107  0.00  0.00    +0.002 A 
ATOM     27  C   UNL     1      -1.642  -2.455   2.208  0.00  0.00    +0.003 A 
ENDBRANCH  20  25
BRANCH  20  33
ATOM     28  C   UNL     1      -1.547   1.705   0.636  0.00  0.00    -0.078 C 
ATOM     29  C   UNL     1      -1.578   2.254  -0.793  0.00  0.00    -0.019 C 
ATOM     30  C   UNL     1      -1.014   1.200  -1.751  0.00  0.00    -0.004 C 
ATOM     31  C   UNL     1       0.408   0.836  -1.317  0.00  0.00    -0.019 C 
ATOM     32  C   UNL     1       0.382   0.329   0.127  0.00  0.00    -0.078 C 
ATOM     33  N   UNL     1      -0.148   1.397   1.001  0.00  0.00    +0.385 N 
ATOM     34  H   UNL     1       0.422   2.242   0.877  0.00  0.00    -0.081 HD
ENDBRANCH  20  33
ENDBRANCH  19  20
ENDBRANCH   1  19
TORSDOF 6
