REMARK  Name = ZINC43757056
REMARK  6 active torsions:
REMARK  status: ('A' for Active; 'I' for Inactive)
REMARK    1  A    between atoms: C_1  and  C_2
REMARK    2  A    between atoms: C_2  and  O_4
REMARK    3  A    between atoms: O_4  and  C_5
REMARK    4  A    between atoms: C_9  and  C_30
REMARK    5  A    between atoms: C_14  and  C_29
REMARK    6  A    between atoms: C_22  and  O_28
REMARK                            x       y       z     vdW  Elec       q    Type
REMARK                         _______ _______ _______ _____ _____    ______ ____
ROOT
ATOM      1  C   UNL     1       0.875  -2.136  -1.791  0.00  0.00    +0.177 C 
ATOM      2  C   UNL     1      -0.630  -2.393  -1.711  0.00  0.00    +0.045 C 
ATOM      3  C   UNL     1      -1.275  -2.052  -3.051  0.00  0.00    +0.011 C 
ATOM      4  C   UNL     1      -0.683  -2.922  -4.165  0.00  0.00    -0.026 C 
ATOM      5  C   UNL     1      -0.936  -4.399  -3.861  0.00  0.00    +0.001 C 
ATOM      6  C   UNL     1      -2.406  -4.697  -3.628  0.00  0.00    +0.005 C 
ATOM      7  C   UNL     1      -2.662  -6.168  -3.276  0.00  0.00    +0.007 C 
ATOM      8  C   UNL     1      -1.432  -7.010  -3.475  0.00  0.00    -0.029 C 
ATOM      9  C   UNL     1      -1.705  -8.524  -3.635  0.00  0.00    +0.007 C 
ATOM     10  C   UNL     1      -0.429  -9.044  -4.345  0.00  0.00    +0.001 C 
ATOM     11  C   UNL     1       0.300  -7.795  -4.916  0.00  0.00    +0.004 C 
ATOM     12  C   UNL     1      -0.769  -6.699  -4.830  0.00  0.00    +0.001 C 
ATOM     13  C   UNL     1      -0.345  -5.270  -4.968  0.00  0.00    +0.025 C 
ATOM     14  C   UNL     1       1.166  -5.065  -5.025  0.00  0.00    +0.118 C 
ATOM     15  C   UNL     1       1.459  -3.587  -5.309  0.00  0.00    +0.035 C 
ATOM     16  C   UNL     1       0.829  -2.692  -4.242  0.00  0.00    +0.001 C 
ATOM     17  C   UNL     1       1.486  -2.996  -2.895  0.00  0.00    +0.048 C 
ATOM     18  C   UNL     1      -0.469  -6.889  -2.293  0.00  0.00    +0.011 C 
ATOM     19  C   UNL     1      -1.339  -2.513  -5.485  0.00  0.00    +0.012 C 
ENDROOT
BRANCH  14  20
ATOM     20  O   UNL     1       1.718  -5.846  -6.092  0.00  0.00    -0.391 OA
ATOM     21  H   UNL     1       2.676  -5.762  -6.185  0.00  0.00    +0.210 HD
ENDBRANCH  14  20
BRANCH   1  22
ATOM     22  O   UNL     1       1.115  -0.755  -2.064  0.00  0.00    -0.462 OA
BRANCH  22  24
ATOM     23  C   UNL     1       1.485   1.535  -1.219  0.00  0.00    +0.136 C 
ATOM     24  C   UNL     1       1.232   0.064  -1.008  0.00  0.00    +0.304 C 
ATOM     25  O   UNL     1       1.134  -0.377   0.113  0.00  0.00    -0.251 OA
ENDBRANCH  22  24
ENDBRANCH   1  22
TORSDOF 3
