REMARK  Name = ZINC17994615
REMARK  7 active torsions:
REMARK  status: ('A' for Active; 'I' for Inactive)
REMARK    1  A    between atoms: C_1  and  C_2
REMARK    2  A    between atoms: C_2  and  C_3
REMARK    3  A    between atoms: C_8  and  N_9
REMARK    4  A    between atoms: C_10  and  C_12
REMARK    5  A    between atoms: C_12  and  C_14
REMARK    6  A    between atoms: C_12  and  N_21
REMARK    7  A    between atoms: C_14  and  C_15
REMARK                            x       y       z     vdW  Elec       q    Type
REMARK                         _______ _______ _______ _____ _____    ______ ____
ROOT
ATOM      1  C   UNL     1       1.320   3.473   0.131  0.00  0.00    +0.174 C 
ENDROOT
BRANCH   1   2
ATOM      2  N   UNL     1       2.674   3.818   0.570  0.00  0.00    -0.229 N 
ATOM      3  C   UNL     1       2.952   4.499   1.743  0.00  0.00    +0.227 C 
ATOM      4  O   UNL     1       2.236   4.685   2.704  0.00  0.00    -0.275 OA
ATOM      5  C   UNL     1       4.304   4.927   1.529  0.00  0.00    +0.095 C 
ATOM      6  C   UNL     1       5.444   5.725   2.073  0.00  0.00    +0.025 C 
ATOM      7  C   UNL     1       6.686   4.747   1.911  0.00  0.00    +0.016 C 
ATOM      8  C   UNL     1       6.263   4.311   0.440  0.00  0.00    +0.025 C 
ATOM      9  C   UNL     1       4.940   3.654   0.842  0.00  0.00    +0.095 C 
ATOM     10  C   UNL     1       3.807   3.496  -0.135  0.00  0.00    +0.227 C 
ATOM     11  O   UNL     1       3.881   3.159  -1.297  0.00  0.00    -0.275 OA
ATOM     12  C   UNL     1       6.102   5.691  -0.156  0.00  0.00    -0.027 C 
ATOM     13  C   UNL     1       5.713   6.565   0.782  0.00  0.00    -0.027 C 
ENDBRANCH   1   2
BRANCH   1  15
ATOM     14  N   UNL     1      -0.017   1.395   0.010  0.00  0.00    -0.284 N 
ATOM     15  C   UNL     1       1.199   1.977   0.002  0.00  0.00    +0.239 C 
ATOM     16  O   UNL     1       2.196   1.295  -0.110  0.00  0.00    -0.273 OA
ATOM     17  H   UNL     1      -0.817   1.944   0.029  0.00  0.00    +0.155 HD
BRANCH  14  23
ATOM     18  C   UNL     1      -1.150  -0.630   0.677  0.00  0.00    -0.025 A 
ATOM     19  C   UNL     1      -1.259  -2.007   0.646  0.00  0.00    +0.020 A 
ATOM     20  C   UNL     1      -0.341  -2.758  -0.067  0.00  0.00    +0.018 A 
ATOM     21  C   UNL     1       0.684  -2.133  -0.754  0.00  0.00    +0.017 A 
ATOM     22  C   UNL     1       0.794  -0.756  -0.730  0.00  0.00    +0.024 A 
ATOM     23  C   UNL     1      -0.126   0.000  -0.016  0.00  0.00    +0.037 A 
ATOM     24 BR   UNL     1      -0.488  -4.643  -0.101  0.00  0.00    -0.050 Br
BRANCH  18  26
ATOM     25  C   UNL     1      -3.265   0.656   0.526  0.00  0.00    +0.009 C 
ATOM     26  C   UNL     1      -2.147   0.187   1.459  0.00  0.00    +0.033 C 
ENDBRANCH  18  26
ENDBRANCH  14  23
ENDBRANCH   1  15
BRANCH   1  27
ATOM     27  C   UNL     1       1.040   4.127  -1.224  0.00  0.00    +0.067 C 
BRANCH  27  28
ATOM     28  C   UNL     1       1.040   5.625  -1.068  0.00  0.00    -0.045 A 
ATOM     29  C   UNL     1      -0.136   6.289  -0.772  0.00  0.00    +0.004 A 
ATOM     30  C   UNL     1      -0.136   7.664  -0.624  0.00  0.00    +0.000 A 
ATOM     31  C   UNL     1       1.039   8.376  -0.783  0.00  0.00    +0.000 A 
ATOM     32  C   UNL     1       2.214   7.712  -1.085  0.00  0.00    +0.000 A 
ATOM     33  C   UNL     1       2.214   6.337  -1.227  0.00  0.00    +0.004 A 
ENDBRANCH  27  28
ENDBRANCH   1  27
TORSDOF 6
