REMARK  Name = ZINC32436843
REMARK  5 active torsions:
REMARK  status: ('A' for Active; 'I' for Inactive)
REMARK    1  A    between atoms: C_3  and  S_13
REMARK    2  A    between atoms: C_6  and  C_7
REMARK    3  A    between atoms: S_13  and  N_16
REMARK    4  A    between atoms: N_16  and  C_17
REMARK    5  A    between atoms: C_23  and  C_25
REMARK                            x       y       z     vdW  Elec       q    Type
REMARK                         _______ _______ _______ _____ _____    ______ ____
ROOT
ATOM      1  N   UNL     1      -0.231   4.317   6.794  0.00  0.00    -0.187 NA
ATOM      2  H   UNL     1       0.776   4.756   6.734  0.00  0.00    +0.148 HD
ENDROOT
BRANCH   1   3
ATOM      3  C   UNL     1      -0.558   3.126   6.005  0.00  0.00    +0.079 C 
ATOM      4  C   UNL     1       0.724   2.347   5.702  0.00  0.00    +0.039 C 
ATOM      5  C   UNL     1       0.373   1.085   4.907  0.00  0.00    +0.109 C 
ATOM      6  N   UNL     1      -0.393   1.474   3.715  0.00  0.00    -0.301 N 
ATOM      7  C   UNL     1      -1.591   2.307   3.886  0.00  0.00    +0.109 C 
ATOM      8  C   UNL     1      -1.222   3.551   4.693  0.00  0.00    +0.039 C 
ATOM      9  C   UNL     1       0.000   1.080   2.488  0.00  0.00    +0.219 C 
ATOM     10  O   UNL     1       0.943   0.327   2.365  0.00  0.00    -0.275 OA
BRANCH   9  11
ATOM     11  C   UNL     1      -0.733   1.574   1.267  0.00  0.00    +0.075 C 
ATOM     12  C   UNL     1      -0.545   0.578   0.121  0.00  0.00    +0.013 C 
ATOM     13  C   UNL     1      -1.289   1.079  -1.118  0.00  0.00    +0.001 C 
ATOM     14  C   UNL     1      -0.731   2.443  -1.531  0.00  0.00    +0.000 C 
ATOM     15  C   UNL     1      -0.919   3.439  -0.385  0.00  0.00    +0.001 C 
ATOM     16  C   UNL     1      -0.175   2.938   0.854  0.00  0.00    +0.013 C 
ENDBRANCH   9  11
ENDBRANCH   1   3
BRANCH   1  17
ATOM     17  S   UNL     1      -1.280   4.855   7.956  0.00  0.00    +0.059 S 
ATOM     18  O   UNL     1      -0.676   5.993   8.554  0.00  0.00    -0.153 OA
ATOM     19  O   UNL     1      -2.565   4.904   7.351  0.00  0.00    -0.153 OA
BRANCH  17  22
ATOM     20  C   UNL     1      -0.542   2.674  11.249  0.00  0.00    +0.006 A 
ATOM     21  C   UNL     1      -0.481   3.648  10.271  0.00  0.00    +0.029 A 
ATOM     22  C   UNL     1      -1.358   3.612   9.203  0.00  0.00    +0.105 A 
ATOM     23  C   UNL     1      -2.301   2.605   9.117  0.00  0.00    +0.029 A 
ATOM     24  C   UNL     1      -2.359   1.628  10.093  0.00  0.00    +0.006 A 
ATOM     25  C   UNL     1      -1.481   1.664  11.160  0.00  0.00    -0.044 A 
BRANCH  25  26
ATOM     26  C   UNL     1      -1.548   0.601  12.227  0.00  0.00    +0.019 C 
ATOM     27  C   UNL     1      -1.307  -0.771  11.595  0.00  0.00    +0.008 C 
ATOM     28  C   UNL     1      -1.375  -1.850  12.678  0.00  0.00    +0.001 C 
ATOM     29  C   UNL     1      -2.756  -1.827  13.335  0.00  0.00    +0.000 C 
ATOM     30  C   UNL     1      -2.997  -0.455  13.967  0.00  0.00    +0.001 C 
ATOM     31  C   UNL     1      -2.929   0.624  12.884  0.00  0.00    +0.008 C 
ENDBRANCH  25  26
ENDBRANCH  17  22
ENDBRANCH   1  17
TORSDOF 5
