REMARK  Name = ZINC06077663
REMARK  13 active torsions:
REMARK  status: ('A' for Active; 'I' for Inactive)
REMARK    1  A    between atoms: C_1  and  C_2
REMARK    2  A    between atoms: C_2  and  C_3
REMARK    3  A    between atoms: C_3  and  C_4
REMARK    4  A    between atoms: C_3  and  C_5
REMARK    5  A    between atoms: C_3  and  N_6
REMARK    6  A    between atoms: C_7  and  C_11
REMARK    7  A    between atoms: C_11  and  C_13
REMARK    8  A    between atoms: C_11  and  N_75
REMARK    9  A    between atoms: C_16  and  C_26
REMARK   10  A    between atoms: C_19  and  C_25
REMARK   11  A    between atoms: N_29  and  C_32
REMARK   12  A    between atoms: C_37  and  O_38
REMARK   13  A    between atoms: O_38  and  C_39
REMARK                            x       y       z     vdW  Elec       q    Type
REMARK                         _______ _______ _______ _____ _____    ______ ____
ROOT
ATOM      1  C   UNL     1      -0.094   1.159  -0.084  0.00  0.00    +0.039 C 
ENDROOT
BRANCH   1   2
ATOM      2  C   UNL     1       1.269   1.789  -0.211  0.00  0.00    +0.011 A 
ATOM      3  C   UNL     1       1.802   2.463   0.838  0.00  0.00    +0.018 A 
ATOM      4  C   UNL     1       3.130   3.061   0.683  0.00  0.00    +0.002 A 
ATOM      5  C   UNL     1       3.733   3.764   1.730  0.00  0.00    -0.041 A 
ATOM      6  C   UNL     1       4.971   4.314   1.552  0.00  0.00    +0.004 A 
ATOM      7  C   UNL     1       5.635   4.181   0.340  0.00  0.00    +0.005 A 
ATOM      8  C   UNL     1       5.059   3.493  -0.706  0.00  0.00    -0.026 A 
ATOM      9  C   UNL     1       3.800   2.925  -0.548  0.00  0.00    +0.052 A 
ATOM     10  N   UNL     1       3.200   2.231  -1.577  0.00  0.00    -0.322 N 
ATOM     11  H   UNL     1       3.678   2.135  -2.450  0.00  0.00    +0.169 HD
ATOM     12  C   UNL     1       1.982   1.682  -1.424  0.00  0.00    +0.251 A 
ATOM     13  O   UNL     1       1.483   1.075  -2.356  0.00  0.00    -0.268 OA
ATOM     14  C   UNL     1       5.791   3.358  -2.016  0.00  0.00    +0.046 C 
ATOM     15  C   UNL     1       3.021   3.915   3.050  0.00  0.00    +0.044 C 
ENDBRANCH   1   2
BRANCH   1  21
ATOM     16  C   UNL     1      -1.047   3.202  -0.966  0.00  0.00    -0.058 C 
ATOM     17  C   UNL     1      -1.935   3.773  -2.075  0.00  0.00    +0.086 C 
ATOM     18  N   UNL     1      -3.281   3.193  -1.968  0.00  0.00    -0.331 N 
ATOM     19  C   UNL     1      -3.231   1.729  -2.088  0.00  0.00    +0.086 C 
ATOM     20  C   UNL     1      -2.344   1.159  -0.979  0.00  0.00    -0.058 C 
ATOM     21  N   UNL     1      -0.988   1.733  -1.111  0.00  0.00    +0.391 N 
ATOM     22  H   UNL     1      -0.618   1.504  -2.041  0.00  0.00    -0.080 HD
BRANCH  18  23
ATOM     23  C   UNL     1      -4.142   3.745  -2.923  0.00  0.00    +0.072 A 
ATOM     24  C   UNL     1      -3.635   4.540  -3.941  0.00  0.00    +0.027 A 
ATOM     25  C   UNL     1      -4.487   5.080  -4.886  0.00  0.00    +0.002 A 
ATOM     26  C   UNL     1      -5.846   4.840  -4.813  0.00  0.00    +0.004 A 
ATOM     27  C   UNL     1      -6.360   4.053  -3.799  0.00  0.00    +0.047 A 
ATOM     28  C   UNL     1      -5.512   3.503  -2.851  0.00  0.00    +0.141 A 
BRANCH  28  29
ATOM     29  O   UNL     1      -6.016   2.730  -1.852  0.00  0.00    -0.493 OA
ATOM     30  C   UNL     1      -7.431   2.525  -1.841  0.00  0.00    +0.277 C 
ENDBRANCH  28  29
ENDBRANCH  18  23
ENDBRANCH   1  21
BRANCH   1  32
ATOM     31  N   UNL     1      -0.670   0.552   2.326  0.00  0.00    -0.225 N 
ATOM     32  C   UNL     1      -0.641   1.419   1.296  0.00  0.00    +0.143 A 
ATOM     33  N   UNL     1      -1.175   2.535   1.729  0.00  0.00    -0.115 NA
ATOM     34  N   UNL     1      -1.522   2.360   2.958  0.00  0.00    -0.023 NA
ATOM     35  N   UNL     1      -1.215   1.164   3.322  0.00  0.00    -0.043 NA
BRANCH  31  36
ATOM     36  C   UNL     1      -0.176  -0.827   2.317  0.00  0.00    +0.061 C 
ATOM     37  C   UNL     1      -1.020  -1.665   1.354  0.00  0.00    +0.036 C 
ATOM     38  C   UNL     1       1.284  -0.843   1.859  0.00  0.00    +0.036 C 
BRANCH  36  40
ATOM     39  C   UNL     1       0.241  -2.854   3.716  0.00  0.00    +0.006 C 
ATOM     40  C   UNL     1      -0.275  -1.414   3.726  0.00  0.00    +0.026 C 
ENDBRANCH  36  40
ENDBRANCH  31  36
ENDBRANCH   1  32
TORSDOF 7
