REMARK  Name = ZINC36491533
REMARK  17 active torsions:
REMARK  status: ('A' for Active; 'I' for Inactive)
REMARK    1  A    between atoms: C_1  and  C_2
REMARK    2  A    between atoms: C_5  and  C_9
REMARK    3  A    between atoms: C_6  and  C_8
REMARK    4  A    between atoms: C_9  and  C_11
REMARK    5  A    between atoms: C_9  and  N_22
REMARK    6  A    between atoms: N_13  and  C_14
REMARK    7  A    between atoms: C_14  and  C_15
REMARK    8  A    between atoms: C_14  and  C_16
REMARK    9  A    between atoms: C_14  and  C_17
REMARK   10  A    between atoms: C_17  and  C_18
REMARK   11  A    between atoms: C_18  and  C_19
REMARK   12  A    between atoms: C_18  and  C_20
REMARK   13  A    between atoms: C_18  and  C_21
REMARK   14  A    between atoms: N_22  and  C_23
REMARK   15  A    between atoms: C_29  and  C_31
REMARK   16  A    between atoms: C_31  and  O_32
REMARK   17  A    between atoms: O_32  and  C_33
REMARK                            x       y       z     vdW  Elec       q    Type
REMARK                         _______ _______ _______ _____ _____    ______ ____
ROOT
ATOM      1  C   UNL     1       0.957  -4.852   0.278  0.00  0.00    +0.193 C 
ENDROOT
BRANCH   1   6
ATOM      2  C   UNL     1       4.530  -2.413  -3.552  0.00  0.00    +0.044 C 
ATOM      3  C   UNL     1       3.598  -3.049  -2.553  0.00  0.00    -0.050 A 
ATOM      4  C   UNL     1       4.033  -4.109  -1.779  0.00  0.00    +0.004 A 
ATOM      5  C   UNL     1       3.179  -4.692  -0.863  0.00  0.00    +0.006 A 
ATOM      6  C   UNL     1       1.889  -4.215  -0.720  0.00  0.00    -0.015 A 
ATOM      7  C   UNL     1       1.454  -3.155  -1.492  0.00  0.00    -0.045 A 
ATOM      8  C   UNL     1       2.311  -2.568  -2.406  0.00  0.00    +0.007 A 
ATOM      9  C   UNL     1       0.048  -2.635  -1.337  0.00  0.00    +0.044 C 
ENDBRANCH   1   6
BRANCH   1  10
ATOM     10  C   UNL     1       1.756  -5.410   1.427  0.00  0.00    +0.239 C 
ATOM     11  O   UNL     1       2.128  -6.565   1.403  0.00  0.00    -0.273 OA
ATOM     12  N   UNL     1       2.058  -4.627   2.482  0.00  0.00    -0.308 N 
ATOM     13  H   UNL     1       1.695  -3.730   2.539  0.00  0.00    +0.149 HD
BRANCH  12  14
ATOM     14  C   UNL     1       2.935  -5.132   3.541  0.00  0.00    +0.030 C 
ATOM     15  C   UNL     1       2.326  -6.397   4.148  0.00  0.00    +0.031 C 
ATOM     16  C   UNL     1       4.310  -5.458   2.954  0.00  0.00    +0.031 C 
BRANCH  14  17
ATOM     17  C   UNL     1       3.085  -4.066   4.629  0.00  0.00    +0.031 C 
BRANCH  17  18
ATOM     18  C   UNL     1       3.086  -2.678   3.987  0.00  0.00    -0.036 C 
ATOM     19  C   UNL     1       1.644  -2.236   3.725  0.00  0.00    +0.010 C 
ATOM     20  C   UNL     1       3.762  -1.680   4.929  0.00  0.00    +0.010 C 
ATOM     21  C   UNL     1       3.852  -2.728   2.663  0.00  0.00    +0.010 C 
ENDBRANCH  17  18
ENDBRANCH  14  17
ENDBRANCH  12  14
ENDBRANCH   1  10
BRANCH   1  22
ATOM     22  N   UNL     1       0.212  -5.934  -0.370  0.00  0.00    -0.281 N 
ATOM     23  C   UNL     1      -1.130  -5.990  -0.259  0.00  0.00    +0.242 C 
ATOM     24  O   UNL     1      -1.743  -6.908  -0.760  0.00  0.00    -0.273 OA
BRANCH  22  25
ATOM     25  C   UNL     1       0.926  -6.956  -1.140  0.00  0.00    +0.077 C 
ATOM     26  C   UNL     1       0.434  -6.940  -2.588  0.00  0.00    +0.022 C 
ATOM     27  C   UNL     1       1.180  -8.007  -3.392  0.00  0.00    +0.002 C 
ATOM     28  C   UNL     1       0.916  -9.384  -2.779  0.00  0.00    +0.000 C 
ATOM     29  C   UNL     1       1.409  -9.400  -1.331  0.00  0.00    +0.002 C 
ATOM     30  C   UNL     1       0.663  -8.333  -0.527  0.00  0.00    +0.022 C 
ENDBRANCH  22  25
BRANCH  23  31
ATOM     31  C   UNL     1      -1.869  -4.911   0.490  0.00  0.00    +0.255 C 
BRANCH  31  32
ATOM     32  O   UNL     1      -3.277  -5.132   0.377  0.00  0.00    -0.374 OA
ATOM     33  C   UNL     1      -4.074  -4.159   1.055  0.00  0.00    +0.194 C 
ENDBRANCH  31  32
ENDBRANCH  23  31
ENDBRANCH   1  22
TORSDOF 9
