REMARK  Name = ZINC20608457
REMARK  7 active torsions:
REMARK  status: ('A' for Active; 'I' for Inactive)
REMARK    1  A    between atoms: C_1  and  C_2
REMARK    2  A    between atoms: C_7  and  N_8
REMARK    3  A    between atoms: C_9  and  C_11
REMARK    4  A    between atoms: C_12  and  C_35
REMARK    5  A    between atoms: C_19  and  C_20
REMARK    6  A    between atoms: C_27  and  C_29
REMARK    7  A    between atoms: C_32  and  C_34
REMARK                            x       y       z     vdW  Elec       q    Type
REMARK                         _______ _______ _______ _____ _____    ______ ____
ROOT
ATOM      1  C   UNL     1       2.159  -4.208  -1.217  0.00  0.00    +0.066 C 
ATOM      2  C   UNL     1       3.094  -3.427  -1.834  0.00  0.00    +0.052 C 
ATOM      3  N   UNL     1       3.926  -2.677  -1.120  0.00  0.00    -0.228 NA
ATOM      4  C   UNL     1       3.935  -2.613   0.185  0.00  0.00    +0.178 A 
ATOM      5  N   UNL     1       3.078  -3.318   1.000  0.00  0.00    -0.272 N 
ATOM      6  C   UNL     1       3.193  -3.163   2.325  0.00  0.00    +0.268 A 
ATOM      7  O   UNL     1       2.455  -3.768   3.082  0.00  0.00    -0.266 OA
ATOM      8  C   UNL     1       4.186  -2.284   2.839  0.00  0.00    +0.082 A 
ATOM      9  C   UNL     1       4.481  -1.975   4.134  0.00  0.00    +0.046 C 
ATOM     10  S   UNL     1       4.943  -1.695   1.332  0.00  0.00    -0.046 S 
ATOM     11  C   UNL     1       2.101  -4.192   0.293  0.00  0.00    +0.195 C 
ATOM     12  C   UNL     1       3.182  -3.415  -3.339  0.00  0.00    +0.066 C 
ENDROOT
BRANCH   9  13
ATOM     13  C   UNL     1       3.438  -1.753   5.063  0.00  0.00    +0.040 A 
ATOM     14  C   UNL     1       3.583  -1.312   6.367  0.00  0.00    +0.027 A 
ATOM     15  C   UNL     1       2.300  -1.232   6.919  0.00  0.00    +0.019 A 
ATOM     16  C   UNL     1       1.413  -1.615   5.969  0.00  0.00    +0.083 A 
ATOM     17  N   UNL     1       2.091  -1.929   4.834  0.00  0.00    -0.361 N 
ATOM     18  H   UNL     1       1.741  -2.274   3.849  0.00  0.00    +0.165 HD
ENDBRANCH   9  13
BRANCH  11  19
ATOM     19  C   UNL     1       0.715  -3.763   0.700  0.00  0.00    +0.133 A 
ATOM     20  C   UNL     1      -0.320  -4.584   0.953  0.00  0.00    +0.047 A 
ATOM     21  C   UNL     1      -1.417  -3.763   1.303  0.00  0.00    +0.045 A 
ATOM     22  C   UNL     1      -0.989  -2.490   1.235  0.00  0.00    +0.102 A 
ATOM     23  O   UNL     1       0.304  -2.496   0.873  0.00  0.00    -0.462 OA
ATOM     24  C   UNL     1      -1.818  -1.265   1.523  0.00  0.00    +0.086 C 
ENDBRANCH  11  19
BRANCH   1  26
ATOM     25  N   UNL     1       0.292  -4.427  -2.686  0.00  0.00    -0.281 N 
ATOM     26  C   UNL     1       1.274  -5.005  -1.966  0.00  0.00    +0.248 C 
ATOM     27  O   UNL     1       1.396  -6.218  -1.964  0.00  0.00    -0.270 OA
ATOM     28  H   UNL     1       0.236  -3.331  -2.760  0.00  0.00    +0.155 HD
BRANCH  25  35
ATOM     29  C   UNL     1      -1.491  -3.166  -4.509  0.00  0.00    +0.045 C 
ATOM     30  C   UNL     1      -1.546  -4.647  -4.236  0.00  0.00    -0.029 A 
ATOM     31  C   UNL     1      -2.481  -5.434  -4.879  0.00  0.00    +0.005 A 
ATOM     32  C   UNL     1      -2.532  -6.793  -4.630  0.00  0.00    +0.000 A 
ATOM     33  C   UNL     1      -1.647  -7.369  -3.735  0.00  0.00    +0.002 A 
ATOM     34  C   UNL     1      -0.706  -6.588  -3.094  0.00  0.00    +0.023 A 
ATOM     35  C   UNL     1      -0.656  -5.221  -3.338  0.00  0.00    +0.037 A 
ENDBRANCH  25  35
ENDBRANCH   1  26
TORSDOF 4
