REMARK  Name = ZINC36309556
REMARK  13 active torsions:
REMARK  status: ('A' for Active; 'I' for Inactive)
REMARK    1  A    between atoms: C_1  and  C_2
REMARK    2  A    between atoms: C_5  and  O_8
REMARK    3  A    between atoms: O_8  and  C_9
REMARK    4  A    between atoms: C_9  and  C_10
REMARK    5  A    between atoms: C_20  and  C_22
REMARK    6  A    between atoms: C_22  and  N_23
REMARK    7  A    between atoms: N_23  and  C_24
REMARK    8  A    between atoms: N_23  and  C_28
REMARK    9  A    between atoms: C_24  and  C_25
REMARK   10  A    between atoms: C_28  and  C_29
REMARK   11  A    between atoms: C_29  and  C_31
REMARK   12  A    between atoms: C_29  and  O_38
REMARK   13  A    between atoms: C_31  and  C_32
REMARK                            x       y       z     vdW  Elec       q    Type
REMARK                         _______ _______ _______ _____ _____    ______ ____
ROOT
ATOM      1  C   UNL     1       1.425  -5.297   1.943  0.00  0.00    +0.144 C 
ATOM      2  C   UNL     1       0.044  -5.314   1.290  0.00  0.00    -0.014 A 
ATOM      3  C   UNL     1      -1.120  -4.934   1.956  0.00  0.00    +0.013 A 
ATOM      4  C   UNL     1      -2.310  -4.970   1.313  0.00  0.00    +0.046 A 
ATOM      5  S   UNL     1      -1.835  -5.558  -0.306  0.00  0.00    -0.101 S 
ATOM      6  C   UNL     1      -0.095  -5.713  -0.003  0.00  0.00    -0.004 A 
ATOM      7  C   UNL     1       0.973  -6.177  -0.940  0.00  0.00    +0.061 C 
ATOM      8  C   UNL     1       2.340  -5.764  -0.373  0.00  0.00    +0.113 C 
ATOM      9  N   UNL     1       2.344  -6.042   1.072  0.00  0.00    -0.292 N 
ATOM     10  C   UNL     1       3.177  -6.967   1.589  0.00  0.00    +0.200 C 
ATOM     11  O   UNL     1       3.172  -7.189   2.782  0.00  0.00    -0.278 OA
ENDROOT
BRANCH   1  12
ATOM     12  C   UNL     1       1.909  -3.854   2.094  0.00  0.00    +0.256 C 
BRANCH  12  13
ATOM     13  O   UNL     1       1.860  -3.200   0.824  0.00  0.00    -0.490 OA
BRANCH  13  18
ATOM     14  C   UNL     1       3.516   2.181   0.653  0.00  0.00    +0.044 C 
ATOM     15  C   UNL     1       3.073   0.741   0.699  0.00  0.00    -0.050 A 
ATOM     16  C   UNL     1       2.645   0.114  -0.456  0.00  0.00    +0.007 A 
ATOM     17  C   UNL     1       2.238  -1.206  -0.417  0.00  0.00    +0.046 A 
ATOM     18  C   UNL     1       2.260  -1.902   0.783  0.00  0.00    +0.121 A 
ATOM     19  C   UNL     1       2.691  -1.270   1.941  0.00  0.00    +0.046 A 
ATOM     20  C   UNL     1       3.102   0.048   1.895  0.00  0.00    +0.007 A 
ENDBRANCH  13  18
ENDBRANCH  12  13
ENDBRANCH   1  12
BRANCH  10  21
ATOM     21  C   UNL     1       4.116  -7.725   0.686  0.00  0.00    +0.019 C 
BRANCH  21  22
ATOM     22  N   UNL     1       4.912  -8.666   1.486  0.00  0.00    +0.387 N 
ATOM     23  H   UNL     1       5.358  -8.170   2.243  0.00  0.00    -0.081 HD
BRANCH  22  24
ATOM     24  C   UNL     1       4.033  -9.708   2.033  0.00  0.00    -0.075 C 
BRANCH  24  25
ATOM     25  C   UNL     1       4.844 -10.630   2.946  0.00  0.00    -0.028 C 
ATOM     26  C   UNL     1       5.062 -12.071   2.480  0.00  0.00    +0.002 C 
ATOM     27  C   UNL     1       4.099 -11.777   3.632  0.00  0.00    +0.002 C 
ENDBRANCH  24  25
ENDBRANCH  22  24
BRANCH  22  28
ATOM     28  C   UNL     1       5.936  -9.286   0.635  0.00  0.00    -0.046 C 
BRANCH  28  29
ATOM     29  C   UNL     1       6.970  -8.232   0.231  0.00  0.00    +0.102 C 
BRANCH  29  30
ATOM     30  O   UNL     1       6.377  -7.311  -0.687  0.00  0.00    -0.393 OA
ATOM     31  H   UNL     1       6.053  -7.721  -1.501  0.00  0.00    +0.210 HD
ENDBRANCH  29  30
BRANCH  29  32
ATOM     32  C   UNL     1       8.164  -8.919  -0.435  0.00  0.00    +0.064 C 
BRANCH  32  33
ATOM     33  C   UNL     1       9.234  -7.898  -0.723  0.00  0.00    -0.045 A 
ATOM     34  C   UNL     1       9.239  -7.221  -1.928  0.00  0.00    +0.004 A 
ATOM     35  C   UNL     1      10.221  -6.285  -2.191  0.00  0.00    +0.000 A 
ATOM     36  C   UNL     1      11.198  -6.024  -1.249  0.00  0.00    +0.000 A 
ATOM     37  C   UNL     1      11.193  -6.700  -0.043  0.00  0.00    +0.000 A 
ATOM     38  C   UNL     1      10.208  -7.633   0.222  0.00  0.00    +0.004 A 
ENDBRANCH  32  33
ENDBRANCH  29  32
ENDBRANCH  28  29
ENDBRANCH  22  28
ENDBRANCH  21  22
ENDBRANCH  10  21
TORSDOF 12
