REMARK  Name = ZINC10000968
REMARK  11 active torsions:
REMARK  status: ('A' for Active; 'I' for Inactive)
REMARK    1  A    between atoms: C_1  and  C_2
REMARK    2  A    between atoms: C_2  and  C_3
REMARK    3  A    between atoms: C_2  and  C_4
REMARK    4  A    between atoms: C_4  and  C_6
REMARK    5  A    between atoms: C_4  and  N_26
REMARK    6  A    between atoms: N_8  and  N_9
REMARK    7  A    between atoms: C_10  and  C_11
REMARK    8  A    between atoms: C_16  and  O_17
REMARK    9  A    between atoms: O_17  and  C_18
REMARK   10  A    between atoms: C_18  and  C_19
REMARK   11  A    between atoms: C_27  and  C_29
REMARK                            x       y       z     vdW  Elec       q    Type
REMARK                         _______ _______ _______ _____ _____    ______ ____
ROOT
ATOM      1  C   UNL     1      -3.538   6.975  -1.035  0.00  0.00    +0.253 C 
ATOM      2  O   UNL     1      -2.504   7.607  -1.075  0.00  0.00    -0.272 OA
ATOM      3  N   UNL     1      -3.504   5.633  -0.917  0.00  0.00    -0.205 N 
ATOM      4  H   UNL     1      -4.328   5.122  -0.946  0.00  0.00    +0.177 HD
ENDROOT
BRANCH   3   5
ATOM      5  N   UNL     1      -2.278   4.975  -0.754  0.00  0.00    -0.188 NA
ATOM      6  C   UNL     1      -2.232   3.678  -0.755  0.00  0.00    +0.142 C 
BRANCH   6   7
ATOM      7  C   UNL     1      -0.954   2.986  -0.513  0.00  0.00    +0.036 A 
ATOM      8  C   UNL     1      -0.876   1.595  -0.626  0.00  0.00    +0.013 A 
ATOM      9  C   UNL     1       0.322   0.953  -0.394  0.00  0.00    +0.001 A 
ATOM     10  C   UNL     1       1.452   1.682  -0.060  0.00  0.00    +0.004 A 
ATOM     11  C   UNL     1       1.389   3.058   0.049  0.00  0.00    +0.046 A 
ATOM     12  C   UNL     1       0.192   3.719  -0.176  0.00  0.00    +0.130 A 
BRANCH  12  13
ATOM     13  O   UNL     1       0.129   5.071  -0.068  0.00  0.00    -0.487 OA
BRANCH  13  14
ATOM     14  C   UNL     1       1.360   5.762   0.153  0.00  0.00    +0.266 C 
BRANCH  14  15
ATOM     15  C   UNL     1       1.079   7.223   0.398  0.00  0.00    +0.008 A 
ATOM     16  C   UNL     1      -0.226   7.669   0.491  0.00  0.00    +0.008 A 
ATOM     17  C   UNL     1      -0.483   9.008   0.720  0.00  0.00    +0.000 A 
ATOM     18  C   UNL     1       0.564   9.902   0.845  0.00  0.00    +0.001 A 
ATOM     19  C   UNL     1       1.868   9.458   0.746  0.00  0.00    +0.020 A 
ATOM     20  C   UNL     1       2.127   8.117   0.522  0.00  0.00    +0.047 A 
ATOM     21 CL   UNL     1       3.766   7.558   0.397  0.00  0.00    -0.083 Cl
ENDBRANCH  14  15
ENDBRANCH  13  14
ENDBRANCH  12  13
ENDBRANCH   6   7
ENDBRANCH   3   5
BRANCH   1  22
ATOM     22  C   UNL     1      -4.862   7.691  -1.116  0.00  0.00    +0.163 C 
BRANCH  22  23
ATOM     23  N   UNL     1      -4.631   9.132  -1.238  0.00  0.00    -0.300 N 
ATOM     24  C   UNL     1      -5.563   9.917  -1.815  0.00  0.00    +0.245 C 
ATOM     25  O   UNL     1      -6.594   9.429  -2.234  0.00  0.00    -0.270 OA
ATOM     26  H   UNL     1      -3.808   9.522  -0.904  0.00  0.00    +0.150 HD
BRANCH  24  27
ATOM     27  C   UNL     1      -5.330  11.370  -1.938  0.00  0.00    +0.040 A 
ATOM     28  C   UNL     1      -4.148  11.933  -1.452  0.00  0.00    +0.017 A 
ATOM     29  C   UNL     1      -3.930  13.288  -1.573  0.00  0.00    +0.050 A 
ATOM     30  C   UNL     1      -4.888  14.100  -2.166  0.00  0.00    +0.166 A 
ATOM     31  C   UNL     1      -6.073  13.544  -2.649  0.00  0.00    +0.167 A 
ATOM     32  C   UNL     1      -6.294  12.185  -2.536  0.00  0.00    +0.062 A 
ATOM     33  O   UNL     1      -6.838  14.543  -3.179  0.00  0.00    -0.453 OA
ATOM     34  C   UNL     1      -6.292  15.766  -2.650  0.00  0.00    +0.466 C 
ATOM     35  O   UNL     1      -4.912  15.444  -2.396  0.00  0.00    -0.453 OA
ENDBRANCH  24  27
ENDBRANCH  22  23
BRANCH  22  37
ATOM     36  C   UNL     1      -4.957   8.017   1.359  0.00  0.00    +0.009 C 
ATOM     37  C   UNL     1      -5.673   7.410   0.151  0.00  0.00    +0.012 C 
ATOM     38  C   UNL     1      -7.064   8.032   0.016  0.00  0.00    +0.009 C 
ENDBRANCH  22  37
ENDBRANCH   1  22
TORSDOF 9
