REMARK  Name = ZINC18531447
REMARK  12 active torsions:
REMARK  status: ('A' for Active; 'I' for Inactive)
REMARK    1  A    between atoms: C_1  and  C_2
REMARK    2  A    between atoms: N_11  and  S_12
REMARK    3  A    between atoms: S_12  and  C_15
REMARK    4  A    between atoms: C_19  and  C_21
REMARK    5  A    between atoms: C_21  and  O_23
REMARK    6  A    between atoms: O_23  and  C_24
REMARK    7  A    between atoms: C_24  and  C_26
REMARK    8  A    between atoms: C_24  and  C_27
REMARK    9  A    between atoms: N_32  and  C_33
REMARK   10  A    between atoms: C_33  and  C_34
REMARK   11  A    between atoms: C_33  and  C_35
REMARK   12  A    between atoms: C_33  and  C_36
REMARK                            x       y       z     vdW  Elec       q    Type
REMARK                         _______ _______ _______ _____ _____    ______ ____
ROOT
ATOM      1  C   UNL     1      -8.109   2.562   1.734  0.00  0.00    +0.110 A 
ATOM      2  C   UNL     1      -8.068   3.859   1.253  0.00  0.00    +0.029 A 
ATOM      3  C   UNL     1      -6.935   4.332   0.616  0.00  0.00    +0.003 A 
ATOM      4  C   UNL     1      -5.836   3.514   0.459  0.00  0.00    +0.015 A 
ATOM      5  C   UNL     1      -5.872   2.202   0.937  0.00  0.00    +0.061 A 
ATOM      6  C   UNL     1      -7.019   1.732   1.580  0.00  0.00    +0.043 A 
ENDROOT
BRANCH   1   7
ATOM      7  S   UNL     1      -9.557   1.970   2.544  0.00  0.00    +0.075 S 
ATOM      8  O   UNL     1     -10.638   2.767   2.079  0.00  0.00    -0.150 OA
ATOM      9  O   UNL     1      -9.544   0.555   2.417  0.00  0.00    -0.150 OA
BRANCH   7  19
ATOM     10  C   UNL     1      -9.566   0.092   5.221  0.00  0.00    +0.030 C 
ATOM     11  C   UNL     1      -8.777   1.401   5.140  0.00  0.00    +0.099 C 
ATOM     12  C   UNL     1      -8.850   2.155   6.478  0.00  0.00    +0.061 C 
ATOM     13  C   UNL     1      -9.526   3.465   6.139  0.00  0.00    -0.023 A 
ATOM     14  C   UNL     1      -9.865   4.542   6.935  0.00  0.00    +0.005 A 
ATOM     15  C   UNL     1     -10.488   5.645   6.382  0.00  0.00    +0.000 A 
ATOM     16  C   UNL     1     -10.772   5.668   5.028  0.00  0.00    +0.002 A 
ATOM     17  C   UNL     1     -10.436   4.596   4.230  0.00  0.00    +0.025 A 
ATOM     18  C   UNL     1      -9.806   3.478   4.781  0.00  0.00    +0.055 A 
ATOM     19  N   UNL     1      -9.386   2.302   4.158  0.00  0.00    -0.200 N 
ENDBRANCH   7  19
ENDBRANCH   1   7
BRANCH   5  20
ATOM     20  C   UNL     1      -4.700   1.319   0.769  0.00  0.00    +0.340 C 
ATOM     21  O   UNL     1      -4.732   0.180   1.190  0.00  0.00    -0.245 OA
BRANCH  20  22
ATOM     22  O   UNL     1      -3.595   1.776   0.148  0.00  0.00    -0.449 OA
BRANCH  22  23
ATOM     23  C   UNL     1      -2.482   0.853   0.018  0.00  0.00    +0.259 C 
ATOM     24  C   UNL     1      -2.615   0.075  -1.292  0.00  0.00    +0.062 C 
BRANCH  23  25
ATOM     25  C   UNL     1      -1.187   1.624   0.017  0.00  0.00    +0.261 C 
ATOM     26  O   UNL     1      -1.204   2.836   0.023  0.00  0.00    -0.271 OA
ATOM     27  N   UNL     1      -0.011   0.966   0.007  0.00  0.00    -0.237 N 
ATOM     28  C   UNL     1       1.147   1.655   0.000  0.00  0.00    +0.306 C 
ATOM     29  O   UNL     1       1.130   2.871   0.007  0.00  0.00    -0.252 OA
ATOM     30  N   UNL     1       2.323   0.998  -0.015  0.00  0.00    -0.294 N 
ATOM     31  H   UNL     1       0.002  -0.004   0.002  0.00  0.00    +0.159 HD
ATOM     32  H   UNL     1       2.336   0.028  -0.020  0.00  0.00    +0.151 HD
BRANCH  30  33
ATOM     33  C   UNL     1       3.582   1.747  -0.023  0.00  0.00    +0.028 C 
ATOM     34  C   UNL     1       3.663   2.621   1.230  0.00  0.00    +0.031 C 
ATOM     35  C   UNL     1       4.758   0.769  -0.039  0.00  0.00    +0.031 C 
ATOM     36  C   UNL     1       3.639   2.635  -1.268  0.00  0.00    +0.031 C 
ENDBRANCH  30  33
ENDBRANCH  23  25
ENDBRANCH  22  23
ENDBRANCH  20  22
ENDBRANCH   5  20
TORSDOF 7
