REMARK  Name = ZINC08868908
REMARK  9 active torsions:
REMARK  status: ('A' for Active; 'I' for Inactive)
REMARK    1  A    between atoms: C_1  and  N_60
REMARK    2  A    between atoms: C_2  and  N_60
REMARK    3  A    between atoms: C_3  and  C_4
REMARK    4  A    between atoms: C_3  and  N_60
REMARK    5  A    between atoms: C_4  and  C_5
REMARK    6  A    between atoms: C_5  and  N_6
REMARK    7  A    between atoms: C_17  and  C_19
REMARK    8  A    between atoms: N_24  and  S_25
REMARK    9  A    between atoms: S_25  and  C_28
REMARK                            x       y       z     vdW  Elec       q    Type
REMARK                         _______ _______ _______ _____ _____    ______ ____
ROOT
ATOM      1  N   UNL     1       0.191   0.752   2.219  0.00  0.00    -0.249 N 
ATOM      2  C   UNL     1       1.430   1.186   2.664  0.00  0.00    +0.168 A 
ATOM      3  N   UNL     1       2.124   0.770   3.697  0.00  0.00    -0.224 NA
ATOM      4  C   UNL     1       3.331   1.289   4.017  0.00  0.00    +0.080 A 
ATOM      5  C   UNL     1       4.175   0.934   5.094  0.00  0.00    +0.032 A 
ATOM      6  C   UNL     1       5.378   1.563   5.278  0.00  0.00    +0.040 A 
ATOM      7  C   UNL     1       5.811   2.568   4.420  0.00  0.00    +0.125 A 
ATOM      8  C   UNL     1       5.008   2.940   3.356  0.00  0.00    +0.055 A 
ATOM      9  C   UNL     1       3.802   2.313   3.165  0.00  0.00    +0.043 A 
ATOM     10  S   UNL     1       2.490   2.447   1.974  0.00  0.00    -0.052 S 
ATOM     11  F   UNL     1       7.001   3.173   4.623  0.00  0.00    -0.205 F 
ATOM     12  C   UNL     1      -0.458  -0.227   2.879  0.00  0.00    +0.240 C 
ATOM     13  O   UNL     1      -1.502  -0.664   2.443  0.00  0.00    -0.273 OA
ENDROOT
BRANCH  12  14
ATOM     14  C   UNL     1       0.114  -0.779   4.160  0.00  0.00    +0.166 C 
ATOM     15  C   UNL     1      -0.191   0.181   5.328  0.00  0.00    +0.031 C 
ATOM     16  C   UNL     1      -1.455  -0.446   5.972  0.00  0.00    +0.019 C 
ATOM     17  C   UNL     1      -1.179  -1.959   5.790  0.00  0.00    +0.110 C 
ATOM     18  N   UNL     1      -0.520  -2.067   4.476  0.00  0.00    -0.165 NA
BRANCH  18  19
ATOM     19  S   UNL     1      -0.499  -3.416   3.515  0.00  0.00    +0.062 S 
ATOM     20  O   UNL     1      -1.630  -4.194   3.882  0.00  0.00    -0.153 OA
ATOM     21  O   UNL     1      -0.284  -2.963   2.185  0.00  0.00    -0.153 OA
BRANCH  19  22
ATOM     22  C   UNL     1       0.924  -4.353   3.964  0.00  0.00    +0.106 A 
ATOM     23  C   UNL     1       2.127  -4.133   3.320  0.00  0.00    +0.031 A 
ATOM     24  C   UNL     1       3.245  -4.864   3.675  0.00  0.00    +0.040 A 
ATOM     25  C   UNL     1       3.157  -5.825   4.668  0.00  0.00    +0.124 A 
ATOM     26  C   UNL     1       1.950  -6.048   5.308  0.00  0.00    +0.040 A 
ATOM     27  C   UNL     1       0.835  -5.312   4.956  0.00  0.00    +0.031 A 
ATOM     28  F   UNL     1       4.248  -6.544   5.012  0.00  0.00    -0.205 F 
ENDBRANCH  19  22
ENDBRANCH  18  19
ENDBRANCH  12  14
BRANCH   1  29
ATOM     29  C   UNL     1      -0.413   1.358   1.029  0.00  0.00    +0.114 C 
BRANCH  29  30
ATOM     30  C   UNL     1       0.008   0.571  -0.214  0.00  0.00    +0.001 C 
BRANCH  30  31
ATOM     31  C   UNL     1      -0.653   1.182  -1.451  0.00  0.00    -0.078 C 
BRANCH  31  34
ATOM     32  C   UNL     1      -1.040   0.828  -3.815  0.00  0.00    -0.097 C 
ATOM     33  C   UNL     1       1.189   0.581  -2.904  0.00  0.00    -0.097 C 
ATOM     34  N   UNL     1      -0.254   0.399  -2.640  0.00  0.00    +0.376 N 
ATOM     35  H   UNL     1      -0.437  -0.596  -2.461  0.00  0.00    -0.083 HD
ENDBRANCH  31  34
ENDBRANCH  30  31
ENDBRANCH  29  30
ENDBRANCH   1  29
TORSDOF 7
