REMARK  Name = ZINC27330476
REMARK  9 active torsions:
REMARK  status: ('A' for Active; 'I' for Inactive)
REMARK    1  A    between atoms: C_1  and  C_2
REMARK    2  A    between atoms: C_2  and  O_4
REMARK    3  A    between atoms: O_4  and  C_5
REMARK    4  A    between atoms: C_10  and  C_36
REMARK    5  A    between atoms: C_15  and  C_16
REMARK    6  A    between atoms: C_15  and  C_17
REMARK    7  A    between atoms: C_20  and  C_35
REMARK    8  A    between atoms: C_24  and  C_30
REMARK    9  A    between atoms: C_26  and  C_29
REMARK                            x       y       z     vdW  Elec       q    Type
REMARK                         _______ _______ _______ _____ _____    ______ ____
ROOT
ATOM      1  C   UNL     1      -0.939  -1.742  -0.946  0.00  0.00    +0.187 C 
ATOM      2  C   UNL     1       0.441  -2.253  -0.580  0.00  0.00    +0.051 C 
ATOM      3  C   UNL     1       1.434  -2.374  -1.714  0.00  0.00    +0.016 C 
ATOM      4  C   UNL     1       0.855  -3.014  -2.961  0.00  0.00    -0.006 C 
ATOM      5  C   UNL     1       1.760  -2.879  -4.162  0.00  0.00    -0.016 C 
ATOM      6  C   UNL     1       2.888  -2.196  -4.181  0.00  0.00    +0.043 C 
ATOM      7  C   UNL     1       3.338  -1.466  -2.997  0.00  0.00    +0.162 C 
ATOM      8  O   UNL     1       4.485  -1.098  -2.869  0.00  0.00    -0.292 OA
ATOM      9  C   UNL     1       2.294  -1.146  -1.936  0.00  0.00    +0.031 C 
ATOM     10  C   UNL     1       1.504   0.080  -2.385  0.00  0.00    +0.019 C 
ATOM     11  C   UNL     1       3.058  -0.793  -0.644  0.00  0.00    +0.019 C 
ATOM     12  C   UNL     1      -0.504  -2.442  -3.321  0.00  0.00    +0.012 C 
ATOM     13  C   UNL     1      -1.513  -2.402  -2.191  0.00  0.00    +0.030 C 
ATOM     14  C   UNL     1      -2.683  -1.567  -2.699  0.00  0.00    -0.057 C 
ATOM     15  C   UNL     1      -3.628  -1.012  -2.003  0.00  0.00    -0.026 C 
ATOM     16  C   UNL     1      -4.627  -0.330  -2.918  0.00  0.00    +0.036 C 
ATOM     17  C   UNL     1      -4.399  -1.036  -4.283  0.00  0.00    +0.036 C 
ATOM     18  C   UNL     1      -2.875  -1.296  -4.183  0.00  0.00    -0.003 C 
ATOM     19  C   UNL     1      -2.476  -2.547  -4.948  0.00  0.00    +0.012 C 
ATOM     20  C   UNL     1      -1.073  -3.027  -4.598  0.00  0.00    +0.006 C 
ATOM     21  C   UNL     1      -2.119  -0.056  -4.665  0.00  0.00    +0.016 C 
ATOM     22  C   UNL     1      -2.076  -3.786  -1.836  0.00  0.00    +0.020 C 
ATOM     23  C   UNL     1       0.766  -4.533  -2.703  0.00  0.00    +0.016 C 
ENDROOT
BRANCH  17  24
ATOM     24  C   UNL     1      -4.713  -0.113  -5.432  0.00  0.00    -0.005 A 
ATOM     25  C   UNL     1      -4.434   1.271  -5.503  0.00  0.00    +0.045 A 
ATOM     26  C   UNL     1      -4.880   1.698  -6.698  0.00  0.00    +0.195 A 
ATOM     27  O   UNL     1      -5.412   0.652  -7.351  0.00  0.00    -0.471 OA
ATOM     28  C   UNL     1      -5.309  -0.450  -6.590  0.00  0.00    +0.198 A 
ENDBRANCH  17  24
BRANCH   1  29
ATOM     29  O   UNL     1      -0.965  -0.322  -1.064  0.00  0.00    -0.461 OA
BRANCH  29  31
ATOM     30  C   UNL     1      -1.222   1.885   0.013  0.00  0.00    +0.136 C 
ATOM     31  C   UNL     1      -1.181   0.379   0.060  0.00  0.00    +0.304 C 
ATOM     32  O   UNL     1      -1.342  -0.197   1.110  0.00  0.00    -0.251 OA
ENDBRANCH  29  31
ENDBRANCH   1  29
TORSDOF 3
