REMARK  Name = ZINC31783442
REMARK  8 active torsions:
REMARK  status: ('A' for Active; 'I' for Inactive)
REMARK    1  A    between atoms: C_1  and  C_2
REMARK    2  A    between atoms: N_6  and  C_16
REMARK    3  A    between atoms: C_16  and  N_17
REMARK    4  A    between atoms: C_20  and  O_31
REMARK    5  A    between atoms: C_23  and  O_29
REMARK    6  A    between atoms: C_25  and  O_28
REMARK    7  A    between atoms: O_29  and  C_30
REMARK    8  A    between atoms: O_31  and  C_32
REMARK                            x       y       z     vdW  Elec       q    Type
REMARK                         _______ _______ _______ _____ _____    ______ ____
ROOT
ATOM      1  C   UNL     1      -4.787   6.597   0.079  0.00  0.00    +0.233 C 
ENDROOT
BRANCH   1   7
ATOM      2  C   UNL     1      -2.502  -0.485   0.027  0.00  0.00    +0.044 C 
ATOM      3  C   UNL     1      -2.499   1.022   0.033  0.00  0.00    -0.038 A 
ATOM      4  C   UNL     1      -3.662   1.705   0.047  0.00  0.00    +0.052 A 
ATOM      5  C   UNL     1      -3.647   3.170   0.053  0.00  0.00    +0.160 A 
ATOM      6  N   UNL     1      -4.624   4.046   0.066  0.00  0.00    -0.150 NA
ATOM      7  N   UNL     1      -4.057   5.326   0.066  0.00  0.00    -0.225 N 
ATOM      8  C   UNL     1      -2.717   5.178   0.053  0.00  0.00    +0.184 A 
ATOM      9  S   UNL     1      -1.562   6.442   0.048  0.00  0.00    -0.011 S 
ATOM     10  N   UNL     1      -2.448   3.856   0.045  0.00  0.00    -0.271 N 
ATOM     11  C   UNL     1      -1.242   3.164   0.030  0.00  0.00    +0.058 A 
ATOM     12  C   UNL     1      -1.231   1.761   0.017  0.00  0.00    +0.002 A 
ATOM     13  C   UNL     1      -0.013   1.076   0.008  0.00  0.00    +0.010 A 
ATOM     14  C   UNL     1       1.170   1.784   0.001  0.00  0.00    +0.001 A 
ATOM     15  C   UNL     1       1.156   3.169   0.007  0.00  0.00    +0.002 A 
ATOM     16  C   UNL     1      -0.039   3.859   0.022  0.00  0.00    +0.027 A 
ENDBRANCH   1   7
BRANCH   1  17
ATOM     17  N   UNL     1      -5.043   7.028  -1.301  0.00  0.00    -0.276 NA
ATOM     18  C   UNL     1      -5.960   6.106  -1.978  0.00  0.00    +0.125 C 
ATOM     19  C   UNL     1      -6.138   6.502  -3.420  0.00  0.00    +0.017 A 
ATOM     20  C   UNL     1      -7.229   5.992  -4.118  0.00  0.00    +0.125 A 
ATOM     21  C   UNL     1      -7.429   6.327  -5.447  0.00  0.00    +0.049 A 
ATOM     22  C   UNL     1      -6.542   7.172  -6.085  0.00  0.00    +0.049 A 
ATOM     23  C   UNL     1      -5.456   7.681  -5.392  0.00  0.00    +0.126 A 
ATOM     24  C   UNL     1      -5.255   7.347  -4.056  0.00  0.00    +0.032 A 
ATOM     25  C   UNL     1      -4.065   7.933  -3.340  0.00  0.00    +0.162 C 
ATOM     26  C   UNL     1      -3.787   7.145  -2.059  0.00  0.00    +0.122 C 
BRANCH  25  27
ATOM     27  O   UNL     1      -2.920   7.868  -4.192  0.00  0.00    -0.386 OA
ATOM     28  H   UNL     1      -1.950   8.251  -3.840  0.00  0.00    +0.210 HD
ENDBRANCH  25  27
BRANCH  23  29
ATOM     29  O   UNL     1      -4.582   8.513  -6.020  0.00  0.00    -0.495 OA
ATOM     30  C   UNL     1      -4.847   8.815  -7.391  0.00  0.00    +0.277 C 
ENDBRANCH  23  29
BRANCH  20  31
ATOM     31  O   UNL     1      -8.103   5.160  -3.491  0.00  0.00    -0.495 OA
ATOM     32  C   UNL     1      -9.201   4.671  -4.264  0.00  0.00    +0.277 C 
ENDBRANCH  20  31
ENDBRANCH   1  17
TORSDOF 5
