REMARK  Name = ZINC06182977
REMARK  8 active torsions:
REMARK  status: ('A' for Active; 'I' for Inactive)
REMARK    1  A    between atoms: C_1  and  O_2
REMARK    2  A    between atoms: O_2  and  C_3
REMARK    3  A    between atoms: C_3  and  C_5
REMARK    4  A    between atoms: C_9  and  N_10
REMARK    5  A    between atoms: N_10  and  S_11
REMARK    6  A    between atoms: S_11  and  C_14
REMARK    7  A    between atoms: N_16  and  C_19
REMARK    8  A    between atoms: C_22  and  C_24
REMARK                            x       y       z     vdW  Elec       q    Type
REMARK                         _______ _______ _______ _____ _____    ______ ____
ROOT
ATOM      1  C   UNL     1       2.593  -0.404  -2.752  0.00  0.00    +0.092 A 
ATOM      2  C   UNL     1       1.671   0.095  -1.748  0.00  0.00    -0.018 A 
ATOM      3  C   UNL     1       2.151   1.084  -0.962  0.00  0.00    +0.013 A 
ATOM      4  S   UNL     1       3.802   1.357  -1.537  0.00  0.00    -0.075 S 
ATOM      5  C   UNL     1       3.857   0.176  -2.804  0.00  0.00    +0.100 A 
ATOM      6  C   UNL     1       1.418   1.776   0.144  0.00  0.00    +0.149 C 
ATOM      7  N   UNL     1      -0.018   1.465   0.010  0.00  0.00    -0.310 N 
ATOM      8  C   UNL     1      -0.224   0.020  -0.158  0.00  0.00    +0.111 C 
ATOM      9  C   UNL     1       0.251  -0.422  -1.545  0.00  0.00    +0.056 C 
ENDROOT
BRANCH   7  10
ATOM     10  C   UNL     1      -0.736   1.948   1.099  0.00  0.00    +0.118 A 
ATOM     11  C   UNL     1      -1.313   3.213   1.039  0.00  0.00    +0.079 A 
ATOM     12  C   UNL     1      -2.030   3.679   2.128  0.00  0.00    +0.037 A 
ATOM     13  C   UNL     1      -2.135   2.865   3.248  0.00  0.00    +0.072 A 
ATOM     14  C   UNL     1      -1.532   1.623   3.241  0.00  0.00    +0.096 A 
ATOM     15 CL   UNL     1      -1.143   4.192  -0.386  0.00  0.00    -0.080 Cl
ATOM     16  N   UNL     1      -0.825   1.131   2.188  0.00  0.00    -0.348 N 
ATOM     17  H   UNL     1      -0.387   0.203   2.211  0.00  0.00    +0.167 HD
BRANCH  13  18
ATOM     18  C   UNL     1      -2.900   3.332   4.459  0.00  0.00    +0.419 C 
ATOM     19  F   UNL     1      -2.861   2.341   5.446  0.00  0.00    -0.166 F 
ATOM     20  F   UNL     1      -2.320   4.505   4.953  0.00  0.00    -0.166 F 
ATOM     21  F   UNL     1      -4.229   3.583   4.102  0.00  0.00    -0.166 F 
ENDBRANCH  13  18
ENDBRANCH   7  10
BRANCH   1  22
ATOM     22  C   UNL     1       2.209  -1.473  -3.673  0.00  0.00    +0.342 C 
ATOM     23  O   UNL     1       1.692  -1.201  -4.740  0.00  0.00    -0.245 OA
BRANCH  22  25
ATOM     24  C   UNL     1       2.028  -3.754  -4.287  0.00  0.00    +0.280 C 
ATOM     25  O   UNL     1       2.428  -2.762  -3.340  0.00  0.00    -0.464 OA
ENDBRANCH  22  25
ENDBRANCH   1  22
BRANCH   5  26
ATOM     26  N   UNL     1       4.902  -0.118  -3.658  0.00  0.00    -0.214 N 
ATOM     27  H   UNL     1       4.799  -0.810  -4.330  0.00  0.00    +0.174 HD
BRANCH  26  28
ATOM     28  S   UNL     1       6.330   0.711  -3.536  0.00  0.00    +0.041 S 
ATOM     29  O   UNL     1       7.150   0.174  -4.564  0.00  0.00    -0.155 OA
ATOM     30  O   UNL     1       5.956   2.082  -3.548  0.00  0.00    -0.155 OA
ATOM     31  C   UNL     1       6.993   0.259  -1.909  0.00  0.00    +0.218 C 
ENDBRANCH  26  28
ENDBRANCH   5  26
TORSDOF 6
