REMARK  Name = ZINC67072196
REMARK  9 active torsions:
REMARK  status: ('A' for Active; 'I' for Inactive)
REMARK    1  A    between atoms: C_1  and  C_2
REMARK    2  A    between atoms: C_2  and  N_3
REMARK    3  A    between atoms: N_6  and  C_7
REMARK    4  A    between atoms: C_7  and  C_12
REMARK    5  A    between atoms: N_14  and  C_15
REMARK    6  A    between atoms: C_15  and  C_16
REMARK    7  A    between atoms: N_20  and  C_21
REMARK    8  A    between atoms: C_21  and  C_22
REMARK    9  A    between atoms: C_21  and  C_23
REMARK                            x       y       z     vdW  Elec       q    Type
REMARK                         _______ _______ _______ _____ _____    ______ ____
ROOT
ATOM      1  C   UNL     1       2.425  -4.226  -1.522  0.00  0.00    +0.237 C 
ATOM      2  O   UNL     1       2.259  -5.384  -1.202  0.00  0.00    -0.273 OA
ATOM      3  N   UNL     1       3.253  -3.440  -0.805  0.00  0.00    -0.306 N 
ATOM      4  H   UNL     1       3.442  -2.537  -1.102  0.00  0.00    +0.149 HD
ENDROOT
BRANCH   1   5
ATOM      5  C   UNL     1       1.705  -3.665  -2.721  0.00  0.00    +0.112 C 
ATOM      6  C   UNL     1       0.449  -4.507  -3.027  0.00  0.00    +0.035 C 
ATOM      7  C   UNL     1       0.377  -4.534  -4.574  0.00  0.00    +0.003 C 
ATOM      8  C   UNL     1       1.867  -4.644  -4.984  0.00  0.00    +0.003 C 
ATOM      9  C   UNL     1       2.606  -3.752  -3.966  0.00  0.00    +0.035 C 
BRANCH   5  13
ATOM     10  N   UNL     1       0.337  -0.664  -1.100  0.00  0.00    -0.300 N 
ATOM     11  C   UNL     1       0.599  -1.955  -1.384  0.00  0.00    +0.300 C 
ATOM     12  O   UNL     1       0.178  -2.834  -0.657  0.00  0.00    -0.253 OA
ATOM     13  N   UNL     1       1.327  -2.271  -2.473  0.00  0.00    -0.285 N 
ATOM     14  H   UNL     1       0.673   0.038  -1.679  0.00  0.00    +0.150 HD
ATOM     15  H   UNL     1       1.601  -1.577  -3.092  0.00  0.00    +0.151 HD
BRANCH  10  17
ATOM     16  C   UNL     1      -0.604   1.200   0.174  0.00  0.00    +0.024 C 
ATOM     17  C   UNL     1      -0.455  -0.320   0.084  0.00  0.00    +0.102 C 
ENDBRANCH  10  17
ENDBRANCH   5  13
ENDBRANCH   1   5
BRANCH   3  18
ATOM     18  C   UNL     1       3.867  -3.952   0.423  0.00  0.00    +0.180 C 
BRANCH  18  19
ATOM     19  C   UNL     1       4.741  -2.885   1.030  0.00  0.00    +0.149 A 
ATOM     20  N   UNL     1       4.922  -1.697   0.550  0.00  0.00    -0.157 NA
ATOM     21  N   UNL     1       5.801  -1.012   1.401  0.00  0.00    -0.254 N 
ATOM     22  C   UNL     1       6.127  -1.854   2.403  0.00  0.00    +0.176 A 
ATOM     23  N   UNL     1       5.472  -3.012   2.185  0.00  0.00    -0.303 N 
ATOM     24  S   UNL     1       7.173  -1.512   3.714  0.00  0.00    -0.011 S 
ATOM     25  H   UNL     1       6.116  -0.101   1.289  0.00  0.00    +0.191 HD
BRANCH  23  26
ATOM     26  C   UNL     1       5.532  -4.205   3.034  0.00  0.00    +0.085 C 
ATOM     27  C   UNL     1       6.978  -4.700   3.116  0.00  0.00    +0.030 C 
ATOM     28  C   UNL     1       5.033  -3.857   4.438  0.00  0.00    +0.030 C 
ENDBRANCH  23  26
ENDBRANCH  18  19
ENDBRANCH   3  18
TORSDOF 6
