REMARK  Name = ZINC22906970
REMARK  5 active torsions:
REMARK  status: ('A' for Active; 'I' for Inactive)
REMARK    1  A    between atoms: N_9  and  C_11
REMARK    2  A    between atoms: C_11  and  C_13
REMARK    3  A    between atoms: C_11  and  C_24
REMARK    4  A    between atoms: C_13  and  N_14
REMARK    5  A    between atoms: C_15  and  C_17
REMARK                            x       y       z     vdW  Elec       q    Type
REMARK                         _______ _______ _______ _____ _____    ______ ____
ROOT
ATOM      1  C   UNL     1       4.863  -2.801   0.250  0.00  0.00    +0.140 C 
ENDROOT
BRANCH   1  10
ATOM      2  C   UNL     1      -0.112   1.267   0.134  0.00  0.00    +0.000 A 
ATOM      3  C   UNL     1       1.054   1.994   0.291  0.00  0.00    +0.000 A 
ATOM      4  C   UNL     1       2.273   1.347   0.283  0.00  0.00    +0.005 A 
ATOM      5  C   UNL     1       2.336  -0.030   0.120  0.00  0.00    -0.030 A 
ATOM      6  C   UNL     1       1.173  -0.754  -0.033  0.00  0.00    -0.042 A 
ATOM      7  C   UNL     1      -0.051  -0.102  -0.028  0.00  0.00    +0.004 A 
ATOM      8  C   UNL     1       1.190  -2.251  -0.202  0.00  0.00    +0.051 C 
ATOM      9  C   UNL     1       2.593  -2.716  -0.594  0.00  0.00    +0.090 C 
ATOM     10  N   UNL     1       3.559  -2.131   0.349  0.00  0.00    -0.287 NA
ATOM     11  C   UNL     1       3.689  -0.690   0.113  0.00  0.00    +0.120 C 
ENDBRANCH   1  10
BRANCH   1  12
ATOM     12  C   UNL     1       5.363  -2.719  -1.169  0.00  0.00    +0.123 A 
ATOM     13  C   UNL     1       5.862  -3.741  -1.887  0.00  0.00    +0.046 A 
ATOM     14  C   UNL     1       6.206  -3.220  -3.156  0.00  0.00    +0.041 A 
ATOM     15  C   UNL     1       5.896  -1.911  -3.138  0.00  0.00    +0.195 A 
ATOM     16  O   UNL     1       5.381  -1.615  -1.933  0.00  0.00    -0.466 OA
ENDBRANCH   1  12
BRANCH   1  17
ATOM     17  C   UNL     1       5.862  -2.113   1.183  0.00  0.00    +0.131 C 
BRANCH  17  18
ATOM     18  N   UNL     1       5.320  -2.087   2.544  0.00  0.00    -0.309 N 
ATOM     19  C   UNL     1       6.032  -1.526   3.542  0.00  0.00    +0.244 C 
ATOM     20  O   UNL     1       7.123  -1.042   3.312  0.00  0.00    -0.270 OA
ATOM     21  H   UNL     1       4.449  -2.474   2.727  0.00  0.00    +0.149 HD
BRANCH  19  22
ATOM     22  C   UNL     1       5.485  -1.500   4.915  0.00  0.00    +0.038 A 
ATOM     23  C   UNL     1       4.235  -2.060   5.183  0.00  0.00    +0.013 A 
ATOM     24  C   UNL     1       3.731  -2.033   6.467  0.00  0.00    +0.002 A 
ATOM     25  C   UNL     1       4.460  -1.451   7.488  0.00  0.00    +0.015 A 
ATOM     26  C   UNL     1       5.700  -0.893   7.230  0.00  0.00    +0.019 A 
ATOM     27  C   UNL     1       6.220  -0.920   5.951  0.00  0.00    +0.028 A 
ATOM     28 BR   UNL     1       6.689  -0.099   8.633  0.00  0.00    -0.050 Br
ENDBRANCH  19  22
ENDBRANCH  17  18
ENDBRANCH   1  17
TORSDOF 5
