REMARK  Name = ZINC36584176
REMARK  18 active torsions:
REMARK  status: ('A' for Active; 'I' for Inactive)
REMARK    1  A    between atoms: C_1  and  C_2
REMARK    2  A    between atoms: C_2  and  C_3
REMARK    3  A    between atoms: C_2  and  C_4
REMARK    4  A    between atoms: C_2  and  C_5
REMARK    5  A    between atoms: C_5  and  C_6
REMARK    6  A    between atoms: C_6  and  C_7
REMARK    7  A    between atoms: C_6  and  C_8
REMARK    8  A    between atoms: C_6  and  N_9
REMARK    9  A    between atoms: C_10  and  C_12
REMARK   10  A    between atoms: C_12  and  C_14
REMARK   11  A    between atoms: C_12  and  N_24
REMARK   12  A    between atoms: C_16  and  N_21
REMARK   13  A    between atoms: N_24  and  C_34
REMARK   14  A    between atoms: C_25  and  C_27
REMARK   15  A    between atoms: C_32  and  O_33
REMARK   16  A    between atoms: C_34  and  C_35
REMARK   17  A    between atoms: C_34  and  C_36
REMARK   18  A    between atoms: C_34  and  C_37
REMARK                            x       y       z     vdW  Elec       q    Type
REMARK                         _______ _______ _______ _____ _____    ______ ____
ROOT
ATOM      1  C   UNL     1       4.430   1.058  -2.318  0.00  0.00    +0.194 C 
ENDROOT
BRANCH   1   2
ATOM      2  C   UNL     1       4.157   0.355  -3.623  0.00  0.00    +0.002 A 
ATOM      3  C   UNL     1       5.124  -0.457  -4.185  0.00  0.00    +0.040 A 
ATOM      4  C   UNL     1       4.875  -1.101  -5.382  0.00  0.00    +0.127 A 
ATOM      5  C   UNL     1       3.658  -0.934  -6.018  0.00  0.00    +0.034 A 
ATOM      6  C   UNL     1       2.691  -0.123  -5.456  0.00  0.00    +0.022 A 
ATOM      7  C   UNL     1       2.938   0.518  -4.255  0.00  0.00    +0.047 A 
ATOM      8 CL   UNL     1       1.720   1.532  -3.545  0.00  0.00    -0.083 Cl
BRANCH   4   9
ATOM      9  N   UNL     1       5.911  -1.970  -5.985  0.00  0.00    +0.056 N 
ATOM     10  O   UNL     1       6.975  -2.116  -5.429  0.00  0.00    -0.126 OA
ATOM     11  O   UNL     1       5.693  -2.534  -7.032  0.00  0.00    -0.126 OA
ENDBRANCH   4   9
ENDBRANCH   1   2
BRANCH   1  13
ATOM     12  N   UNL     1       2.801  -0.233  -0.977  0.00  0.00    -0.308 N 
ATOM     13  C   UNL     1       4.080   0.144  -1.172  0.00  0.00    +0.239 C 
ATOM     14  O   UNL     1       4.950  -0.252  -0.425  0.00  0.00    -0.273 OA
ATOM     15  H   UNL     1       2.101   0.111  -1.553  0.00  0.00    +0.149 HD
BRANCH  12  16
ATOM     16  C   UNL     1       2.469  -1.163   0.105  0.00  0.00    +0.030 C 
ATOM     17  C   UNL     1       2.919  -0.572   1.442  0.00  0.00    +0.031 C 
ATOM     18  C   UNL     1       3.184  -2.496  -0.130  0.00  0.00    +0.031 C 
BRANCH  16  19
ATOM     19  C   UNL     1       0.957  -1.394   0.133  0.00  0.00    +0.031 C 
BRANCH  19  21
ATOM     20  C   UNL     1       0.099   0.322  -1.468  0.00  0.00    +0.010 C 
ATOM     21  C   UNL     1       0.234  -0.051   0.010  0.00  0.00    -0.036 C 
ATOM     22  C   UNL     1       1.036   1.029   0.738  0.00  0.00    +0.010 C 
ATOM     23  C   UNL     1      -1.158  -0.162   0.636  0.00  0.00    +0.010 C 
ENDBRANCH  19  21
ENDBRANCH  16  19
ENDBRANCH  12  16
ENDBRANCH   1  13
BRANCH   1  24
ATOM     24  N   UNL     1       5.848   1.416  -2.242  0.00  0.00    -0.277 N 
ATOM     25  C   UNL     1       6.768   0.469  -1.972  0.00  0.00    +0.251 C 
ATOM     26  O   UNL     1       7.952   0.748  -1.988  0.00  0.00    -0.270 OA
BRANCH  25  27
ATOM     27  C   UNL     1       6.340  -0.908  -1.659  0.00  0.00    +0.078 A 
ATOM     28  C   UNL     1       5.083  -1.363  -2.066  0.00  0.00    +0.017 A 
ATOM     29  C   UNL     1       4.689  -2.649  -1.770  0.00  0.00    +0.001 A 
ATOM     30  C   UNL     1       5.534  -3.496  -1.070  0.00  0.00    +0.004 A 
ATOM     31  C   UNL     1       6.778  -3.059  -0.662  0.00  0.00    +0.046 A 
ATOM     32  C   UNL     1       7.193  -1.769  -0.956  0.00  0.00    +0.129 A 
BRANCH  32  33
ATOM     33  O   UNL     1       8.418  -1.340  -0.559  0.00  0.00    -0.506 OA
ATOM     34  H   UNL     1       8.428  -0.935   0.319  0.00  0.00    +0.292 HD
ENDBRANCH  32  33
ENDBRANCH  25  27
BRANCH  24  35
ATOM     35  C   UNL     1       6.267   2.803  -2.460  0.00  0.00    +0.030 C 
ATOM     36  C   UNL     1       5.031   3.688  -2.628  0.00  0.00    +0.031 C 
ATOM     37  C   UNL     1       7.081   3.285  -1.258  0.00  0.00    +0.031 C 
ATOM     38  C   UNL     1       7.128   2.883  -3.723  0.00  0.00    +0.031 C 
ENDBRANCH  24  35
ENDBRANCH   1  24
TORSDOF 10
