REMARK  Name = ZINC38682911
REMARK  14 active torsions:
REMARK  status: ('A' for Active; 'I' for Inactive)
REMARK    1  A    between atoms: C_1  and  C_2
REMARK    2  A    between atoms: C_2  and  C_3
REMARK    3  A    between atoms: C_3  and  C_4
REMARK    4  A    between atoms: C_4  and  O_5
REMARK    5  A    between atoms: O_5  and  C_6
REMARK    6  A    between atoms: C_11  and  C_12
REMARK    7  A    between atoms: C_17  and  O_26
REMARK    8  A    between atoms: C_21  and  N_25
REMARK    9  A    between atoms: C_22  and  C_23
REMARK   10  A    between atoms: O_26  and  C_27
REMARK   11  A    between atoms: C_27  and  C_29
REMARK   12  A    between atoms: C_29  and  C_31
REMARK   13  A    between atoms: C_29  and  O_32
REMARK   14  A    between atoms: O_32  and  C_33
REMARK                            x       y       z     vdW  Elec       q    Type
REMARK                         _______ _______ _______ _____ _____    ______ ____
ROOT
ATOM      1  C   UNL     1       2.608  -3.517  -4.644  0.00  0.00    +0.101 C 
ATOM      2  C   UNL     1       1.977  -3.755  -5.990  0.00  0.00    +0.008 A 
ATOM      3  C   UNL     1       0.709  -3.262  -6.244  0.00  0.00    +0.012 A 
ATOM      4  C   UNL     1       0.114  -3.471  -7.473  0.00  0.00    +0.047 A 
ATOM      5  C   UNL     1       0.789  -4.178  -8.459  0.00  0.00    +0.135 A 
ATOM      6  C   UNL     1       2.059  -4.672  -8.208  0.00  0.00    +0.093 A 
ATOM      7  C   UNL     1       2.655  -4.462  -6.971  0.00  0.00    +0.138 A 
ATOM      8  O   UNL     1       3.898  -4.952  -6.741  0.00  0.00    -0.441 OA
ATOM      9  C   UNL     1       4.641  -4.452  -5.740  0.00  0.00    +0.199 C 
ATOM     10  C   UNL     1       4.088  -3.764  -4.717  0.00  0.00    +0.098 C 
ENDROOT
BRANCH   1  16
ATOM     11  C   UNL     1       1.332  -3.940  -2.527  0.00  0.00    +0.125 A 
ATOM     12  C   UNL     1       0.764  -4.803  -1.601  0.00  0.00    +0.046 A 
ATOM     13  C   UNL     1       0.865  -6.169  -1.779  0.00  0.00    +0.004 A 
ATOM     14  C   UNL     1       1.532  -6.676  -2.879  0.00  0.00    +0.001 A 
ATOM     15  C   UNL     1       2.099  -5.819  -3.803  0.00  0.00    +0.008 A 
ATOM     16  C   UNL     1       1.995  -4.451  -3.633  0.00  0.00    +0.007 A 
BRANCH  11  17
ATOM     17  O   UNL     1       1.233  -2.595  -2.355  0.00  0.00    -0.492 OA
BRANCH  17  18
ATOM     18  C   UNL     1       0.536  -2.140  -1.194  0.00  0.00    +0.229 C 
BRANCH  18  19
ATOM     19  C   UNL     1       0.528  -0.610  -1.171  0.00  0.00    +0.041 C 
BRANCH  19  21
ATOM     20  C   UNL     1      -0.226   1.408   0.095  0.00  0.00    +0.004 C 
ATOM     21  C   UNL     1      -0.218  -0.122   0.072  0.00  0.00    -0.000 C 
ENDBRANCH  19  21
ENDBRANCH  18  19
ENDBRANCH  17  18
ENDBRANCH  11  17
ENDBRANCH   1  16
BRANCH   9  22
ATOM     22  N   UNL     1       5.999  -4.647  -5.756  0.00  0.00    -0.328 N 
ATOM     23  H   UNL     1       6.410  -5.140  -6.484  0.00  0.00    +0.145 HD
ATOM     24  H   UNL     1       6.549  -4.292  -5.040  0.00  0.00    +0.145 HD
ENDBRANCH   9  22
BRANCH  10  25
ATOM     25  C   UNL     1       4.936  -3.257  -3.679  0.00  0.00    +0.101 C 
ATOM     26  N   UNL     1       5.608  -2.856  -2.857  0.00  0.00    -0.191 NA
ENDBRANCH  10  25
BRANCH   5  27
ATOM     27  O   UNL     1       0.205  -4.385  -9.668  0.00  0.00    -0.423 OA
BRANCH  27  28
ATOM     28  C   UNL     1      -0.106  -5.645 -10.011  0.00  0.00    +0.353 C 
ATOM     29  O   UNL     1       0.048  -6.542  -9.217  0.00  0.00    -0.246 OA
BRANCH  28  30
ATOM     30  C   UNL     1      -0.647  -5.940 -11.386  0.00  0.00    +0.279 C 
ATOM     31  C   UNL     1      -2.011  -5.267 -11.553  0.00  0.00    +0.064 C 
BRANCH  30  32
ATOM     32  O   UNL     1      -0.789  -7.353 -11.549  0.00  0.00    -0.475 OA
BRANCH  32  33
ATOM     33  C   UNL     1      -0.574  -7.856 -12.794  0.00  0.00    +0.157 A 
ATOM     34  C   UNL     1      -0.363  -6.998 -13.863  0.00  0.00    +0.048 A 
ATOM     35  C   UNL     1      -0.144  -7.511 -15.127  0.00  0.00    +0.004 A 
ATOM     36  C   UNL     1      -0.136  -8.879 -15.328  0.00  0.00    +0.003 A 
ATOM     37  C   UNL     1      -0.346  -9.738 -14.265  0.00  0.00    +0.042 A 
ATOM     38  C   UNL     1      -0.559  -9.230 -12.996  0.00  0.00    +0.165 A 
ATOM     39  F   UNL     1      -0.759 -10.069 -11.956  0.00  0.00    -0.202 F 
ENDBRANCH  32  33
ENDBRANCH  30  32
ENDBRANCH  28  30
ENDBRANCH  27  28
ENDBRANCH   5  27
TORSDOF 12
