REMARK  Name = ZINC39011787
REMARK  9 active torsions:
REMARK  status: ('A' for Active; 'I' for Inactive)
REMARK    1  A    between atoms: C_1  and  C_2
REMARK    2  A    between atoms: C_2  and  C_4
REMARK    3  A    between atoms: C_4  and  S_5
REMARK    4  A    between atoms: S_5  and  C_6
REMARK    5  A    between atoms: C_10  and  C_14
REMARK    6  A    between atoms: N_12  and  N_13
REMARK    7  A    between atoms: C_17  and  C_20
REMARK    8  A    between atoms: C_23  and  O_26
REMARK    9  A    between atoms: O_26  and  C_27
REMARK                            x       y       z     vdW  Elec       q    Type
REMARK                         _______ _______ _______ _____ _____    ______ ____
ROOT
ATOM      1  C   UNL     1      -3.553  -1.675   1.512  0.00  0.00    +0.214 C 
ATOM      2  N   UNL     1      -4.415  -1.089   0.461  0.00  0.00    -0.228 NA
ATOM      3  N   UNL     1      -4.105  -1.870  -0.747  0.00  0.00    -0.234 NA
ATOM      4  C   UNL     1      -3.928  -3.248  -0.218  0.00  0.00    +0.185 C 
ATOM      5  N   UNL     1      -3.242  -3.054   1.082  0.00  0.00    -0.197 NA
ATOM      6  H   UNL     1      -5.390  -1.171   0.705  0.00  0.00    +0.143 HD
ATOM      7  H   UNL     1      -3.259  -1.539  -1.185  0.00  0.00    +0.143 HD
ENDROOT
BRANCH   4   8
ATOM      8  C   UNL     1      -3.059  -4.078  -1.166  0.00  0.00    +0.187 C 
ATOM      9  C   UNL     1      -3.687  -4.147  -2.546  0.00  0.00    +0.034 C 
ATOM     10  C   UNL     1      -3.917  -5.461  -2.731  0.00  0.00    +0.091 C 
ATOM     11  N   UNL     1      -3.509  -6.171  -1.646  0.00  0.00    -0.154 NA
ATOM     12  N   UNL     1      -3.022  -5.486  -0.739  0.00  0.00    -0.176 NA
BRANCH  10  13
ATOM     13  C   UNL     1      -4.530  -6.051  -3.946  0.00  0.00    +0.002 A 
ATOM     14  C   UNL     1      -4.908  -5.229  -5.007  0.00  0.00    +0.013 A 
ATOM     15  C   UNL     1      -5.477  -5.780  -6.136  0.00  0.00    +0.046 A 
ATOM     16  C   UNL     1      -5.673  -7.152  -6.217  0.00  0.00    +0.120 A 
ATOM     17  C   UNL     1      -5.297  -7.974  -5.162  0.00  0.00    +0.046 A 
ATOM     18  C   UNL     1      -4.723  -7.429  -4.033  0.00  0.00    +0.013 A 
BRANCH  16  19
ATOM     19  O   UNL     1      -6.234  -7.693  -7.330  0.00  0.00    -0.495 OA
ATOM     20  C   UNL     1      -6.407  -9.111  -7.346  0.00  0.00    +0.277 C 
ENDBRANCH  16  19
ENDBRANCH  10  13
ENDBRANCH   4   8
BRANCH   5  21
ATOM     21  N   UNL     1      -3.702  -4.022   2.064  0.00  0.00    -0.264 NA
ATOM     22  H   UNL     1      -3.261  -3.868   2.958  0.00  0.00    +0.137 HD
ATOM     23  H   UNL     1      -4.707  -4.002   2.149  0.00  0.00    +0.137 HD
ENDBRANCH   5  21
BRANCH   1  24
ATOM     24  S   UNL     1      -2.023  -0.713   1.670  0.00  0.00    -0.120 S 
BRANCH  24  25
ATOM     25  C   UNL     1      -1.293  -0.775   0.010  0.00  0.00    +0.101 C 
BRANCH  25  27
ATOM     26  C   UNL     1      -0.018   1.503   0.010  0.00  0.00    +0.039 C 
ATOM     27  C   UNL     1       0.002  -0.004   0.002  0.00  0.00    -0.070 C 
ATOM     28  C   UNL     1       1.145  -0.644  -0.012  0.00  0.00    +0.008 C 
ENDBRANCH  25  27
ENDBRANCH  24  25
ENDBRANCH   1  24
TORSDOF 7
