REMARK  Name = ZINC09152951
REMARK  9 active torsions:
REMARK  status: ('A' for Active; 'I' for Inactive)
REMARK    1  A    between atoms: C_3  and  C_6
REMARK    2  A    between atoms: C_6  and  N_70
REMARK    3  A    between atoms: C_7  and  C_8
REMARK    4  A    between atoms: C_7  and  N_70
REMARK    5  A    between atoms: C_8  and  C_9
REMARK    6  A    between atoms: C_9  and  N_10
REMARK    7  A    between atoms: C_11  and  C_13
REMARK    8  A    between atoms: C_16  and  C_18
REMARK    9  A    between atoms: C_30  and  N_70
REMARK                            x       y       z     vdW  Elec       q    Type
REMARK                         _______ _______ _______ _____ _____    ______ ____
ROOT
ATOM      1  N   UNL     1       6.888   0.222   0.388  0.00  0.00    -0.310 N 
ATOM      2  C   UNL     1       5.810   0.995   0.626  0.00  0.00    +0.264 C 
ATOM      3  O   UNL     1       5.763   2.126   0.183  0.00  0.00    -0.268 OA
ATOM      4  H   UNL     1       6.926  -0.681   0.742  0.00  0.00    +0.149 HD
ENDROOT
BRANCH   2   5
ATOM      5  C   UNL     1       4.689   0.469   1.425  0.00  0.00    +0.147 A 
ATOM      6  C   UNL     1       3.545   1.137   1.741  0.00  0.00    +0.051 A 
ATOM      7  N   UNL     1       2.787   0.300   2.497  0.00  0.00    -0.327 N 
ATOM      8  C   UNL     1       3.473  -0.875   2.616  0.00  0.00    +0.142 A 
ATOM      9  N   UNL     1       4.612  -0.763   1.975  0.00  0.00    -0.223 NA
ATOM     10  C   UNL     1       1.478   0.610   3.079  0.00  0.00    +0.123 C 
ATOM     11  C   UNL     1       0.770   1.655   2.214  0.00  0.00    +0.022 C 
ATOM     12  C   UNL     1       1.140   3.059   2.691  0.00  0.00    +0.002 C 
ATOM     13  C   UNL     1       2.641   3.292   2.554  0.00  0.00    +0.006 C 
ATOM     14  C   UNL     1       3.165   2.535   1.329  0.00  0.00    +0.056 C 
BRANCH   8  15
ATOM     15  C   UNL     1       3.009  -2.074   3.349  0.00  0.00    +0.018 A 
ATOM     16  C   UNL     1       2.010  -1.961   4.315  0.00  0.00    +0.013 A 
ATOM     17  C   UNL     1       1.577  -3.083   4.991  0.00  0.00    +0.021 A 
ATOM     18  C   UNL     1       2.142  -4.318   4.719  0.00  0.00    +0.041 A 
ATOM     19  C   UNL     1       3.138  -4.435   3.765  0.00  0.00    +0.021 A 
ATOM     20  C   UNL     1       3.574  -3.321   3.079  0.00  0.00    +0.013 A 
ATOM     21 CL   UNL     1       1.598  -5.725   5.579  0.00  0.00    -0.084 Cl
ENDBRANCH   8  15
ENDBRANCH   2   5
BRANCH   1  22
ATOM     22  C   UNL     1       8.003   0.745  -0.406  0.00  0.00    +0.103 C 
BRANCH  22  23
ATOM     23  C   UNL     1       9.090  -0.326  -0.526  0.00  0.00    +0.000 C 
BRANCH  23  24
ATOM     24  C   UNL     1      10.254   0.221  -1.355  0.00  0.00    -0.076 C 
BRANCH  24  25
ATOM     25  N   UNL     1      11.371  -0.746  -1.306  0.00  0.00    +0.386 N 
ATOM     26  H   UNL     1      11.617  -0.921  -0.325  0.00  0.00    -0.081 HD
BRANCH  25  27
ATOM     27  C   UNL     1      10.965  -2.021  -1.934  0.00  0.00    -0.068 C 
ATOM     28  C   UNL     1       9.818  -1.796  -2.941  0.00  0.00    -0.015 C 
ATOM     29  C   UNL     1       8.907  -3.037  -2.762  0.00  0.00    -0.002 C 
ATOM     30  C   UNL     1       8.958  -3.281  -1.234  0.00  0.00    -0.002 C 
ATOM     31  C   UNL     1      10.418  -2.965  -0.849  0.00  0.00    -0.015 C 
ENDBRANCH  25  27
BRANCH  25  32
ATOM     32  C   UNL     1      12.550  -0.192  -2.005  0.00  0.00    -0.003 C 
BRANCH  32  35
ATOM     33  C   UNL     1      15.361  -2.565  -1.781  0.00  0.00    +0.041 A 
ATOM     34  C   UNL     1      14.237  -2.036  -2.457  0.00  0.00    +0.042 A 
ATOM     35  C   UNL     1      13.749  -1.047  -1.687  0.00  0.00    +0.089 A 
ATOM     36  O   UNL     1      14.508  -0.955  -0.583  0.00  0.00    -0.470 OA
ATOM     37  C   UNL     1      15.487  -1.873  -0.635  0.00  0.00    +0.195 A 
ENDBRANCH  32  35
ENDBRANCH  25  32
ENDBRANCH  24  25
ENDBRANCH  23  24
ENDBRANCH  22  23
ENDBRANCH   1  22
TORSDOF 9
