REMARK  Name = ZINC02993317
REMARK  6 active torsions:
REMARK  status: ('A' for Active; 'I' for Inactive)
REMARK    1  A    between atoms: C_3  and  C_11
REMARK    2  A    between atoms: C_5  and  S_7
REMARK    3  A    between atoms: S_7  and  N_10
REMARK    4  A    between atoms: C_14  and  C_16
REMARK    5  A    between atoms: N_20  and  C_24
REMARK    6  A    between atoms: C_24  and  C_25
REMARK                            x       y       z     vdW  Elec       q    Type
REMARK                         _______ _______ _______ _____ _____    ______ ____
ROOT
ATOM      1  C   UNL     1      -3.225  -0.088   5.222  0.00  0.00    +0.136 A 
ATOM      2  C   UNL     1      -4.146  -0.987   5.681  0.00  0.00    +0.050 A 
ATOM      3  C   UNL     1      -4.840  -1.470   4.569  0.00  0.00    +0.050 A 
ATOM      4  C   UNL     1      -4.299  -0.845   3.459  0.00  0.00    +0.130 A 
ATOM      5  O   UNL     1      -3.326  -0.011   3.883  0.00  0.00    -0.455 OA
ENDROOT
BRANCH   4   6
ATOM      6  C   UNL     1      -4.699  -1.040   2.120  0.00  0.00    +0.066 C 
ATOM      7  C   UNL     1      -4.162  -0.271   1.128  0.00  0.00    +0.080 C 
ATOM      8  C   UNL     1      -3.343   0.949   1.226  0.00  0.00    +0.259 C 
ATOM      9  O   UNL     1      -3.041   1.430   2.303  0.00  0.00    -0.269 OA
ATOM     10  N   UNL     1      -2.952   1.496   0.087  0.00  0.00    -0.244 N 
ATOM     11  C   UNL     1      -3.294   0.963  -1.104  0.00  0.00    +0.121 C 
ATOM     12  S   UNL     1      -2.897   1.521  -2.673  0.00  0.00    -0.027 S 
ATOM     13  S   UNL     1      -4.259  -0.468  -0.646  0.00  0.00    -0.061 S 
BRANCH  10  14
ATOM     14  C   UNL     1      -2.135   2.712   0.120  0.00  0.00    +0.240 C 
BRANCH  14  15
ATOM     15  C   UNL     1      -0.677   2.336   0.155  0.00  0.00    +0.373 C 
ATOM     16  O   UNL     1      -0.352   1.172   0.152  0.00  0.00    -0.245 OA
ATOM     17  O   UNL     1       0.263   3.294   0.183  0.00  0.00    -0.245 OA
ENDBRANCH  14  15
ENDBRANCH  10  14
ENDBRANCH   4   6
BRANCH   1  20
ATOM     18  C   UNL     1      -1.379   1.216   8.220  0.00  0.00    +0.003 A 
ATOM     19  C   UNL     1      -2.273   0.506   7.445  0.00  0.00    +0.011 A 
ATOM     20  C   UNL     1      -2.275   0.672   6.058  0.00  0.00    +0.019 A 
ATOM     21  C   UNL     1      -1.378   1.565   5.466  0.00  0.00    +0.040 A 
ATOM     22  C   UNL     1      -0.494   2.272   6.253  0.00  0.00    +0.106 A 
ATOM     23  C   UNL     1      -0.493   2.099   7.627  0.00  0.00    +0.028 A 
BRANCH  22  24
ATOM     24  S   UNL     1       0.638   3.399   5.509  0.00  0.00    +0.056 S 
ATOM     25  O   UNL     1       1.730   3.531   6.409  0.00  0.00    -0.153 OA
ATOM     26  O   UNL     1       0.807   2.975   4.164  0.00  0.00    -0.153 OA
BRANCH  24  27
ATOM     27  N   UNL     1      -0.109   4.875   5.450  0.00  0.00    -0.204 NA
ATOM     28  H   UNL     1      -1.010   4.978   5.795  0.00  0.00    +0.144 HD
ATOM     29  H   UNL     1       0.355   5.638   5.071  0.00  0.00    +0.144 HD
ENDBRANCH  24  27
ENDBRANCH  22  24
ENDBRANCH   1  20
TORSDOF 6
