REMARK  Name = ZINC63269107
REMARK  11 active torsions:
REMARK  status: ('A' for Active; 'I' for Inactive)
REMARK    1  A    between atoms: C_1  and  C_2
REMARK    2  A    between atoms: C_2  and  C_3
REMARK    3  A    between atoms: C_2  and  C_4
REMARK    4  A    between atoms: C_4  and  N_5
REMARK    5  A    between atoms: N_5  and  S_6
REMARK    6  A    between atoms: S_6  and  C_9
REMARK    7  A    between atoms: C_12  and  C_15
REMARK    8  A    between atoms: N_17  and  N_18
REMARK    9  A    between atoms: N_21  and  C_22
REMARK   10  A    between atoms: C_22  and  C_23
REMARK   11  A    between atoms: C_22  and  C_24
REMARK                            x       y       z     vdW  Elec       q    Type
REMARK                         _______ _______ _______ _____ _____    ______ ____
ROOT
ATOM      1  C   UNL     1      -4.004  -2.424  -0.948  0.00  0.00    +0.105 A 
ATOM      2  C   UNL     1      -4.859  -1.368  -0.687  0.00  0.00    +0.029 A 
ATOM      3  C   UNL     1      -5.822  -1.013  -1.609  0.00  0.00    +0.015 A 
ATOM      4  C   UNL     1      -5.933  -1.722  -2.806  0.00  0.00    +0.038 A 
ATOM      5  C   UNL     1      -5.066  -2.786  -3.063  0.00  0.00    +0.015 A 
ATOM      6  C   UNL     1      -4.104  -3.127  -2.135  0.00  0.00    +0.029 A 
ENDROOT
BRANCH   4   7
ATOM      7  C   UNL     1      -6.963  -1.347  -3.798  0.00  0.00    +0.260 C 
ATOM      8  O   UNL     1      -7.716  -0.420  -3.572  0.00  0.00    -0.269 OA
ATOM      9  N   UNL     1      -7.067  -2.033  -4.954  0.00  0.00    -0.229 N 
ATOM     10  H   UNL     1      -6.466  -2.773  -5.135  0.00  0.00    +0.173 HD
BRANCH   9  11
ATOM     11  N   UNL     1      -8.043  -1.678  -5.894  0.00  0.00    -0.218 N 
ATOM     12  C   UNL     1      -8.147  -2.364  -7.049  0.00  0.00    +0.316 C 
ATOM     13  O   UNL     1      -8.994  -2.056  -7.865  0.00  0.00    -0.251 OA
ATOM     14  N   UNL     1      -7.312  -3.392  -7.300  0.00  0.00    -0.296 N 
ATOM     15  H   UNL     1      -8.644  -0.939  -5.713  0.00  0.00    +0.174 HD
ATOM     16  H   UNL     1      -6.636  -3.637  -6.649  0.00  0.00    +0.151 HD
BRANCH  14  17
ATOM     17  C   UNL     1      -7.425  -4.137  -8.556  0.00  0.00    +0.068 C 
ATOM     18  C   UNL     1      -6.077  -4.779  -8.891  0.00  0.00    +0.027 C 
ATOM     19  C   UNL     1      -8.487  -5.229  -8.408  0.00  0.00    +0.027 C 
ENDBRANCH  14  17
ENDBRANCH   9  11
ENDBRANCH   4   7
BRANCH   1  20
ATOM     20  S   UNL     1      -2.776  -2.871   0.235  0.00  0.00    +0.058 S 
ATOM     21  O   UNL     1      -2.454  -4.233  -0.009  0.00  0.00    -0.153 OA
ATOM     22  O   UNL     1      -3.242  -2.412   1.496  0.00  0.00    -0.153 OA
BRANCH  20  23
ATOM     23  N   UNL     1      -1.416  -1.993  -0.116  0.00  0.00    -0.190 NA
ATOM     24  H   UNL     1      -0.609  -2.445  -0.406  0.00  0.00    +0.148 HD
BRANCH  23  25
ATOM     25  C   UNL     1      -1.433  -0.534   0.013  0.00  0.00    +0.109 C 
BRANCH  25  27
ATOM     26  C   UNL     1      -0.019   1.526   0.010  0.00  0.00    +0.008 C 
ATOM     27  C   UNL     1       0.002  -0.004   0.002  0.00  0.00    -0.002 C 
ATOM     28  C   UNL     1       0.742  -0.511   1.242  0.00  0.00    +0.008 C 
ENDBRANCH  25  27
ENDBRANCH  23  25
ENDBRANCH  20  23
ENDBRANCH   1  20
TORSDOF 7
