REMARK  Name = ZINC02321966
REMARK  5 active torsions:
REMARK  status: ('A' for Active; 'I' for Inactive)
REMARK    1  A    between atoms: C_1  and  C_2
REMARK    2  A    between atoms: C_2  and  N_3
REMARK    3  A    between atoms: C_14  and  C_16
REMARK    4  A    between atoms: N_17  and  N_18
REMARK    5  A    between atoms: C_19  and  C_25
REMARK                            x       y       z     vdW  Elec       q    Type
REMARK                         _______ _______ _______ _____ _____    ______ ____
ROOT
ATOM      1  N   UNL     1       6.820   1.960   6.550  0.00  0.00    -0.340 N 
ATOM      2  C   UNL     1       8.105   1.911   6.040  0.00  0.00    +0.050 A 
ATOM      3  C   UNL     1       9.325   1.554   6.608  0.00  0.00    +0.026 A 
ATOM      4  C   UNL     1      10.476   1.597   5.852  0.00  0.00    +0.002 A 
ATOM      5  C   UNL     1      10.434   1.995   4.525  0.00  0.00    +0.001 A 
ATOM      6  C   UNL     1       9.236   2.353   3.945  0.00  0.00    +0.010 A 
ATOM      7  C   UNL     1       8.065   2.313   4.698  0.00  0.00    +0.008 A 
ATOM      8  C   UNL     1       6.654   2.622   4.396  0.00  0.00    +0.008 A 
ATOM      9  C   UNL     1       5.933   2.385   5.578  0.00  0.00    +0.050 A 
ATOM     10  C   UNL     1       4.556   2.595   5.596  0.00  0.00    +0.027 A 
ATOM     11  C   UNL     1       3.909   3.026   4.475  0.00  0.00    +0.011 A 
ATOM     12  C   UNL     1       4.618   3.266   3.291  0.00  0.00    -0.005 A 
ATOM     13  C   UNL     1       5.995   3.056   3.252  0.00  0.00    +0.020 A 
ENDROOT
BRANCH   1  15
ATOM     14  C   UNL     1       6.109   0.123   8.000  0.00  0.00    +0.027 C 
ATOM     15  C   UNL     1       6.451   1.613   7.925  0.00  0.00    +0.119 C 
ENDBRANCH   1  15
BRANCH  12  16
ATOM     16  C   UNL     1       3.908   3.732   2.087  0.00  0.00    +0.141 C 
ATOM     17  N   UNL     1       2.624   3.921   2.122  0.00  0.00    -0.171 NA
BRANCH  17  18
ATOM     18  N   UNL     1       1.949   4.364   0.978  0.00  0.00    -0.192 N 
ATOM     19  C   UNL     1       1.396   3.562   0.008  0.00  0.00    +0.156 A 
ATOM     20  N   UNL     1       0.851   4.314  -0.894  0.00  0.00    -0.156 NA
ATOM     21  N   UNL     1       1.046   5.651  -0.525  0.00  0.00    -0.253 N 
ATOM     22  H   UNL     1       0.657   6.460  -1.161  0.00  0.00    +0.191 HD
ATOM     23  C   UNL     1       1.733   5.651   0.637  0.00  0.00    +0.196 A 
ATOM     24  S   UNL     1       2.231   7.030   1.520  0.00  0.00    -0.010 S 
BRANCH  19  25
ATOM     25  C   UNL     1       1.417   2.055  -0.000  0.00  0.00    +0.059 C 
ATOM     26  C   UNL     1      -0.019   1.526   0.010  0.00  0.00    +0.011 C 
ATOM     27  C   UNL     1       0.002  -0.004   0.002  0.00  0.00    +0.001 C 
ATOM     28  C   UNL     1       0.718  -0.497  -1.257  0.00  0.00    +0.000 C 
ATOM     29  C   UNL     1       2.154   0.032  -1.268  0.00  0.00    +0.001 C 
ATOM     30  C   UNL     1       2.133   1.562  -1.259  0.00  0.00    +0.011 C 
ENDBRANCH  19  25
ENDBRANCH  17  18
ENDBRANCH  12  16
TORSDOF 4
