REMARK  Name = ZINC58169033
REMARK  9 active torsions:
REMARK  status: ('A' for Active; 'I' for Inactive)
REMARK    1  A    between atoms: C_1  and  C_2
REMARK    2  A    between atoms: C_7  and  C_9
REMARK    3  A    between atoms: C_7  and  C_10
REMARK    4  A    between atoms: N_13  and  C_17
REMARK    5  A    between atoms: C_17  and  C_18
REMARK    6  A    between atoms: N_20  and  C_21
REMARK    7  A    between atoms: N_25  and  C_27
REMARK    8  A    between atoms: C_27  and  C_29
REMARK    9  A    between atoms: C_27  and  C_30
REMARK                            x       y       z     vdW  Elec       q    Type
REMARK                         _______ _______ _______ _____ _____    ______ ____
ROOT
ATOM      1  C   UNL     1      -4.972  -3.399  -2.310  0.00  0.00    +0.231 C 
ATOM      2  O   UNL     1      -4.651  -2.256  -2.558  0.00  0.00    -0.274 OA
ATOM      3  N   UNL     1      -6.127  -3.895  -2.795  0.00  0.00    -0.313 N 
ATOM      4  H   UNL     1      -6.383  -4.809  -2.596  0.00  0.00    +0.149 HD
ENDROOT
BRANCH   3   5
ATOM      5  C   UNL     1      -6.995  -3.054  -3.623  0.00  0.00    +0.055 C 
ATOM      6  C   UNL     1      -7.971  -2.251  -2.733  0.00  0.00    +0.002 C 
ATOM      7  C   UNL     1      -9.291  -2.288  -3.544  0.00  0.00    -0.076 C 
ATOM      8  N   UNL     1      -9.293  -3.655  -4.126  0.00  0.00    +0.385 N 
ATOM      9  C   UNL     1      -7.892  -3.930  -4.518  0.00  0.00    -0.056 C 
ATOM     10  H   UNL     1      -9.601  -4.326  -3.437  0.00  0.00    -0.081 HD
BRANCH   8  11
ATOM     11  C   UNL     1     -10.167  -3.701  -5.306  0.00  0.00    -0.041 C 
ATOM     12  C   UNL     1     -10.130  -5.106  -5.913  0.00  0.00    -0.008 C 
BRANCH  11  13
ATOM     13  C   UNL     1     -11.579  -3.366  -4.899  0.00  0.00    -0.061 A 
ATOM     14  C   UNL     1     -12.089  -3.851  -3.709  0.00  0.00    +0.002 A 
ATOM     15  C   UNL     1     -13.384  -3.543  -3.336  0.00  0.00    +0.000 A 
ATOM     16  C   UNL     1     -14.169  -2.752  -4.153  0.00  0.00    +0.000 A 
ATOM     17  C   UNL     1     -13.659  -2.267  -5.343  0.00  0.00    +0.000 A 
ATOM     18  C   UNL     1     -12.362  -2.570  -5.714  0.00  0.00    +0.002 A 
ENDBRANCH  11  13
ENDBRANCH   8  11
ENDBRANCH   3   5
BRANCH   1  19
ATOM     19  C   UNL     1      -4.079  -4.264  -1.458  0.00  0.00    +0.213 C 
BRANCH  19  31
ATOM     20  C   UNL     1      -0.159   1.471  -0.048  0.00  0.00    +0.007 C 
ATOM     21  C   UNL     1      -0.085  -0.057  -0.027  0.00  0.00    -0.011 C 
ATOM     22  C   UNL     1      -1.501  -0.636   0.015  0.00  0.00    +0.038 C 
ATOM     23  C   UNL     1      -1.428  -2.159   0.057  0.00  0.00    +0.113 C 
ATOM     24  C   UNL     1      -0.642  -2.627   1.276  0.00  0.00    +0.041 C 
ATOM     25  C   UNL     1       0.772  -2.041   1.230  0.00  0.00    -0.032 C 
ATOM     26  C   UNL     1       0.688  -0.513   1.212  0.00  0.00    +0.009 C 
ATOM     27  C   UNL     1       1.553  -2.495   2.465  0.00  0.00    +0.011 C 
ATOM     28  C   UNL     1       1.485  -2.527  -0.033  0.00  0.00    +0.011 C 
ATOM     29  C   UNL     1      -2.817  -2.754   0.064  0.00  0.00    +0.247 C 
ATOM     30  O   UNL     1      -3.679  -2.595   0.901  0.00  0.00    -0.273 OA
ATOM     31  N   UNL     1      -2.895  -3.499  -1.058  0.00  0.00    -0.215 N 
ATOM     32  C   UNL     1      -1.756  -3.453  -1.761  0.00  0.00    +0.310 C 
ATOM     33  O   UNL     1      -1.585  -4.042  -2.810  0.00  0.00    -0.252 OA
ATOM     34  N   UNL     1      -0.823  -2.679  -1.176  0.00  0.00    -0.285 N 
ATOM     35  H   UNL     1       0.073  -2.500  -1.504  0.00  0.00    +0.151 HD
ENDBRANCH  19  31
ENDBRANCH   1  19
TORSDOF 5
