REMARK  Name = ZINC25151973
REMARK  6 active torsions:
REMARK  status: ('A' for Active; 'I' for Inactive)
REMARK    1  A    between atoms: C_1  and  C_2
REMARK    2  A    between atoms: C_2  and  C_3
REMARK    3  A    between atoms: C_2  and  C_4
REMARK    4  A    between atoms: C_8  and  S_10
REMARK    5  A    between atoms: S_10  and  C_11
REMARK    6  A    between atoms: C_14  and  C_17
REMARK                            x       y       z     vdW  Elec       q    Type
REMARK                         _______ _______ _______ _____ _____    ______ ____
ROOT
ATOM      1  C   UNL     1       1.191   2.073   0.002  0.00  0.00    +0.123 A 
ATOM      2  C   UNL     1      -0.017   1.379   0.010  0.00  0.00    +0.074 A 
ATOM      3  C   UNL     1       0.002  -0.004   0.002  0.00  0.00    +0.036 A 
ATOM      4  C   UNL     1       1.232  -0.650  -0.013  0.00  0.00    +0.074 A 
ATOM      5  C   UNL     1       2.390   0.100  -0.020  0.00  0.00    +0.124 A 
ATOM      6  N   UNL     1       2.343   1.419  -0.012  0.00  0.00    -0.246 NA
ATOM      7 CL   UNL     1      -1.525   2.239   0.021  0.00  0.00    -0.081 Cl
ENDROOT
BRANCH   4   8
ATOM      8  C   UNL     1       1.300  -2.156  -0.021  0.00  0.00    +0.419 C 
ATOM      9  F   UNL     1       1.309  -2.615  -1.343  0.00  0.00    -0.166 F 
ATOM     10  F   UNL     1       2.469  -2.573   0.625  0.00  0.00    -0.166 F 
ATOM     11  F   UNL     1       0.187  -2.677   0.646  0.00  0.00    -0.166 F 
ENDBRANCH   4   8
BRANCH   1  12
ATOM     12  S   UNL     1       1.187   3.835   0.011  0.00  0.00    -0.029 S 
BRANCH  12  17
ATOM     13  C   UNL     1       4.693   5.470  -0.013  0.00  0.00    +0.154 A 
ATOM     14  N   UNL     1       5.075   4.182  -0.033  0.00  0.00    -0.157 NA
ATOM     15  H   UNL     1       3.955   2.319  -0.018  0.00  0.00    +0.191 HD
ATOM     16  N   UNL     1       3.897   3.417  -0.017  0.00  0.00    -0.253 N 
ATOM     17  C   UNL     1       2.896   4.265  -0.003  0.00  0.00    +0.190 A 
ATOM     18  N   UNL     1       3.385   5.509  -0.001  0.00  0.00    -0.205 NA
BRANCH  13  20
ATOM     19  C   UNL     1       6.026   6.981   1.433  0.00  0.00    +0.015 C 
ATOM     20  C   UNL     1       5.612   6.664  -0.006  0.00  0.00    +0.053 C 
ATOM     21  C   UNL     1       6.858   6.354  -0.838  0.00  0.00    +0.015 C 
ENDBRANCH  13  20
ENDBRANCH  12  17
ENDBRANCH   1  12
TORSDOF 4
