REMARK  Name = ZINC34727199
REMARK  5 active torsions:
REMARK  status: ('A' for Active; 'I' for Inactive)
REMARK    1  A    between atoms: C_1  and  C_2
REMARK    2  A    between atoms: C_2  and  N_3
REMARK    3  A    between atoms: N_15  and  C_18
REMARK    4  A    between atoms: C_18  and  C_19
REMARK    5  A    between atoms: C_22  and  N_25
REMARK                            x       y       z     vdW  Elec       q    Type
REMARK                         _______ _______ _______ _____ _____    ______ ____
ROOT
ATOM      1  N   UNL     1       0.688  -0.476  -1.203  0.00  0.00    -0.287 N 
ATOM      2  C   UNL     1      -0.031  -0.701  -2.349  0.00  0.00    +0.097 A 
ATOM      3  C   UNL     1       0.592  -1.150  -3.512  0.00  0.00    +0.074 A 
ATOM      4  C   UNL     1      -0.290  -1.350  -4.662  0.00  0.00    -0.023 A 
ATOM      5  C   UNL     1      -1.588  -1.069  -4.436  0.00  0.00    -0.004 A 
ATOM      6  S   UNL     1      -1.648  -0.554  -2.745  0.00  0.00    -0.075 S 
ATOM      7  C   UNL     1      -2.717  -1.176  -5.415  0.00  0.00    +0.043 C 
ATOM      8  C   UNL     1      -2.121  -1.294  -6.826  0.00  0.00    +0.005 C 
ATOM      9  C   UNL     1      -1.015  -2.354  -6.810  0.00  0.00    +0.005 C 
ATOM     10  C   UNL     1       0.191  -1.837  -6.022  0.00  0.00    +0.037 C 
ATOM     11  C   UNL     1       2.053  -1.363  -3.423  0.00  0.00    +0.265 A 
ATOM     12  O   UNL     1       2.679  -1.754  -4.391  0.00  0.00    -0.267 OA
ATOM     13  N   UNL     1       2.681  -1.119  -2.259  0.00  0.00    -0.256 N 
ATOM     14  C   UNL     1       2.018  -0.681  -1.176  0.00  0.00    +0.333 A 
ATOM     15  O   UNL     1       2.632  -0.469  -0.148  0.00  0.00    -0.246 OA
ENDROOT
BRANCH   1  17
ATOM     16  C   UNL     1      -0.019   1.526   0.010  0.00  0.00    +0.027 C 
ATOM     17  C   UNL     1       0.002  -0.004   0.002  0.00  0.00    +0.124 C 
ENDBRANCH   1  17
BRANCH  13  18
ATOM     18  C   UNL     1       4.128  -1.331  -2.172  0.00  0.00    +0.165 C 
BRANCH  18  19
ATOM     19  C   UNL     1       4.846  -0.059  -2.543  0.00  0.00    -0.027 A 
ATOM     20  C   UNL     1       5.188   0.181  -3.861  0.00  0.00    +0.007 A 
ATOM     21  C   UNL     1       5.846   1.348  -4.202  0.00  0.00    +0.033 A 
ATOM     22  C   UNL     1       6.162   2.275  -3.225  0.00  0.00    +0.126 A 
ATOM     23  C   UNL     1       5.818   2.034  -1.908  0.00  0.00    +0.033 A 
ATOM     24  C   UNL     1       5.156   0.869  -1.568  0.00  0.00    +0.007 A 
BRANCH  22  25
ATOM     25  N   UNL     1       6.867   3.523  -3.590  0.00  0.00    +0.056 N 
ATOM     26  O   UNL     1       7.168   3.733  -4.742  0.00  0.00    -0.126 OA
ATOM     27  O   UNL     1       7.143   4.334  -2.736  0.00  0.00    -0.126 OA
ENDBRANCH  22  25
ENDBRANCH  18  19
ENDBRANCH  13  18
TORSDOF 4
