REMARK  Name = ZINC18090080
REMARK  6 active torsions:
REMARK  status: ('A' for Active; 'I' for Inactive)
REMARK    1  A    between atoms: C_1  and  C_2
REMARK    2  A    between atoms: C_2  and  N_3
REMARK    3  A    between atoms: C_4  and  S_13
REMARK    4  A    between atoms: N_5  and  C_6
REMARK    5  A    between atoms: S_13  and  C_14
REMARK    6  A    between atoms: N_19  and  C_22
REMARK                            x       y       z     vdW  Elec       q    Type
REMARK                         _______ _______ _______ _____ _____    ______ ____
ROOT
ATOM      1  S   UNL     1       0.118  -3.135  -0.674  0.00  0.00    -0.077 S 
ENDROOT
BRANCH   1   2
ATOM      2  C   UNL     1       0.554  -4.876  -0.934  0.00  0.00    +0.149 C 
ATOM      3  C   UNL     1       0.139  -5.727   0.283  0.00  0.00    +0.120 C 
ATOM      4  C   UNL     1       1.450  -6.289   0.787  0.00  0.00    +0.228 C 
ATOM      5  O   UNL     1       1.578  -7.023   1.744  0.00  0.00    -0.275 OA
ATOM      6  N   UNL     1       2.446  -5.848   0.010  0.00  0.00    -0.209 N 
ATOM      7  C   UNL     1       2.057  -5.045  -0.993  0.00  0.00    +0.240 C 
ATOM      8  O   UNL     1       2.789  -4.537  -1.815  0.00  0.00    -0.274 OA
BRANCH   6   9
ATOM      9  C   UNL     1       3.788  -6.197   0.224  0.00  0.00    +0.044 A 
ATOM     10  C   UNL     1       4.208  -7.503   0.015  0.00  0.00    +0.025 A 
ATOM     11  C   UNL     1       5.530  -7.844   0.227  0.00  0.00    +0.017 A 
ATOM     12  C   UNL     1       6.434  -6.885   0.647  0.00  0.00    +0.018 A 
ATOM     13  C   UNL     1       6.017  -5.582   0.856  0.00  0.00    +0.017 A 
ATOM     14  C   UNL     1       4.698  -5.235   0.640  0.00  0.00    +0.025 A 
ATOM     15 BR   UNL     1       8.242  -7.356   0.937  0.00  0.00    -0.050 Br
ENDBRANCH   6   9
ENDBRANCH   1   2
BRANCH   1  17
ATOM     16  N   UNL     1       0.395  -0.997  -2.337  0.00  0.00    -0.324 N 
ATOM     17  C   UNL     1       0.586  -2.348  -2.180  0.00  0.00    +0.155 C 
ATOM     18  N   UNL     1       1.118  -3.054  -3.152  0.00  0.00    -0.226 NA
ATOM     19  H   UNL     1       0.667  -0.562  -3.160  0.00  0.00    +0.148 HD
BRANCH  18  20
ATOM     20  C   UNL     1       1.575  -2.429  -4.281  0.00  0.00    +0.067 A 
ATOM     21  C   UNL     1       2.527  -1.413  -4.183  0.00  0.00    +0.029 A 
ATOM     22  C   UNL     1       2.984  -0.787  -5.325  0.00  0.00    +0.017 A 
ATOM     23  C   UNL     1       2.500  -1.164  -6.565  0.00  0.00    +0.018 A 
ATOM     24  C   UNL     1       1.555  -2.171  -6.670  0.00  0.00    +0.017 A 
ATOM     25  C   UNL     1       1.095  -2.809  -5.536  0.00  0.00    +0.029 A 
ATOM     26 BR   UNL     1       3.131  -0.300  -8.125  0.00  0.00    -0.050 Br
ENDBRANCH  18  20
BRANCH  16  28
ATOM     27  C   UNL     1      -0.317   1.251  -1.691  0.00  0.00    +0.024 C 
ATOM     28  C   UNL     1      -0.221  -0.214  -1.263  0.00  0.00    +0.100 C 
ENDBRANCH  16  28
ENDBRANCH   1  17
TORSDOF 5
