REMARK  Name = ZINC09972862
REMARK  8 active torsions:
REMARK  status: ('A' for Active; 'I' for Inactive)
REMARK    1  A    between atoms: C_1  and  O_2
REMARK    2  A    between atoms: O_2  and  C_3
REMARK    3  A    between atoms: C_5  and  C_18
REMARK    4  A    between atoms: C_8  and  O_9
REMARK    5  A    between atoms: O_9  and  C_10
REMARK    6  A    between atoms: C_10  and  C_12
REMARK    7  A    between atoms: C_28  and  C_30
REMARK    8  A    between atoms: C_33  and  O_36
REMARK                            x       y       z     vdW  Elec       q    Type
REMARK                         _______ _______ _______ _____ _____    ______ ____
ROOT
ATOM      1  C   UNL     1       3.656  -0.635  -0.064  0.00  0.00    +0.024 C 
ATOM      2  C   UNL     1       3.700  -1.919   0.430  0.00  0.00    +0.081 C 
ATOM      3  C   UNL     1       2.471  -2.630   0.882  0.00  0.00    +0.153 C 
ATOM      4  N   UNL     1       1.453  -2.023   1.431  0.00  0.00    -0.283 NA
ATOM      5  N   UNL     1       2.513  -4.023   0.657  0.00  0.00    -0.152 N 
ATOM      6  C   UNL     1       3.753  -4.610   0.525  0.00  0.00    +0.181 C 
ATOM      7  N   UNL     1       4.921  -4.016   0.512  0.00  0.00    -0.152 NA
ATOM      8  C   UNL     1       4.975  -2.673   0.537  0.00  0.00    +0.273 C 
ATOM      9  O   UNL     1       6.042  -2.091   0.647  0.00  0.00    -0.268 OA
ATOM     10  S   UNL     1       3.341  -6.325   0.342  0.00  0.00    -0.033 S 
ATOM     11  C   UNL     1       1.563  -6.150   0.414  0.00  0.00    +0.130 C 
ATOM     12  N   UNL     1       1.418  -4.856   0.574  0.00  0.00    -0.164 NA
ATOM     13  H   UNL     1       0.647  -2.521   1.641  0.00  0.00    +0.188 HD
ENDROOT
BRANCH   1  16
ATOM     14  C   UNL     1       0.980   1.973  -0.359  0.00  0.00    +0.163 A 
ATOM     15  C   UNL     1       2.200   1.378  -0.106  0.00  0.00    +0.057 A 
ATOM     16  C   UNL     1       2.364   0.003  -0.329  0.00  0.00    -0.021 A 
ATOM     17  C   UNL     1       1.288  -0.758  -0.807  0.00  0.00    +0.012 A 
ATOM     18  C   UNL     1       0.076  -0.155  -1.055  0.00  0.00    +0.051 A 
ATOM     19  C   UNL     1      -0.085   1.207  -0.834  0.00  0.00    +0.173 A 
BRANCH  14  21
ATOM     20  C   UNL     1       1.950   4.028   0.343  0.00  0.00    +0.277 C 
ATOM     21  O   UNL     1       0.817   3.305  -0.145  0.00  0.00    -0.491 OA
ENDBRANCH  14  21
BRANCH  19  22
ATOM     22  O   UNL     1      -1.282   1.797  -1.087  0.00  0.00    -0.419 OA
BRANCH  22  23
ATOM     23  C   UNL     1      -1.403   2.461  -2.253  0.00  0.00    +0.345 C 
ATOM     24  O   UNL     1      -0.499   2.433  -3.064  0.00  0.00    -0.245 OA
BRANCH  23  25
ATOM     25  C   UNL     1      -2.635   3.221  -2.546  0.00  0.00    +0.059 A 
ATOM     26  C   UNL     1      -3.678   3.250  -1.618  0.00  0.00    +0.015 A 
ATOM     27  C   UNL     1      -4.823   3.968  -1.895  0.00  0.00    +0.001 A 
ATOM     28  C   UNL     1      -4.944   4.648  -3.094  0.00  0.00    +0.000 A 
ATOM     29  C   UNL     1      -3.917   4.619  -4.020  0.00  0.00    +0.001 A 
ATOM     30  C   UNL     1      -2.763   3.910  -3.753  0.00  0.00    +0.015 A 
ENDBRANCH  23  25
ENDBRANCH  22  23
ENDBRANCH  19  22
ENDBRANCH   1  16
BRANCH  11  31
ATOM     31  C   UNL     1       0.522  -7.196   0.317  0.00  0.00    +0.009 A 
ATOM     32  C   UNL     1      -0.827  -6.851   0.403  0.00  0.00    +0.014 A 
ATOM     33  C   UNL     1      -1.794  -7.828   0.307  0.00  0.00    +0.046 A 
ATOM     34  C   UNL     1      -1.427  -9.156   0.136  0.00  0.00    +0.117 A 
ATOM     35  C   UNL     1      -0.085  -9.505   0.056  0.00  0.00    +0.046 A 
ATOM     36  C   UNL     1       0.887  -8.532   0.145  0.00  0.00    +0.014 A 
BRANCH  34  37
ATOM     37  O   UNL     1      -2.383 -10.117   0.046  0.00  0.00    -0.507 OA
ATOM     38  H   UNL     1      -2.635 -10.502   0.897  0.00  0.00    +0.292 HD
ENDBRANCH  34  37
ENDBRANCH  11  31
TORSDOF 7
