REMARK  Name = ZINC39293903
REMARK  10 active torsions:
REMARK  status: ('A' for Active; 'I' for Inactive)
REMARK    1  A    between atoms: C_1  and  O_2
REMARK    2  A    between atoms: O_2  and  C_3
REMARK    3  A    between atoms: C_19  and  O_22
REMARK    4  A    between atoms: O_22  and  C_23
REMARK    5  A    between atoms: C_23  and  C_25
REMARK    6  A    between atoms: C_25  and  C_26
REMARK    7  A    between atoms: C_26  and  C_27
REMARK    8  A    between atoms: C_27  and  C_28
REMARK    9  A    between atoms: C_28  and  O_30
REMARK   10  A    between atoms: O_30  and  C_31
REMARK                            x       y       z     vdW  Elec       q    Type
REMARK                         _______ _______ _______ _____ _____    ______ ____
ROOT
ATOM      1  C   UNL     1      -1.328  -0.586   0.256  0.00  0.00    +0.162 A 
ATOM      2  C   UNL     1      -2.522   0.131   0.313  0.00  0.00    +0.049 A 
ATOM      3  C   UNL     1      -3.763  -0.489   0.314  0.00  0.00    +0.006 A 
ATOM      4  C   UNL     1      -3.848  -1.861   0.290  0.00  0.00    -0.057 A 
ATOM      5  C   UNL     1      -2.672  -2.576   0.320  0.00  0.00    +0.013 A 
ATOM      6  C   UNL     1      -1.411  -1.978   0.232  0.00  0.00    +0.167 A 
ATOM      7  O   UNL     1      -0.445  -2.927   0.068  0.00  0.00    -0.484 OA
ATOM      8  C   UNL     1      -0.946  -4.128   0.604  0.00  0.00    +0.192 C 
ATOM      9  C   UNL     1      -2.470  -4.056   0.378  0.00  0.00    +0.053 C 
ATOM     10  C   UNL     1      -2.890  -4.624  -0.983  0.00  0.00    +0.000 C 
ATOM     11  C   UNL     1      -4.412  -4.639  -1.031  0.00  0.00    -0.081 C 
ATOM     12  N   UNL     1      -5.087  -3.365  -1.102  0.00  0.00    +0.382 N 
ATOM     13  C   UNL     1      -5.139  -2.653   0.192  0.00  0.00    -0.046 C 
ATOM     14  C   UNL     1      -3.067  -4.843   1.498  0.00  0.00    -0.013 C 
ATOM     15  C   UNL     1      -2.483  -6.019   1.693  0.00  0.00    +0.014 C 
ATOM     16  C   UNL     1      -1.367  -6.549   0.852  0.00  0.00    +0.203 C 
ATOM     17  C   UNL     1      -0.475  -5.485   0.189  0.00  0.00    +0.094 C 
ATOM     18  H   UNL     1      -4.609  -2.783  -1.773  0.00  0.00    -0.085 HD
ATOM     19  H   UNL     1      -6.031  -3.518  -1.425  0.00  0.00    -0.085 HD
ENDROOT
BRANCH   1  21
ATOM     20  C   UNL     1      -0.146   1.478   0.250  0.00  0.00    +0.277 C 
ATOM     21  O   UNL     1      -0.126   0.050   0.221  0.00  0.00    -0.491 OA
ENDBRANCH   1  21
BRANCH  16  22
ATOM     22  O   UNL     1      -0.557  -7.401   1.665  0.00  0.00    -0.457 OA
BRANCH  22  23
ATOM     23  C   UNL     1      -0.889  -8.701   1.704  0.00  0.00    +0.308 C 
ATOM     24  O   UNL     1      -1.835  -9.102   1.069  0.00  0.00    -0.251 OA
BRANCH  23  25
ATOM     25  C   UNL     1      -0.080  -9.660   2.540  0.00  0.00    +0.121 C 
BRANCH  25  26
ATOM     26  C   UNL     1      -0.664 -11.068   2.409  0.00  0.00    +0.022 C 
BRANCH  26  27
ATOM     27  C   UNL     1       0.156 -12.041   3.257  0.00  0.00    +0.121 C 
BRANCH  27  28
ATOM     28  C   UNL     1      -0.419 -13.428   3.129  0.00  0.00    +0.312 C 
ATOM     29  O   UNL     1      -1.386 -13.618   2.430  0.00  0.00    -0.250 OA
BRANCH  28  30
ATOM     30  O   UNL     1       0.143 -14.452   3.790  0.00  0.00    -0.426 OA
BRANCH  30  31
ATOM     31  C   UNL     1      -0.468 -15.665   3.727  0.00  0.00    +0.132 A 
ATOM     32  C   UNL     1      -0.340 -16.449   2.590  0.00  0.00    +0.046 A 
ATOM     33  C   UNL     1      -0.961 -17.681   2.529  0.00  0.00    +0.004 A 
ATOM     34  C   UNL     1      -1.710 -18.133   3.599  0.00  0.00    +0.000 A 
ATOM     35  C   UNL     1      -1.840 -17.353   4.734  0.00  0.00    +0.004 A 
ATOM     36  C   UNL     1      -1.216 -16.123   4.802  0.00  0.00    +0.046 A 
ENDBRANCH  30  31
ENDBRANCH  28  30
ENDBRANCH  27  28
ENDBRANCH  26  27
ENDBRANCH  25  26
ENDBRANCH  23  25
ENDBRANCH  22  23
ENDBRANCH  16  22
TORSDOF 9
