REMARK  Name = ZINC63375637
REMARK  8 active torsions:
REMARK  status: ('A' for Active; 'I' for Inactive)
REMARK    1  A    between atoms: C_1  and  C_2
REMARK    2  A    between atoms: C_2  and  C_3
REMARK    3  A    between atoms: C_2  and  C_4
REMARK    4  A    between atoms: C_4  and  C_5
REMARK    5  A    between atoms: C_5  and  N_6
REMARK    6  A    between atoms: C_7  and  C_9
REMARK    7  A    between atoms: C_14  and  N_15
REMARK    8  A    between atoms: C_31  and  C_36
REMARK                            x       y       z     vdW  Elec       q    Type
REMARK                         _______ _______ _______ _____ _____    ______ ____
ROOT
ATOM      1  N   UNL     1      -3.141  -6.729   0.057  0.00  0.00    -0.192 N 
ATOM      2  C   UNL     1      -2.316  -7.317   0.947  0.00  0.00    +0.248 C 
ATOM      3  O   UNL     1      -2.305  -7.164   2.149  0.00  0.00    -0.273 OA
ATOM      4  C   UNL     1      -1.406  -8.210   0.132  0.00  0.00    +0.169 C 
ATOM      5  C   UNL     1       0.062  -7.803   0.349  0.00  0.00    +0.065 C 
ATOM      6  C   UNL     1       0.820  -8.278  -0.868  0.00  0.00    -0.034 C 
ATOM      7  C   UNL     1       1.898  -9.048  -0.971  0.00  0.00    -0.001 A 
ATOM      8  C   UNL     1       2.788  -9.627   0.049  0.00  0.00    +0.010 A 
ATOM      9  C   UNL     1       3.807 -10.399  -0.413  0.00  0.00    +0.001 A 
ATOM     10  C   UNL     1       4.028 -10.649  -1.771  0.00  0.00    +0.002 A 
ATOM     11  C   UNL     1       3.265 -10.151  -2.777  0.00  0.00    +0.026 A 
ATOM     12  C   UNL     1       2.166  -9.318  -2.416  0.00  0.00    +0.043 A 
ATOM     13  N   UNL     1       1.297  -8.702  -3.162  0.00  0.00    -0.375 N 
ATOM     14  C   UNL     1       0.411  -7.926  -2.293  0.00  0.00    +0.131 C 
ATOM     15  C   UNL     1      -1.055  -8.355  -2.455  0.00  0.00    +0.135 C 
ATOM     16  N   UNL     1      -1.788  -7.901  -1.261  0.00  0.00    -0.264 N 
ATOM     17  C   UNL     1      -2.855  -7.094  -1.201  0.00  0.00    +0.317 C 
ATOM     18  O   UNL     1      -3.488  -6.733  -2.173  0.00  0.00    -0.252 OA
ATOM     19  H   UNL     1       1.246  -8.749  -4.129  0.00  0.00    +0.160 HD
ENDROOT
BRANCH   1  25
ATOM     20  C   UNL     1      -3.925  -4.473   0.480  0.00  0.00    +0.059 A 
ATOM     21  C   UNL     1      -4.964  -3.605   0.823  0.00  0.00    +0.015 A 
ATOM     22  C   UNL     1      -6.220  -4.107   1.087  0.00  0.00    +0.001 A 
ATOM     23  C   UNL     1      -6.458  -5.470   1.016  0.00  0.00    +0.002 A 
ATOM     24  C   UNL     1      -5.440  -6.339   0.678  0.00  0.00    +0.025 A 
ATOM     25  C   UNL     1      -4.171  -5.851   0.403  0.00  0.00    +0.058 A 
BRANCH  20  27
ATOM     26  N   UNL     1      -2.346  -2.616   0.271  0.00  0.00    -0.311 N 
ATOM     27  C   UNL     1      -2.578  -3.942   0.196  0.00  0.00    +0.246 C 
ATOM     28  O   UNL     1      -1.677  -4.700  -0.107  0.00  0.00    -0.270 OA
ATOM     29  H   UNL     1      -3.065  -2.011   0.512  0.00  0.00    +0.149 HD
BRANCH  26  30
ATOM     30  C   UNL     1      -1.009  -2.089  -0.012  0.00  0.00    +0.105 C 
BRANCH  30  31
ATOM     31  C   UNL     1      -1.017  -0.567   0.143  0.00  0.00    +0.022 C 
BRANCH  31  33
ATOM     32  C   UNL     1       0.342   1.513  -0.119  0.00  0.00    +0.007 C 
ATOM     33  C   UNL     1       0.379  -0.017  -0.152  0.00  0.00    -0.016 C 
ATOM     34  C   UNL     1       1.362  -0.526   0.904  0.00  0.00    +0.007 C 
ENDBRANCH  31  33
ENDBRANCH  30  31
ENDBRANCH  26  30
ENDBRANCH  20  27
ENDBRANCH   1  25
BRANCH  15  35
ATOM     35  C   UNL     1      -1.145  -9.856  -2.554  0.00  0.00    -0.025 A 
ATOM     36  C   UNL     1      -0.824 -10.640  -1.461  0.00  0.00    +0.005 A 
ATOM     37  C   UNL     1      -0.906 -12.018  -1.551  0.00  0.00    +0.000 A 
ATOM     38  C   UNL     1      -1.309 -12.610  -2.733  0.00  0.00    +0.000 A 
ATOM     39  C   UNL     1      -1.630 -11.825  -3.825  0.00  0.00    +0.000 A 
ATOM     40  C   UNL     1      -1.552 -10.448  -3.734  0.00  0.00    +0.005 A 
ENDBRANCH  15  35
TORSDOF 6
