REMARK  Name = ZINC42666160
REMARK  6 active torsions:
REMARK  status: ('A' for Active; 'I' for Inactive)
REMARK    1  A    between atoms: C_1  and  C_2
REMARK    2  A    between atoms: C_7  and  C_8
REMARK    3  A    between atoms: C_7  and  C_9
REMARK    4  A    between atoms: C_11  and  N_13
REMARK    5  A    between atoms: N_13  and  S_14
REMARK    6  A    between atoms: S_14  and  N_17
REMARK                            x       y       z     vdW  Elec       q    Type
REMARK                         _______ _______ _______ _____ _____    ______ ____
ROOT
ATOM      1  N   UNL     1      -0.152  -0.735  -2.403  0.00  0.00    -0.176 NA
ATOM      2  H   UNL     1      -0.997  -1.211  -2.392  0.00  0.00    +0.149 HD
ENDROOT
BRANCH   1  12
ATOM      3  C   UNL     1       0.227   1.409   0.038  0.00  0.00    +0.013 C 
ATOM      4  C   UNL     1       0.103  -0.115  -0.011  0.00  0.00    -0.010 C 
ATOM      5  C   UNL     1      -1.346  -0.685   0.071  0.00  0.00    +0.009 C 
ATOM      6  C   UNL     1      -1.163  -2.155   0.514  0.00  0.00    +0.005 C 
ATOM      7  C   UNL     1       0.379  -2.334   0.658  0.00  0.00    -0.003 C 
ATOM      8  C   UNL     1       0.792  -0.905   1.157  0.00  0.00    -0.025 C 
ATOM      9  C   UNL     1       2.311  -0.715   1.160  0.00  0.00    +0.012 C 
ATOM     10  C   UNL     1       0.176  -0.572   2.517  0.00  0.00    +0.012 C 
ATOM     11  C   UNL     1       0.912  -2.316  -0.807  0.00  0.00    +0.025 C 
ATOM     12  C   UNL     1       0.748  -0.811  -1.249  0.00  0.00    +0.084 C 
ENDBRANCH   1  12
BRANCH   1  13
ATOM     13  S   UNL     1       0.275   0.163  -3.727  0.00  0.00    +0.097 S 
ATOM     14  O   UNL     1      -0.782   0.029  -4.667  0.00  0.00    -0.141 OA
ATOM     15  O   UNL     1       0.705   1.427  -3.240  0.00  0.00    -0.141 OA
BRANCH  13  16
ATOM     16  N   UNL     1       1.603  -0.560  -4.402  0.00  0.00    -0.167 NA
ATOM     17  C   UNL     1       2.955  -0.234  -3.929  0.00  0.00    +0.110 C 
ATOM     18  C   UNL     1       3.673  -1.535  -3.555  0.00  0.00    +0.017 C 
ATOM     19  C   UNL     1       3.639  -2.492  -4.748  0.00  0.00    +0.003 C 
ATOM     20  C   UNL     1       2.187  -2.825  -5.096  0.00  0.00    +0.017 C 
ATOM     21  C   UNL     1       1.451  -1.544  -5.483  0.00  0.00    +0.110 C 
ENDBRANCH  13  16
ENDBRANCH   1  13
TORSDOF 3
