REMARK  Name = ZINC00061012
REMARK  4 active torsions:
REMARK  status: ('A' for Active; 'I' for Inactive)
REMARK    1  A    between atoms: C_3  and  O_18
REMARK    2  A    between atoms: C_4  and  C_8
REMARK    3  A    between atoms: C_11  and  C_13
REMARK    4  A    between atoms: C_11  and  O_17
REMARK                            x       y       z     vdW  Elec       q    Type
REMARK                         _______ _______ _______ _____ _____    ______ ____
ROOT
ATOM      1  C   UNL     1       3.692  -0.691  -0.037  0.00  0.00    +0.097 C 
ATOM      2  N   UNL     1       4.863  -0.146  -0.040  0.00  0.00    -0.085 NA
ATOM      3  O   UNL     1       5.911  -1.096  -0.050  0.00  0.00    -0.349 OA
ATOM      4  C   UNL     1       5.351  -2.358  -0.467  0.00  0.00    +0.337 C 
ATOM      5  C   UNL     1       3.869  -2.198  -0.047  0.00  0.00    +0.150 C 
ENDROOT
BRANCH   1   9
ATOM      6  C   UNL     1      -0.017   1.381   0.010  0.00  0.00    +0.023 A 
ATOM      7  C   UNL     1       1.166   2.096   0.002  0.00  0.00    +0.047 A 
ATOM      8  C   UNL     1       2.381   1.429  -0.013  0.00  0.00    +0.126 A 
ATOM      9  C   UNL     1       2.405   0.028  -0.021  0.00  0.00    +0.042 A 
ATOM     10  C   UNL     1       1.204  -0.683  -0.013  0.00  0.00    +0.033 A 
ATOM     11  C   UNL     1       0.002  -0.004   0.002  0.00  0.00    +0.042 A 
ATOM     12 CL   UNL     1      -1.491  -0.889   0.011  0.00  0.00    -0.084 Cl
BRANCH   8  13
ATOM     13  O   UNL     1       3.543   2.131  -0.021  0.00  0.00    -0.506 OA
ATOM     14  H   UNL     1       3.888   2.330   0.860  0.00  0.00    +0.292 HD
ENDBRANCH   8  13
ENDBRANCH   1   9
BRANCH   4  15
ATOM     15  C   UNL     1       6.005  -3.521   0.281  0.00  0.00    +0.459 C 
ATOM     16  F   UNL     1       5.823  -3.352   1.658  0.00  0.00    -0.164 F 
ATOM     17  F   UNL     1       5.417  -4.725  -0.122  0.00  0.00    -0.164 F 
ATOM     18  F   UNL     1       7.374  -3.551  -0.008  0.00  0.00    -0.164 F 
ENDBRANCH   4  15
BRANCH   4  19
ATOM     19  O   UNL     1       5.472  -2.529  -1.881  0.00  0.00    -0.347 OA
ATOM     20  H   UNL     1       6.385  -2.539  -2.199  0.00  0.00    +0.214 HD
ENDBRANCH   4  19
TORSDOF 4
