REMARK  Name = ZINC39691329
REMARK  7 active torsions:
REMARK  status: ('A' for Active; 'I' for Inactive)
REMARK    1  A    between atoms: C_10  and  C_11
REMARK    2  A    between atoms: C_11  and  C_12
REMARK    3  A    between atoms: N_14  and  C_15
REMARK    4  A    between atoms: C_15  and  C_16
REMARK    5  A    between atoms: C_16  and  N_17
REMARK    6  A    between atoms: C_18  and  C_20
REMARK    7  A    between atoms: C_31  and  C_33
REMARK                            x       y       z     vdW  Elec       q    Type
REMARK                         _______ _______ _______ _____ _____    ______ ____
ROOT
ATOM      1  N   UNL     1       8.935   4.826   4.681  0.00  0.00    -0.314 N 
ATOM      2  C   UNL     1       9.583   3.777   5.226  0.00  0.00    +0.218 C 
ATOM      3  O   UNL     1       9.854   2.811   4.544  0.00  0.00    -0.275 OA
ATOM      4  H   UNL     1       8.718   5.598   5.226  0.00  0.00    +0.149 HD
ENDROOT
BRANCH   2   5
ATOM      5  C   UNL     1       9.971   3.804   6.682  0.00  0.00    +0.100 C 
ATOM      6  C   UNL     1      10.139   2.366   7.221  0.00  0.00    +0.121 C 
ATOM      7  N   UNL     1      11.589   2.087   7.097  0.00  0.00    -0.296 N 
ATOM      8  C   UNL     1      12.244   3.362   7.478  0.00  0.00    +0.115 C 
ATOM      9  C   UNL     1      11.353   4.456   6.856  0.00  0.00    -0.004 C 
ATOM     10  C   UNL     1      11.257   5.655   7.793  0.00  0.00    -0.010 C 
ATOM     11  C   UNL     1      12.632   6.322   7.904  0.00  0.00    -0.082 C 
ATOM     12  N   UNL     1      13.079   6.749   6.573  0.00  0.00    +0.379 N 
ATOM     13  C   UNL     1      13.258   5.579   5.705  0.00  0.00    -0.082 C 
ATOM     14  C   UNL     1      11.910   4.882   5.501  0.00  0.00    -0.010 C 
ATOM     15  C   UNL     1      12.180   0.935   6.723  0.00  0.00    +0.247 C 
ATOM     16  O   UNL     1      11.505   0.009   6.317  0.00  0.00    -0.270 OA
ATOM     17  H   UNL     1      12.389   7.364   6.169  0.00  0.00    -0.086 HD
ATOM     18  H   UNL     1      13.956   7.242   6.657  0.00  0.00    -0.086 HD
BRANCH  15  19
ATOM     19  C   UNL     1      13.649   0.797   6.805  0.00  0.00    +0.037 A 
ATOM     20  C   UNL     1      14.386   1.635   7.644  0.00  0.00    +0.014 A 
ATOM     21  C   UNL     1      15.756   1.502   7.717  0.00  0.00    +0.021 A 
ATOM     22  C   UNL     1      16.402   0.538   6.960  0.00  0.00    +0.041 A 
ATOM     23  C   UNL     1      15.677  -0.296   6.125  0.00  0.00    +0.021 A 
ATOM     24  C   UNL     1      14.305  -0.176   6.048  0.00  0.00    +0.014 A 
ATOM     25 CL   UNL     1      18.128   0.377   7.056  0.00  0.00    -0.084 Cl
ENDBRANCH  15  19
ENDBRANCH   2   5
BRANCH   1  26
ATOM     26  C   UNL     1       8.558   4.799   3.266  0.00  0.00    +0.123 C 
BRANCH  26  27
ATOM     27  C   UNL     1       7.840   6.101   2.905  0.00  0.00    +0.123 C 
BRANCH  27  30
ATOM     28  C   UNL     1       6.815   7.123   0.945  0.00  0.00    +0.217 C 
ATOM     29  O   UNL     1       6.544   8.089   1.627  0.00  0.00    -0.275 OA
ATOM     30  N   UNL     1       7.463   6.075   1.489  0.00  0.00    -0.314 N 
ATOM     31  H   UNL     1       7.680   5.302   0.944  0.00  0.00    +0.149 HD
BRANCH  28  32
ATOM     32  C   UNL     1       6.427   7.096  -0.511  0.00  0.00    +0.131 C 
BRANCH  32  42
ATOM     33  C   UNL     1       7.878  11.792  -1.940  0.00  0.00    +0.001 A 
ATOM     34  C   UNL     1       8.550  10.615  -1.614  0.00  0.00    +0.001 A 
ATOM     35  C   UNL     1       7.866   9.493  -1.262  0.00  0.00    +0.009 A 
ATOM     36  C   UNL     1       6.461   9.517  -1.226  0.00  0.00    -0.014 A 
ATOM     37  C   UNL     1       5.778  10.714  -1.558  0.00  0.00    -0.018 A 
ATOM     38  C   UNL     1       6.519  11.853  -1.917  0.00  0.00    +0.008 A 
ATOM     39  C   UNL     1       4.374  10.739  -1.521  0.00  0.00    +0.008 A 
ATOM     40  C   UNL     1       3.689   9.617  -1.168  0.00  0.00    +0.001 A 
ATOM     41  C   UNL     1       4.361   8.440  -0.842  0.00  0.00    +0.005 A 
ATOM     42  C   UNL     1       5.720   8.379  -0.867  0.00  0.00    -0.031 A 
ENDBRANCH  32  42
ENDBRANCH  28  32
ENDBRANCH  27  30
ENDBRANCH  26  27
ENDBRANCH   1  26
TORSDOF 7
