REMARK  Name = ZINC09720892
REMARK  3 active torsions:
REMARK  status: ('A' for Active; 'I' for Inactive)
REMARK    1  A    between atoms: C_3  and  N_8
REMARK    2  A    between atoms: C_14  and  C_15
REMARK    3  A    between atoms: C_17  and  N_22
REMARK                            x       y       z     vdW  Elec       q    Type
REMARK                         _______ _______ _______ _____ _____    ______ ____
ROOT
ATOM      1  N   UNL     1       2.753  -5.864   0.295  0.00  0.00    -0.226 NA
ATOM      2  C   UNL     1       3.228  -4.627   0.226  0.00  0.00    +0.166 C 
ATOM      3  N   UNL     1       4.538  -4.228   0.245  0.00  0.00    -0.260 N 
ATOM      4  C   UNL     1       4.827  -2.938   0.161  0.00  0.00    +0.256 C 
ATOM      5  O   UNL     1       5.971  -2.525   0.167  0.00  0.00    -0.269 OA
ATOM      6  C   UNL     1       3.658  -2.031   0.063  0.00  0.00    +0.078 C 
ATOM      7  C   UNL     1       3.631  -0.630  -0.036  0.00  0.00    +0.028 C 
ATOM      8  S   UNL     1       2.334  -3.150   0.093  0.00  0.00    -0.049 S 
ATOM      9  H   UNL     1       5.249  -4.885   0.316  0.00  0.00    +0.157 HD
ENDROOT
BRANCH   7  10
ATOM     10  C   UNL     1       2.406   0.055   0.030  0.00  0.00    -0.020 A 
ATOM     11  C   UNL     1       2.297   1.368  -0.484  0.00  0.00    +0.044 A 
ATOM     12  C   UNL     1       1.108   2.025  -0.416  0.00  0.00    +0.174 A 
ATOM     13  C   UNL     1      -0.006   1.405   0.158  0.00  0.00    +0.223 A 
ATOM     14  C   UNL     1       0.092   0.106   0.668  0.00  0.00    +0.067 A 
ATOM     15  C   UNL     1       1.275  -0.565   0.609  0.00  0.00    +0.027 A 
ATOM     16 BR   UNL     1      -1.423  -0.720   1.442  0.00  0.00    -0.046 Br
ATOM     17  O   UNL     1      -1.187   2.063   0.216  0.00  0.00    -0.284 OA
BRANCH  12  18
ATOM     18  N   UNL     1       0.992   3.400  -0.953  0.00  0.00    +0.060 N 
ATOM     19  O   UNL     1       2.040   3.986  -1.494  0.00  0.00    -0.126 OA
ATOM     20  O   UNL     1      -0.158   4.037  -0.888  0.00  0.00    -0.126 OA
ENDBRANCH  12  18
ENDBRANCH   7  10
BRANCH   1  23
ATOM     21  C   UNL     1       4.207  -8.987   1.419  0.00  0.00    +0.003 A 
ATOM     22  C   UNL     1       3.341  -7.935   1.325  0.00  0.00    +0.028 A 
ATOM     23  C   UNL     1       3.595  -6.900   0.397  0.00  0.00    +0.068 A 
ATOM     24  C   UNL     1       4.741  -6.971  -0.427  0.00  0.00    +0.043 A 
ATOM     25  C   UNL     1       5.593  -8.031  -0.310  0.00  0.00    +0.020 A 
ATOM     26  C   UNL     1       5.332  -9.042   0.607  0.00  0.00    +0.015 A 
ATOM     27 BR   UNL     1       7.131  -8.127  -1.406  0.00  0.00    -0.050 Br
ENDBRANCH   1  23
TORSDOF 3
