REMARK  Name = ZINC53627446
REMARK  8 active torsions:
REMARK  status: ('A' for Active; 'I' for Inactive)
REMARK    1  A    between atoms: C_1  and  C_2
REMARK    2  A    between atoms: C_13  and  C_15
REMARK    3  A    between atoms: C_15  and  C_16
REMARK    4  A    between atoms: C_16  and  C_17
REMARK    5  A    between atoms: N_19  and  C_20
REMARK    6  A    between atoms: C_20  and  C_21
REMARK    7  A    between atoms: C_21  and  C_22
REMARK    8  A    between atoms: C_29  and  C_30
REMARK                            x       y       z     vdW  Elec       q    Type
REMARK                         _______ _______ _______ _____ _____    ______ ____
ROOT
ATOM      1  C   UNL     1      -0.019   1.526   0.010  0.00  0.00    +0.013 C 
ATOM      2  C   UNL     1       0.002  -0.004   0.002  0.00  0.00    +0.033 C 
ATOM      3  C   UNL     1      -1.414  -0.524   0.009  0.00  0.00    -0.001 A 
ATOM      4  C   UNL     1      -2.102  -0.544  -1.178  0.00  0.00    +0.019 A 
ATOM      5  C   UNL     1      -3.412  -1.009  -1.220  0.00  0.00    +0.028 A 
ATOM      6  C   UNL     1      -4.038  -1.460  -0.047  0.00  0.00    +0.139 A 
ATOM      7  C   UNL     1      -3.331  -1.437   1.146  0.00  0.00    +0.093 A 
ATOM      8  C   UNL     1      -2.023  -0.974   1.173  0.00  0.00    +0.139 A 
ATOM      9  O   UNL     1      -1.365  -0.988   2.365  0.00  0.00    -0.425 OA
ATOM     10  C   UNL     1      -0.178  -0.352   2.429  0.00  0.00    +0.316 C 
ATOM     11  O   UNL     1       0.133   0.311   3.390  0.00  0.00    -0.250 OA
ATOM     12  C   UNL     1       0.747  -0.510   1.241  0.00  0.00    +0.106 C 
ATOM     13  O   UNL     1      -5.287  -1.845  -0.376  0.00  0.00    -0.462 OA
ATOM     14  C   UNL     1      -5.517  -1.677  -1.690  0.00  0.00    +0.204 A 
ATOM     15  C   UNL     1      -4.416  -1.166  -2.288  0.00  0.00    +0.028 A 
ENDROOT
BRANCH  15  16
ATOM     16  C   UNL     1      -4.254  -0.833  -3.724  0.00  0.00    -0.014 A 
ATOM     17  C   UNL     1      -3.754   0.413  -4.100  0.00  0.00    +0.011 A 
ATOM     18  C   UNL     1      -3.604   0.719  -5.437  0.00  0.00    +0.039 A 
ATOM     19  C   UNL     1      -3.949  -0.210  -6.405  0.00  0.00    +0.123 A 
ATOM     20  C   UNL     1      -4.447  -1.449  -6.036  0.00  0.00    +0.039 A 
ATOM     21  C   UNL     1      -4.595  -1.766  -4.701  0.00  0.00    +0.011 A 
ATOM     22  F   UNL     1      -3.801   0.094  -7.713  0.00  0.00    -0.205 F 
ENDBRANCH  15  16
BRANCH  12  23
ATOM     23  C   UNL     1       1.114  -1.984   1.061  0.00  0.00    +0.024 C 
BRANCH  23  24
ATOM     24  C   UNL     1       1.964  -2.447   2.246  0.00  0.00    +0.096 C 
BRANCH  24  25
ATOM     25  C   UNL     1       2.325  -3.899   2.068  0.00  0.00    +0.213 C 
ATOM     26  O   UNL     1       1.941  -4.504   1.090  0.00  0.00    -0.276 OA
ATOM     27  N   UNL     1       3.076  -4.525   2.996  0.00  0.00    -0.315 N 
ATOM     28  H   UNL     1       3.383  -4.041   3.779  0.00  0.00    +0.149 HD
BRANCH  27  29
ATOM     29  C   UNL     1       3.427  -5.937   2.823  0.00  0.00    +0.110 C 
BRANCH  29  30
ATOM     30  C   UNL     1       4.277  -6.399   4.008  0.00  0.00    +0.073 C 
BRANCH  30  31
ATOM     31  C   UNL     1       4.638  -7.852   3.831  0.00  0.00    +0.035 A 
ATOM     32  N   UNL     1       5.791  -8.344   3.280  0.00  0.00    -0.350 N 
ATOM     33  C   UNL     1       5.706  -9.691   3.315  0.00  0.00    +0.171 A 
ATOM     34  N   UNL     1       4.567 -10.025   3.857  0.00  0.00    -0.352 N 
ATOM     35  C   UNL     1       3.893  -8.914   4.189  0.00  0.00    +0.105 A 
ATOM     36  H   UNL     1       6.530  -7.823   2.929  0.00  0.00    +0.166 HD
ATOM     37  H   UNL     1       4.258 -10.933   4.001  0.00  0.00    +0.166 HD
ENDBRANCH  30  31
ENDBRANCH  29  30
ENDBRANCH  27  29
ENDBRANCH  24  25
ENDBRANCH  23  24
ENDBRANCH  12  23
TORSDOF 7
