REMARK  Name = ZINC40823383
REMARK  8 active torsions:
REMARK  status: ('A' for Active; 'I' for Inactive)
REMARK    1  A    between atoms: C_1  and  C_2
REMARK    2  A    between atoms: C_6  and  C_7
REMARK    3  A    between atoms: N_9  and  C_10
REMARK    4  A    between atoms: C_15  and  O_16
REMARK    5  A    between atoms: O_16  and  C_17
REMARK    6  A    between atoms: N_23  and  N_24
REMARK    7  A    between atoms: C_25  and  C_27
REMARK    8  A    between atoms: C_31  and  C_32
REMARK                            x       y       z     vdW  Elec       q    Type
REMARK                         _______ _______ _______ _____ _____    ______ ____
ROOT
ATOM      1  C   UNL     1      -0.043   1.504   0.012  0.00  0.00    +0.048 C 
ATOM      2  C   UNL     1      -0.024  -0.003   0.003  0.00  0.00    +0.009 A 
ATOM      3  C   UNL     1      -0.028  -0.837  -1.122  0.00  0.00    +0.042 A 
ATOM      4  C   UNL     1      -0.007  -2.136  -0.672  0.00  0.00    +0.115 A 
ATOM      5  O   UNL     1       0.012  -2.111   0.658  0.00  0.00    -0.454 OA
ATOM      6  C   UNL     1       0.006  -0.830   1.091  0.00  0.00    +0.193 A 
ATOM      7  C   UNL     1      -0.010  -3.325  -1.600  0.00  0.00    +0.075 C 
ATOM      8  C   UNL     1      -0.545  -2.900  -2.970  0.00  0.00    +0.014 C 
ATOM      9  C   UNL     1       0.223  -1.683  -3.496  0.00  0.00    +0.058 C 
ATOM     10  C   UNL     1      -0.047  -0.510  -2.565  0.00  0.00    +0.070 C 
ATOM     11  N   UNL     1      -0.278   0.689  -3.005  0.00  0.00    -0.184 NA
ENDROOT
BRANCH   6  12
ATOM     12  C   UNL     1       0.025  -0.399   2.494  0.00  0.00    +0.284 C 
ATOM     13  O   UNL     1       0.014   0.787   2.767  0.00  0.00    -0.266 OA
ATOM     14  N   UNL     1       0.054  -1.317   3.480  0.00  0.00    -0.276 N 
ATOM     15  H   UNL     1      -0.003  -2.262   3.265  0.00  0.00    +0.155 HD
BRANCH  14  16
ATOM     16  C   UNL     1       0.166  -0.908   4.814  0.00  0.00    +0.077 A 
ATOM     17  C   UNL     1      -0.437   0.268   5.234  0.00  0.00    +0.047 A 
ATOM     18  C   UNL     1      -0.325   0.670   6.553  0.00  0.00    +0.043 A 
ATOM     19  C   UNL     1       0.389  -0.099   7.455  0.00  0.00    +0.024 A 
ATOM     20  C   UNL     1       0.992  -1.273   7.043  0.00  0.00    +0.049 A 
ATOM     21  C   UNL     1       0.879  -1.685   5.725  0.00  0.00    +0.141 A 
ATOM     22 CL   UNL     1      -1.081   2.143   7.077  0.00  0.00    -0.083 Cl
BRANCH  21  23
ATOM     23  O   UNL     1       1.469  -2.841   5.320  0.00  0.00    -0.493 OA
ATOM     24  C   UNL     1       2.184  -3.586   6.308  0.00  0.00    +0.277 C 
ENDBRANCH  21  23
ENDBRANCH  14  16
ENDBRANCH   6  12
BRANCH  11  25
ATOM     25  N   UNL     1      -0.284   0.940  -4.383  0.00  0.00    -0.203 N 
ATOM     26  C   UNL     1      -0.523   2.186  -4.839  0.00  0.00    +0.267 C 
ATOM     27  O   UNL     1      -0.734   3.091  -4.054  0.00  0.00    -0.268 OA
ATOM     28  H   UNL     1      -0.116   0.218  -5.008  0.00  0.00    +0.178 HD
BRANCH  26  29
ATOM     29  C   UNL     1      -0.530   2.451  -6.289  0.00  0.00    +0.079 A 
ATOM     30  C   UNL     1      -0.303   1.481  -7.370  0.00  0.00    +0.054 A 
ATOM     31  C   UNL     1      -0.404   2.175  -8.515  0.00  0.00    +0.196 A 
ATOM     32  O   UNL     1      -0.668   3.459  -8.229  0.00  0.00    -0.467 OA
ATOM     33  C   UNL     1      -0.754   3.646  -6.908  0.00  0.00    +0.114 A 
ATOM     34  C   UNL     1      -1.044   4.954  -6.219  0.00  0.00    +0.087 C 
ENDBRANCH  26  29
ENDBRANCH  11  25
TORSDOF 5
