REMARK  Name = ZINC37409497
REMARK  6 active torsions:
REMARK  status: ('A' for Active; 'I' for Inactive)
REMARK    1  A    between atoms: C_4  and  S_8
REMARK    2  A    between atoms: S_8  and  N_11
REMARK    3  A    between atoms: N_11  and  C_12
REMARK    4  A    between atoms: C_12  and  C_13
REMARK    5  A    between atoms: C_13  and  S_14
REMARK    6  A    between atoms: S_14  and  N_17
REMARK                            x       y       z     vdW  Elec       q    Type
REMARK                         _______ _______ _______ _____ _____    ______ ____
ROOT
ATOM      1  S   UNL     1       4.074  -0.873   0.008  0.00  0.00    +0.060 S 
ATOM      2  O   UNL     1       5.094  -0.410   0.883  0.00  0.00    -0.153 OA
ATOM      3  O   UNL     1       3.597  -2.211   0.034  0.00  0.00    -0.153 OA
ENDROOT
BRANCH   1   7
ATOM      4  C   UNL     1       0.479   1.796   0.684  0.00  0.00    +0.016 A 
ATOM      5  C   UNL     1       0.429   0.797  -0.271  0.00  0.00    +0.018 A 
ATOM      6  C   UNL     1       1.527  -0.018  -0.478  0.00  0.00    +0.044 A 
ATOM      7  C   UNL     1       2.676   0.166   0.271  0.00  0.00    +0.120 A 
ATOM      8  C   UNL     1       2.726   1.165   1.225  0.00  0.00    +0.045 A 
ATOM      9  C   UNL     1       1.627   1.979   1.433  0.00  0.00    +0.020 A 
ATOM     10 BR   UNL     1       1.696   3.345   2.739  0.00  0.00    -0.050 Br
ATOM     11 BR   UNL     1       1.458  -1.383  -1.784  0.00  0.00    -0.048 Br
ENDBRANCH   1   7
BRANCH   1  12
ATOM     12  N   UNL     1       4.610  -0.591  -1.533  0.00  0.00    -0.188 NA
ATOM     13  H   UNL     1       4.588  -1.303  -2.192  0.00  0.00    +0.148 HD
BRANCH  12  14
ATOM     14  C   UNL     1       5.119   0.732  -1.902  0.00  0.00    +0.130 C 
BRANCH  14  15
ATOM     15  C   UNL     1       5.906   0.630  -3.210  0.00  0.00    +0.201 C 
BRANCH  15  16
ATOM     16  S   UNL     1       6.536   2.269  -3.666  0.00  0.00    +0.028 S 
ATOM     17  O   UNL     1       5.458   3.127  -4.015  0.00  0.00    -0.158 OA
ATOM     18  O   UNL     1       7.526   2.689  -2.737  0.00  0.00    -0.158 OA
BRANCH  16  19
ATOM     19  N   UNL     1       7.360   2.029  -5.082  0.00  0.00    -0.208 NA
ATOM     20  H   UNL     1       7.411   1.141  -5.470  0.00  0.00    +0.144 HD
ATOM     21  H   UNL     1       7.792   2.776  -5.525  0.00  0.00    +0.144 HD
ENDBRANCH  16  19
ENDBRANCH  15  16
ENDBRANCH  14  15
ENDBRANCH  12  14
ENDBRANCH   1  12
TORSDOF 6
