REMARK  Name = ZINC35032029
REMARK  11 active torsions:
REMARK  status: ('A' for Active; 'I' for Inactive)
REMARK    1  A    between atoms: C_1  and  C_2
REMARK    2  A    between atoms: C_2  and  N_3
REMARK    3  A    between atoms: C_13  and  C_14
REMARK    4  A    between atoms: C_14  and  C_16
REMARK    5  A    between atoms: C_14  and  N_17
REMARK    6  A    between atoms: N_17  and  C_18
REMARK    7  A    between atoms: C_18  and  C_19
REMARK    8  A    between atoms: C_19  and  N_20
REMARK    9  A    between atoms: N_20  and  C_21
REMARK   10  A    between atoms: N_20  and  C_22
REMARK   11  A    between atoms: C_23  and  C_25
REMARK                            x       y       z     vdW  Elec       q    Type
REMARK                         _______ _______ _______ _____ _____    ______ ____
ROOT
ATOM      1  N   UNL     1      -1.676  -0.717   4.164  0.00  0.00    -0.289 N 
ATOM      2  C   UNL     1      -2.666  -0.066   4.807  0.00  0.00    +0.249 C 
ATOM      3  O   UNL     1      -3.090   0.985   4.367  0.00  0.00    -0.270 OA
ENDROOT
BRANCH   2   4
ATOM      4  C   UNL     1      -3.236  -0.630   6.048  0.00  0.00    +0.055 A 
ATOM      5  C   UNL     1      -2.866  -1.909   6.471  0.00  0.00    +0.016 A 
ATOM      6  C   UNL     1      -3.402  -2.430   7.630  0.00  0.00    +0.021 A 
ATOM      7  C   UNL     1      -4.305  -1.689   8.374  0.00  0.00    +0.042 A 
ATOM      8  C   UNL     1      -4.677  -0.421   7.961  0.00  0.00    +0.040 A 
ATOM      9  C   UNL     1      -4.143   0.115   6.806  0.00  0.00    +0.054 A 
ATOM     10 CL   UNL     1      -4.603   1.708   6.292  0.00  0.00    -0.083 Cl
ATOM     11 CL   UNL     1      -4.975  -2.353   9.831  0.00  0.00    -0.083 Cl
ENDBRANCH   2   4
BRANCH   1  12
ATOM     12  C   UNL     1      -0.878  -0.019   3.152  0.00  0.00    +0.139 C 
ATOM     13  C   UNL     1      -1.094  -0.679   1.789  0.00  0.00    +0.036 C 
BRANCH  12  24
ATOM     14  N   UNL     1       1.228   1.056   3.838  0.00  0.00    -0.295 N 
ATOM     15  C   UNL     1       2.536   1.039   4.183  0.00  0.00    +0.262 A 
ATOM     16  O   UNL     1       3.127   2.063   4.473  0.00  0.00    -0.267 OA
ATOM     17  C   UNL     1       3.217  -0.265   4.193  0.00  0.00    +0.066 A 
ATOM     18  C   UNL     1       4.562  -0.391   4.534  0.00  0.00    +0.035 A 
ATOM     19  C   UNL     1       5.150  -1.638   4.528  0.00  0.00    +0.042 A 
ATOM     20  C   UNL     1       4.412  -2.765   4.186  0.00  0.00    +0.022 A 
ATOM     21  C   UNL     1       3.083  -2.660   3.846  0.00  0.00    +0.030 A 
ATOM     22  C   UNL     1       2.465  -1.408   3.845  0.00  0.00    +0.078 A 
ATOM     23  N   UNL     1       1.156  -1.260   3.518  0.00  0.00    -0.232 NA
ATOM     24  C   UNL     1       0.581  -0.097   3.522  0.00  0.00    +0.133 A 
ATOM     25 CL   UNL     1       6.826  -1.801   4.950  0.00  0.00    -0.084 Cl
BRANCH  14  27
ATOM     26  C   UNL     1      -0.177   2.556   5.164  0.00  0.00    +0.027 C 
ATOM     27  C   UNL     1       0.500   2.327   3.811  0.00  0.00    +0.123 C 
ENDBRANCH  14  27
ENDBRANCH  12  24
ENDBRANCH   1  12
BRANCH   1  28
ATOM     28  C   UNL     1      -1.398  -2.121   4.476  0.00  0.00    +0.090 C 
BRANCH  28  29
ATOM     29  C   UNL     1      -0.555  -2.203   5.750  0.00  0.00    -0.060 C 
BRANCH  29  30
ATOM     30  N   UNL     1      -0.177  -3.600   5.998  0.00  0.00    +0.377 N 
ATOM     31  C   UNL     1       0.703  -4.068   4.919  0.00  0.00    -0.097 C 
ATOM     32  C   UNL     1       0.529  -3.696   7.283  0.00  0.00    -0.097 C 
ATOM     33  H   UNL     1      -1.007  -4.173   6.028  0.00  0.00    -0.083 HD
ENDBRANCH  29  30
ENDBRANCH  28  29
ENDBRANCH   1  28
TORSDOF 7
