REMARK  Name = ZINC08855301
REMARK  6 active torsions:
REMARK  status: ('A' for Active; 'I' for Inactive)
REMARK    1  A    between atoms: C_6  and  N_7
REMARK    2  A    between atoms: C_10  and  C_12
REMARK    3  A    between atoms: C_15  and  C_18
REMARK    4  A    between atoms: C_18  and  N_19
REMARK    5  A    between atoms: N_19  and  C_20
REMARK    6  A    between atoms: C_23  and  C_25
REMARK                            x       y       z     vdW  Elec       q    Type
REMARK                         _______ _______ _______ _____ _____    ______ ____
ROOT
ATOM      1  C   UNL     1      -0.314  -5.376  -0.022  0.00  0.00    +0.111 C 
ATOM      2  N   UNL     1       0.103  -6.598  -0.031  0.00  0.00    -0.087 NA
ATOM      3  O   UNL     1      -0.952  -7.539  -0.033  0.00  0.00    -0.388 OA
ATOM      4  C   UNL     1      -2.148  -6.853   0.390  0.00  0.00    +0.227 C 
ATOM      5  C   UNL     1      -1.831  -5.392  -0.001  0.00  0.00    +0.109 C 
ENDROOT
BRANCH   1   9
ATOM      6  N   UNL     1       1.236  -2.082  -0.021  0.00  0.00    -0.239 N 
ATOM      7  C   UNL     1       2.347  -2.864  -0.035  0.00  0.00    +0.115 A 
ATOM      8  C   UNL     1       1.949  -4.154  -0.038  0.00  0.00    +0.051 A 
ATOM      9  C   UNL     1       0.538  -4.171  -0.024  0.00  0.00    +0.110 A 
ATOM     10  N   UNL     1       0.115  -2.922  -0.008  0.00  0.00    -0.165 NA
BRANCH   6  16
ATOM     11  C   UNL     1       0.002  -0.004   0.002  0.00  0.00    +0.030 A 
ATOM     12  C   UNL     1      -0.017   1.377   0.010  0.00  0.00    +0.040 A 
ATOM     13  C   UNL     1       1.173   2.086   0.002  0.00  0.00    +0.124 A 
ATOM     14  C   UNL     1       2.383   1.413  -0.013  0.00  0.00    +0.040 A 
ATOM     15  C   UNL     1       2.406   0.032  -0.021  0.00  0.00    +0.030 A 
ATOM     16  C   UNL     1       1.214  -0.681  -0.013  0.00  0.00    +0.066 A 
ATOM     17  F   UNL     1       1.152   3.437   0.009  0.00  0.00    -0.205 F 
ENDBRANCH   6  16
ENDBRANCH   1   9
BRANCH   4  18
ATOM     18  C   UNL     1      -3.373  -7.373  -0.365  0.00  0.00    +0.150 C 
BRANCH  18  19
ATOM     19  N   UNL     1      -3.627  -8.765   0.014  0.00  0.00    -0.326 N 
ATOM     20  H   UNL     1      -3.049  -9.205   0.656  0.00  0.00    +0.148 HD
BRANCH  19  21
ATOM     21  C   UNL     1      -4.696  -9.454  -0.547  0.00  0.00    +0.115 A 
ATOM     22  C   UNL     1      -4.929 -10.779  -0.187  0.00  0.00    +0.079 A 
ATOM     23  C   UNL     1      -6.000 -11.451  -0.749  0.00  0.00    +0.037 A 
ATOM     24  C   UNL     1      -6.798 -10.777  -1.664  0.00  0.00    +0.072 A 
ATOM     25  C   UNL     1      -6.506  -9.466  -1.979  0.00  0.00    +0.096 A 
ATOM     26 CL   UNL     1      -3.893 -11.575   0.957  0.00  0.00    -0.080 Cl
ATOM     27  N   UNL     1      -5.466  -8.772  -1.443  0.00  0.00    -0.348 N 
ATOM     28  H   UNL     1      -5.273  -7.796  -1.697  0.00  0.00    +0.167 HD
BRANCH  24  29
ATOM     29  C   UNL     1      -7.972 -11.472  -2.306  0.00  0.00    +0.419 C 
ATOM     30  F   UNL     1      -8.612 -10.589  -3.183  0.00  0.00    -0.166 F 
ATOM     31  F   UNL     1      -7.521 -12.589  -3.016  0.00  0.00    -0.166 F 
ATOM     32  F   UNL     1      -8.871 -11.880  -1.316  0.00  0.00    -0.166 F 
ENDBRANCH  24  29
ENDBRANCH  19  21
ENDBRANCH  18  19
ENDBRANCH   4  18
TORSDOF 6
