REMARK  Name = ZINC06149051
REMARK  12 active torsions:
REMARK  status: ('A' for Active; 'I' for Inactive)
REMARK    1  A    between atoms: C_1  and  C_2
REMARK    2  A    between atoms: C_2  and  C_3
REMARK    3  A    between atoms: C_3  and  C_4
REMARK    4  A    between atoms: C_3  and  C_5
REMARK    5  A    between atoms: C_3  and  N_6
REMARK    6  A    between atoms: C_7  and  C_11
REMARK    7  A    between atoms: C_11  and  C_13
REMARK    8  A    between atoms: C_11  and  N_75
REMARK    9  A    between atoms: C_16  and  C_26
REMARK   10  A    between atoms: C_19  and  C_25
REMARK   11  A    between atoms: C_29  and  C_32
REMARK   12  A    between atoms: C_32  and  C_33
REMARK                            x       y       z     vdW  Elec       q    Type
REMARK                         _______ _______ _______ _____ _____    ______ ____
ROOT
ATOM      1  C   UNL     1      -0.756   1.910  -1.124  0.00  0.00    +0.039 C 
ENDROOT
BRANCH   1   2
ATOM      2  C   UNL     1      -0.665   3.382  -0.817  0.00  0.00    +0.011 A 
ATOM      3  C   UNL     1      -0.276   4.251  -1.782  0.00  0.00    +0.018 A 
ATOM      4  C   UNL     1      -0.202   5.676  -1.452  0.00  0.00    +0.002 A 
ATOM      5  C   UNL     1       0.188   6.620  -2.408  0.00  0.00    -0.041 A 
ATOM      6  C   UNL     1       0.251   7.941  -2.067  0.00  0.00    +0.004 A 
ATOM      7  C   UNL     1      -0.069   8.356  -0.781  0.00  0.00    +0.005 A 
ATOM      8  C   UNL     1      -0.455   7.443   0.176  0.00  0.00    -0.026 A 
ATOM      9  C   UNL     1      -0.527   6.092  -0.148  0.00  0.00    +0.052 A 
ATOM     10  N   UNL     1      -0.911   5.157   0.790  0.00  0.00    -0.322 N 
ATOM     11  H   UNL     1      -1.142   5.454   1.717  0.00  0.00    +0.169 HD
ATOM     12  C   UNL     1      -0.980   3.851   0.477  0.00  0.00    +0.251 A 
ATOM     13  O   UNL     1      -1.323   3.053   1.331  0.00  0.00    -0.268 OA
ATOM     14  C   UNL     1      -0.799   7.906   1.568  0.00  0.00    +0.046 C 
ATOM     15  C   UNL     1       0.539   6.181  -3.806  0.00  0.00    +0.044 C 
ENDBRANCH   1   2
BRANCH   1  21
ATOM     16  C   UNL     1       1.454   1.638  -0.173  0.00  0.00    -0.077 C 
ATOM     17  C   UNL     1       2.243   0.936   0.935  0.00  0.00    -0.015 C 
ATOM     18  C   UNL     1       2.206  -0.577   0.701  0.00  0.00    -0.010 C 
ATOM     19  C   UNL     1       0.748  -1.044   0.664  0.00  0.00    -0.015 C 
ATOM     20  C   UNL     1       0.002  -0.284  -0.435  0.00  0.00    -0.077 C 
ATOM     21  N   UNL     1       0.054   1.163  -0.139  0.00  0.00    +0.389 N 
ATOM     22  H   UNL     1      -0.330   1.325   0.799  0.00  0.00    -0.080 HD
BRANCH  18  23
ATOM     23  C   UNL     1       2.942  -1.289   1.837  0.00  0.00    +0.038 C 
BRANCH  23  24
ATOM     24  C   UNL     1       4.404  -0.923   1.796  0.00  0.00    -0.047 A 
ATOM     25  C   UNL     1       5.288  -1.689   1.060  0.00  0.00    +0.003 A 
ATOM     26  C   UNL     1       6.627  -1.350   1.018  0.00  0.00    +0.000 A 
ATOM     27  C   UNL     1       7.084  -0.251   1.721  0.00  0.00    +0.000 A 
ATOM     28  C   UNL     1       6.201   0.512   2.461  0.00  0.00    +0.000 A 
ATOM     29  C   UNL     1       4.861   0.176   2.499  0.00  0.00    +0.003 A 
ENDBRANCH  23  24
ENDBRANCH  18  23
ENDBRANCH   1  21
BRANCH   1  31
ATOM     30  N   UNL     1      -2.993   1.083  -2.028  0.00  0.00    -0.225 N 
ATOM     31  C   UNL     1      -2.191   1.461  -1.015  0.00  0.00    +0.143 A 
ATOM     32  N   UNL     1      -2.901   1.369   0.083  0.00  0.00    -0.115 NA
ATOM     33  N   UNL     1      -4.076   0.951  -0.238  0.00  0.00    -0.023 NA
ATOM     34  N   UNL     1      -4.135   0.774  -1.512  0.00  0.00    -0.043 NA
BRANCH  30  35
ATOM     35  C   UNL     1      -2.636   1.030  -3.447  0.00  0.00    +0.061 C 
ATOM     36  C   UNL     1      -2.165   2.410  -3.907  0.00  0.00    +0.036 C 
ATOM     37  C   UNL     1      -1.512   0.012  -3.653  0.00  0.00    +0.036 C 
BRANCH  35  39
ATOM     38  C   UNL     1      -3.487   0.554  -5.748  0.00  0.00    +0.006 C 
ATOM     39  C   UNL     1      -3.860   0.610  -4.265  0.00  0.00    +0.026 C 
ENDBRANCH  35  39
ENDBRANCH  30  35
ENDBRANCH   1  31
TORSDOF 7
