REMARK  Name = ZINC03312190
REMARK  11 active torsions:
REMARK  status: ('A' for Active; 'I' for Inactive)
REMARK    1  A    between atoms: C_1  and  C_2
REMARK    2  A    between atoms: C_5  and  N_9
REMARK    3  A    between atoms: C_6  and  C_8
REMARK    4  A    between atoms: C_13  and  C_32
REMARK    5  A    between atoms: C_14  and  C_31
REMARK    6  A    between atoms: C_18  and  S_19
REMARK    7  A    between atoms: S_19  and  C_20
REMARK    8  A    between atoms: C_20  and  C_21
REMARK    9  A    between atoms: C_21  and  C_23
REMARK   10  A    between atoms: C_26  and  O_30
REMARK   11  A    between atoms: C_28  and  O_29
REMARK                            x       y       z     vdW  Elec       q    Type
REMARK                         _______ _______ _______ _____ _____    ______ ____
ROOT
ATOM      1  N   UNL     1      -2.458   3.824   0.047  0.00  0.00    -0.255 N 
ATOM      2  C   UNL     1      -3.045   4.154  -1.117  0.00  0.00    +0.268 A 
ATOM      3  O   UNL     1      -2.521   3.861  -2.178  0.00  0.00    -0.267 OA
ATOM      4  C   UNL     1      -4.292   4.855  -1.095  0.00  0.00    +0.076 A 
ATOM      5  C   UNL     1      -5.109   5.314  -2.205  0.00  0.00    -0.026 A 
ATOM      6  C   UNL     1      -6.257   5.958  -1.951  0.00  0.00    -0.008 A 
ATOM      7  S   UNL     1      -6.326   5.996  -0.170  0.00  0.00    -0.073 S 
ATOM      8  C   UNL     1      -4.809   5.144   0.182  0.00  0.00    +0.117 A 
ATOM      9  N   UNL     1      -4.179   4.789   1.295  0.00  0.00    -0.215 NA
ATOM     10  C   UNL     1      -3.034   4.140   1.246  0.00  0.00    +0.178 A 
ATOM     11  C   UNL     1      -7.251   6.518  -2.936  0.00  0.00    +0.052 C 
ATOM     12  C   UNL     1      -4.670   5.069  -3.626  0.00  0.00    +0.045 C 
ENDROOT
BRANCH   1  17
ATOM     13  C   UNL     1       2.490   1.045  -0.016  0.00  0.00    +0.044 C 
ATOM     14  C   UNL     1       1.176   1.783   0.000  0.00  0.00    -0.050 A 
ATOM     15  C   UNL     1       1.161   3.166   0.008  0.00  0.00    +0.005 A 
ATOM     16  C   UNL     1      -0.041   3.845   0.024  0.00  0.00    +0.027 A 
ATOM     17  C   UNL     1      -1.236   3.138   0.031  0.00  0.00    +0.055 A 
ATOM     18  C   UNL     1      -1.218   1.750   0.017  0.00  0.00    -0.026 A 
ATOM     19  C   UNL     1      -0.013   1.076   0.008  0.00  0.00    +0.008 A 
ATOM     20  C   UNL     1      -2.513   0.978   0.019  0.00  0.00    +0.046 C 
ENDBRANCH   1  17
BRANCH  10  21
ATOM     21  S   UNL     1      -2.231   3.679   2.745  0.00  0.00    -0.079 S 
BRANCH  21  22
ATOM     22  C   UNL     1      -3.412   4.335   3.949  0.00  0.00    +0.157 C 
BRANCH  22  23
ATOM     23  C   UNL     1      -2.919   4.049   5.344  0.00  0.00    +0.177 C 
ATOM     24  O   UNL     1      -1.872   3.458   5.508  0.00  0.00    -0.291 OA
BRANCH  23  25
ATOM     25  C   UNL     1      -3.704   4.482   6.502  0.00  0.00    +0.060 A 
ATOM     26  C   UNL     1      -4.915   5.164   6.317  0.00  0.00    +0.018 A 
ATOM     27  C   UNL     1      -5.645   5.567   7.397  0.00  0.00    +0.046 A 
ATOM     28  C   UNL     1      -5.196   5.305   8.689  0.00  0.00    +0.120 A 
ATOM     29  C   UNL     1      -4.000   4.631   8.891  0.00  0.00    +0.091 A 
ATOM     30  C   UNL     1      -3.250   4.212   7.806  0.00  0.00    +0.131 A 
BRANCH  30  31
ATOM     31  O   UNL     1      -2.083   3.548   7.997  0.00  0.00    -0.506 OA
ATOM     32  H   UNL     1      -1.309   4.124   8.061  0.00  0.00    +0.292 HD
ENDBRANCH  30  31
BRANCH  28  33
ATOM     33  O   UNL     1      -5.931   5.710   9.754  0.00  0.00    -0.507 OA
ATOM     34  H   UNL     1      -6.577   5.057  10.057  0.00  0.00    +0.292 HD
ENDBRANCH  28  33
ENDBRANCH  23  25
ENDBRANCH  22  23
ENDBRANCH  21  22
ENDBRANCH  10  21
TORSDOF 7
