REMARK  Name = ZINC04132504
REMARK  6 active torsions:
REMARK  status: ('A' for Active; 'I' for Inactive)
REMARK    1  A    between atoms: C_4  and  C_7
REMARK    2  A    between atoms: N_10  and  C_12
REMARK    3  A    between atoms: C_12  and  C_13
REMARK    4  A    between atoms: N_15  and  N_16
REMARK    5  A    between atoms: C_17  and  C_18
REMARK    6  A    between atoms: C_20  and  O_26
REMARK                            x       y       z     vdW  Elec       q    Type
REMARK                         _______ _______ _______ _____ _____    ______ ____
ROOT
ATOM      1  C   UNL     1       5.832   5.551  -1.444  0.00  0.00    +0.255 C 
ATOM      2  O   UNL     1       5.508   4.834  -2.368  0.00  0.00    -0.272 OA
ATOM      3  N   UNL     1       6.359   6.767  -1.689  0.00  0.00    -0.205 N 
ATOM      4  H   UNL     1       6.617   7.341  -0.951  0.00  0.00    +0.177 HD
ENDROOT
BRANCH   3   5
ATOM      5  N   UNL     1       6.532   7.203  -3.009  0.00  0.00    -0.188 NA
ATOM      6  C   UNL     1       7.040   8.374  -3.244  0.00  0.00    +0.139 C 
BRANCH   6   7
ATOM      7  C   UNL     1       7.223   8.833  -4.634  0.00  0.00    +0.012 A 
ATOM      8  C   UNL     1       7.768  10.093  -4.890  0.00  0.00    +0.057 A 
ATOM      9  C   UNL     1       7.937  10.516  -6.196  0.00  0.00    +0.131 A 
ATOM     10  C   UNL     1       7.564   9.690  -7.250  0.00  0.00    +0.060 A 
ATOM     11  C   UNL     1       7.023   8.442  -6.998  0.00  0.00    +0.034 A 
ATOM     12  C   UNL     1       6.856   8.006  -5.699  0.00  0.00    +0.028 A 
ATOM     13 BR   UNL     1       6.123   6.296  -5.362  0.00  0.00    -0.050 Br
ATOM     14 BR   UNL     1       7.796  10.275  -9.033  0.00  0.00    -0.046 Br
BRANCH   9  15
ATOM     15  O   UNL     1       8.467  11.742  -6.449  0.00  0.00    -0.506 OA
ATOM     16  H   UNL     1       9.431  11.744  -6.533  0.00  0.00    +0.292 HD
ENDBRANCH   9  15
ENDBRANCH   6   7
ENDBRANCH   3   5
BRANCH   1  17
ATOM     17  C   UNL     1       5.645   5.082  -0.024  0.00  0.00    +0.265 C 
BRANCH  17  21
ATOM     18  C   UNL     1       3.660   2.165  -0.022  0.00  0.00    +0.205 A 
ATOM     19  N   UNL     1       4.897   1.648  -0.036  0.00  0.00    -0.108 NA
ATOM     20  N   UNL     1       5.725   2.637  -0.039  0.00  0.00    -0.045 NA
ATOM     21  N   UNL     1       5.060   3.739  -0.026  0.00  0.00    -0.154 N 
ATOM     22  N   UNL     1       3.799   3.476  -0.022  0.00  0.00    -0.130 NA
BRANCH  18  26
ATOM     23  C   UNL     1       0.002  -0.004   0.002  0.00  0.00    +0.000 A 
ATOM     24  C   UNL     1      -0.017   1.379   0.010  0.00  0.00    +0.001 A 
ATOM     25  C   UNL     1       1.168   2.088   0.002  0.00  0.00    +0.012 A 
ATOM     26  C   UNL     1       2.383   1.408  -0.014  0.00  0.00    +0.023 A 
ATOM     27  C   UNL     1       2.397   0.015  -0.021  0.00  0.00    +0.012 A 
ATOM     28  C   UNL     1       1.206  -0.684  -0.013  0.00  0.00    +0.001 A 
ENDBRANCH  18  26
ENDBRANCH  17  21
ENDBRANCH   1  17
TORSDOF 6
