REMARK  Name = ZINC16627581
REMARK  8 active torsions:
REMARK  status: ('A' for Active; 'I' for Inactive)
REMARK    1  A    between atoms: C_1  and  C_2
REMARK    2  A    between atoms: C_2  and  C_3
REMARK    3  A    between atoms: C_3  and  N_52
REMARK    4  A    between atoms: C_4  and  C_5
REMARK    5  A    between atoms: C_4  and  N_52
REMARK    6  A    between atoms: N_7  and  C_8
REMARK    7  A    between atoms: C_16  and  C_17
REMARK    8  A    between atoms: C_16  and  N_52
REMARK                            x       y       z     vdW  Elec       q    Type
REMARK                         _______ _______ _______ _____ _____    ______ ____
ROOT
ATOM      1  N   UNL     1       2.301   0.657  -0.058  0.00  0.00    +0.391 N 
ATOM      2  H   UNL     1       2.136  -0.178   0.516  0.00  0.00    -0.080 HD
ENDROOT
BRANCH   1   3
ATOM      3  C   UNL     1       2.417   0.252  -1.474  0.00  0.00    -0.078 C 
BRANCH   3   5
ATOM      4  C   UNL     1       2.956   1.000  -3.797  0.00  0.00    +0.002 C 
ATOM      5  C   UNL     1       2.737   1.462  -2.354  0.00  0.00    -0.022 C 
ENDBRANCH   3   5
ENDBRANCH   1   3
BRANCH   1   6
ATOM      6  C   UNL     1       1.163   1.586   0.110  0.00  0.00    +0.020 C 
BRANCH   6   7
ATOM      7  C   UNL     1      -0.119   0.834  -0.139  0.00  0.00    +0.201 C 
ATOM      8  O   UNL     1      -0.085  -0.340  -0.439  0.00  0.00    -0.278 OA
ATOM      9  N   UNL     1      -1.303   1.468  -0.032  0.00  0.00    -0.286 N 
ATOM     10  H   UNL     1      -1.335   2.388   0.273  0.00  0.00    +0.155 HD
BRANCH   9  11
ATOM     11  C   UNL     1      -2.488   0.799  -0.363  0.00  0.00    +0.052 A 
ATOM     12  C   UNL     1      -2.606  -0.564  -0.127  0.00  0.00    +0.026 A 
ATOM     13  C   UNL     1      -3.775  -1.222  -0.454  0.00  0.00    +0.022 A 
ATOM     14  C   UNL     1      -4.830  -0.525  -1.017  0.00  0.00    +0.042 A 
ATOM     15  C   UNL     1      -4.715   0.834  -1.254  0.00  0.00    +0.041 A 
ATOM     16  C   UNL     1      -3.550   1.499  -0.923  0.00  0.00    +0.064 A 
ATOM     17 CL   UNL     1      -3.410   3.204  -1.214  0.00  0.00    -0.082 Cl
ATOM     18 CL   UNL     1      -6.298  -1.355  -1.426  0.00  0.00    -0.083 Cl
ENDBRANCH   9  11
ENDBRANCH   6   7
ENDBRANCH   1   6
BRANCH   1  19
ATOM     19  C   UNL     1       3.552   1.306   0.386  0.00  0.00    +0.020 C 
BRANCH  19  20
ATOM     20  C   UNL     1       4.608   0.247   0.570  0.00  0.00    +0.204 C 
ATOM     21  O   UNL     1       4.350  -0.914   0.331  0.00  0.00    -0.277 OA
ATOM     22  N   UNL     1       5.839   0.589   0.998  0.00  0.00    -0.262 N 
ATOM     23  C   UNL     1       6.179   1.990   1.288  0.00  0.00    +0.209 C 
ATOM     24  C   UNL     1       7.554   2.287   0.756  0.00  0.00    +0.235 C 
ATOM     25  O   UNL     1       7.829   3.414   0.405  0.00  0.00    -0.274 OA
ATOM     26  N   UNL     1       8.481   1.315   0.659  0.00  0.00    -0.283 N 
ATOM     27  C   UNL     1       8.174  -0.004   1.010  0.00  0.00    +0.055 A 
ATOM     28  C   UNL     1       6.839  -0.380   1.177  0.00  0.00    +0.058 A 
ATOM     29  C   UNL     1       6.520  -1.683   1.511  0.00  0.00    +0.025 A 
ATOM     30  C   UNL     1       7.529  -2.614   1.684  0.00  0.00    +0.002 A 
ATOM     31  C   UNL     1       8.851  -2.244   1.523  0.00  0.00    +0.002 A 
ATOM     32  C   UNL     1       9.177  -0.943   1.187  0.00  0.00    +0.025 A 
ATOM     33  H   UNL     1       9.372   1.532   0.343  0.00  0.00    +0.155 HD
ENDBRANCH  19  20
ENDBRANCH   1  19
TORSDOF 7
