REMARK  Name = ZINC16073654
REMARK  5 active torsions:
REMARK  status: ('A' for Active; 'I' for Inactive)
REMARK    1  A    between atoms: C_1  and  C_2
REMARK    2  A    between atoms: C_9  and  C_14
REMARK    3  A    between atoms: N_16  and  N_17
REMARK    4  A    between atoms: C_18  and  C_20
REMARK    5  A    between atoms: C_20  and  C_21
REMARK                            x       y       z     vdW  Elec       q    Type
REMARK                         _______ _______ _______ _____ _____    ______ ____
ROOT
ATOM      1  C   UNL     1       1.234  -2.163  -0.016  0.00  0.00    +0.260 C 
ATOM      2  O   UNL     1       0.187  -2.782  -0.013  0.00  0.00    -0.269 OA
ATOM      3  N   UNL     1       2.408  -2.826  -0.026  0.00  0.00    -0.230 N 
ATOM      4  H   UNL     1       3.243  -2.332  -0.029  0.00  0.00    +0.173 HD
ENDROOT
BRANCH   1  12
ATOM      5  C   UNL     1      -0.777   5.670  -0.624  0.00  0.00    +0.029 C 
ATOM      6  C   UNL     1      -0.381   4.214  -0.875  0.00  0.00    +0.134 C 
ATOM      7  C   UNL     1      -1.459   3.302  -0.355  0.00  0.00    +0.230 C 
ATOM      8  O   UNL     1      -2.590   3.734  -0.285  0.00  0.00    -0.274 OA
ATOM      9  N   UNL     1      -1.240   2.048   0.031  0.00  0.00    -0.284 N 
ATOM     10  C   UNL     1      -0.017   1.381   0.010  0.00  0.00    +0.048 A 
ATOM     11  C   UNL     1       0.002  -0.004   0.002  0.00  0.00    +0.037 A 
ATOM     12  C   UNL     1       1.219  -0.689  -0.009  0.00  0.00    +0.040 A 
ATOM     13  C   UNL     1       2.424   0.021  -0.012  0.00  0.00    +0.014 A 
ATOM     14  C   UNL     1       2.406   1.398  -0.007  0.00  0.00    +0.017 A 
ATOM     15  C   UNL     1       1.196   2.079   0.002  0.00  0.00    +0.030 A 
ATOM     16  S   UNL     1       1.170   3.844  -0.002  0.00  0.00    -0.111 S 
ATOM     17  H   UNL     1      -2.005   1.550   0.358  0.00  0.00    +0.155 HD
ENDBRANCH   1  12
BRANCH   3  18
ATOM     18  N   UNL     1       2.422  -4.226  -0.033  0.00  0.00    -0.234 N 
ATOM     19  C   UNL     1       3.596  -4.889  -0.044  0.00  0.00    +0.233 C 
ATOM     20  O   UNL     1       4.640  -4.272  -0.047  0.00  0.00    -0.274 OA
ATOM     21  H   UNL     1       1.587  -4.720  -0.031  0.00  0.00    +0.173 HD
BRANCH  19  22
ATOM     22  C   UNL     1       3.611  -6.396  -0.051  0.00  0.00    +0.134 C 
BRANCH  22  23
ATOM     23  C   UNL     1       5.037  -6.884  -0.062  0.00  0.00    -0.014 A 
ATOM     24  C   UNL     1       5.753  -7.231  -1.143  0.00  0.00    +0.087 A 
ATOM     25  N   UNL     1       7.009  -7.622  -0.764  0.00  0.00    -0.360 N 
ATOM     26  H   UNL     1       7.707  -7.915  -1.369  0.00  0.00    +0.165 HD
ATOM     27  C   UNL     1       7.131  -7.540   0.605  0.00  0.00    +0.047 A 
ATOM     28  C   UNL     1       5.901  -7.074   1.105  0.00  0.00    +0.003 A 
ATOM     29  C   UNL     1       5.732  -6.892   2.478  0.00  0.00    +0.010 A 
ATOM     30  C   UNL     1       6.763  -7.167   3.332  0.00  0.00    +0.001 A 
ATOM     31  C   UNL     1       7.978  -7.628   2.844  0.00  0.00    +0.002 A 
ATOM     32  C   UNL     1       8.167  -7.814   1.492  0.00  0.00    +0.026 A 
ENDBRANCH  22  23
ENDBRANCH  19  22
ENDBRANCH   3  18
TORSDOF 4
