REMARK  Name = ZINC09424768
REMARK  15 active torsions:
REMARK  status: ('A' for Active; 'I' for Inactive)
REMARK    1  A    between atoms: C_1  and  C_2
REMARK    2  A    between atoms: C_2  and  N_71
REMARK    3  A    between atoms: C_3  and  C_4
REMARK    4  A    between atoms: C_3  and  N_71
REMARK    5  A    between atoms: C_5  and  C_6
REMARK    6  A    between atoms: C_5  and  N_71
REMARK    7  A    between atoms: C_6  and  N_7
REMARK    8  A    between atoms: C_8  and  C_28
REMARK    9  A    between atoms: C_10  and  C_15
REMARK   10  A    between atoms: C_11  and  O_14
REMARK   11  A    between atoms: C_15  and  C_17
REMARK   12  A    between atoms: C_24  and  C_27
REMARK   13  A    between atoms: C_31  and  C_34
REMARK   14  A    between atoms: C_34  and  C_35
REMARK   15  A    between atoms: C_34  and  C_36
REMARK                            x       y       z     vdW  Elec       q    Type
REMARK                         _______ _______ _______ _____ _____    ______ ____
ROOT
ATOM      1  N   UNL     1      -2.177   5.026   0.828  0.00  0.00    -0.285 N 
ATOM      2  C   UNL     1      -3.596   5.396   0.785  0.00  0.00    +0.144 C 
ATOM      3  C   UNL     1      -3.823   6.327   1.954  0.00  0.00    +0.071 C 
ATOM      4  C   UNL     1      -2.632   6.464   2.581  0.00  0.00    +0.188 C 
ATOM      5  C   UNL     1      -1.616   5.654   1.877  0.00  0.00    +0.282 C 
ATOM      6  O   UNL     1      -0.447   5.569   2.198  0.00  0.00    -0.267 OA
ENDROOT
BRANCH   2   7
ATOM      7  C   UNL     1      -4.457   4.168   0.929  0.00  0.00    -0.022 A 
ATOM      8  C   UNL     1      -4.200   3.258   1.937  0.00  0.00    +0.006 A 
ATOM      9  C   UNL     1      -4.992   2.133   2.071  0.00  0.00    +0.004 A 
ATOM     10  C   UNL     1      -6.037   1.915   1.192  0.00  0.00    -0.045 A 
ATOM     11  C   UNL     1      -6.291   2.822   0.181  0.00  0.00    +0.004 A 
ATOM     12  C   UNL     1      -5.501   3.949   0.050  0.00  0.00    +0.006 A 
BRANCH  10  13
ATOM     13  C   UNL     1      -6.898   0.686   1.337  0.00  0.00    +0.013 C 
ATOM     14  C   UNL     1      -6.029  -0.565   1.197  0.00  0.00    +0.012 C 
ATOM     15  C   UNL     1      -7.568   0.692   2.712  0.00  0.00    +0.012 C 
ENDBRANCH  10  13
ENDBRANCH   2   7
BRANCH   4  16
ATOM     16  O   UNL     1      -2.407   7.222   3.679  0.00  0.00    -0.502 OA
ATOM     17  H   UNL     1      -1.445   7.151   3.942  0.00  0.00    +0.292 HD
ENDBRANCH   4  16
BRANCH   3  18
ATOM     18  C   UNL     1      -5.089   6.962   2.333  0.00  0.00    +0.195 C 
ATOM     19  O   UNL     1      -5.642   6.647   3.370  0.00  0.00    -0.287 OA
BRANCH  18  20
ATOM     20  C   UNL     1      -5.694   7.984   1.455  0.00  0.00    +0.023 A 
ATOM     21  C   UNL     1      -5.099   8.302   0.230  0.00  0.00    +0.015 A 
ATOM     22  C   UNL     1      -5.665   9.250  -0.588  0.00  0.00    +0.046 A 
ATOM     23  C   UNL     1      -6.836   9.908  -0.204  0.00  0.00    +0.124 A 
ATOM     24  C   UNL     1      -7.420   9.591   1.020  0.00  0.00    -0.002 A 
ATOM     25  C   UNL     1      -6.869   8.639   1.840  0.00  0.00    +0.019 A 
ATOM     26  C   UNL     1      -8.651  10.466   1.163  0.00  0.00    +0.083 C 
ATOM     27  C   UNL     1      -8.408  11.538   0.074  0.00  0.00    +0.175 C 
ATOM     28  O   UNL     1      -7.554  10.857  -0.860  0.00  0.00    -0.488 OA
ATOM     29  C   UNL     1      -7.699  12.759   0.665  0.00  0.00    +0.052 C 
ENDBRANCH  18  20
ENDBRANCH   3  18
BRANCH   1  30
ATOM     30  C   UNL     1      -1.490   4.133  -0.110  0.00  0.00    +0.090 C 
BRANCH  30  31
ATOM     31  C   UNL     1      -1.565   2.695   0.407  0.00  0.00    -0.060 C 
BRANCH  31  32
ATOM     32  N   UNL     1      -0.750   1.833  -0.474  0.00  0.00    +0.380 N 
ATOM     33  H   UNL     1       0.128   2.316  -0.695  0.00  0.00    -0.082 HD
BRANCH  32  35
ATOM     34  C   UNL     1      -0.533   0.862  -2.710  0.00  0.00    -0.017 C 
ATOM     35  C   UNL     1      -1.479   1.563  -1.732  0.00  0.00    -0.082 C 
ENDBRANCH  32  35
BRANCH  32  36
ATOM     36  C   UNL     1      -0.439   0.561   0.211  0.00  0.00    -0.082 C 
ATOM     37  C   UNL     1       0.479   0.852   1.400  0.00  0.00    -0.017 C 
ENDBRANCH  32  36
ENDBRANCH  31  32
ENDBRANCH  30  31
ENDBRANCH   1  30
TORSDOF 10
