REMARK  Name = ZINC38701444
REMARK  13 active torsions:
REMARK  status: ('A' for Active; 'I' for Inactive)
REMARK    1  A    between atoms: C_1  and  C_2
REMARK    2  A    between atoms: C_2  and  C_3
REMARK    3  A    between atoms: C_3  and  C_4
REMARK    4  A    between atoms: C_4  and  C_5
REMARK    5  A    between atoms: C_5  and  O_6
REMARK    6  A    between atoms: O_6  and  C_7
REMARK    7  A    between atoms: C_12  and  C_13
REMARK    8  A    between atoms: C_18  and  O_27
REMARK    9  A    between atoms: C_22  and  N_26
REMARK   10  A    between atoms: C_23  and  C_24
REMARK   11  A    between atoms: O_27  and  C_28
REMARK   12  A    between atoms: C_28  and  C_30
REMARK   13  A    between atoms: C_31  and  C_39
REMARK                            x       y       z     vdW  Elec       q    Type
REMARK                         _______ _______ _______ _____ _____    ______ ____
ROOT
ATOM      1  C   UNL     1       1.569  -6.844   2.516  0.00  0.00    +0.101 C 
ATOM      2  C   UNL     1       2.629  -7.676   1.843  0.00  0.00    +0.008 A 
ATOM      3  C   UNL     1       3.435  -7.100   0.878  0.00  0.00    +0.012 A 
ATOM      4  C   UNL     1       4.411  -7.848   0.250  0.00  0.00    +0.047 A 
ATOM      5  C   UNL     1       4.586  -9.183   0.587  0.00  0.00    +0.136 A 
ATOM      6  C   UNL     1       3.781  -9.762   1.554  0.00  0.00    +0.093 A 
ATOM      7  C   UNL     1       2.800  -9.008   2.185  0.00  0.00    +0.138 A 
ATOM      8  O   UNL     1       2.019  -9.590   3.129  0.00  0.00    -0.441 OA
ATOM      9  C   UNL     1       0.846  -9.030   3.466  0.00  0.00    +0.199 C 
ATOM     10  C   UNL     1       0.573  -7.734   3.204  0.00  0.00    +0.098 C 
ENDROOT
BRANCH   1  16
ATOM     11  C   UNL     1       2.098  -4.563   3.414  0.00  0.00    +0.125 A 
ATOM     12  C   UNL     1       2.690  -3.733   4.355  0.00  0.00    +0.046 A 
ATOM     13  C   UNL     1       3.401  -4.280   5.406  0.00  0.00    +0.004 A 
ATOM     14  C   UNL     1       3.522  -5.652   5.520  0.00  0.00    +0.001 A 
ATOM     15  C   UNL     1       2.933  -6.481   4.583  0.00  0.00    +0.008 A 
ATOM     16  C   UNL     1       2.216  -5.939   3.534  0.00  0.00    +0.007 A 
BRANCH  11  17
ATOM     17  O   UNL     1       1.397  -4.027   2.380  0.00  0.00    -0.492 OA
BRANCH  17  18
ATOM     18  C   UNL     1       1.317  -2.602   2.320  0.00  0.00    +0.229 C 
BRANCH  18  19
ATOM     19  C   UNL     1       0.495  -2.189   1.097  0.00  0.00    +0.041 C 
BRANCH  19  20
ATOM     20  C   UNL     1       0.408  -0.662   1.033  0.00  0.00    +0.003 C 
BRANCH  20  22
ATOM     21  C   UNL     1      -0.500   1.277  -0.254  0.00  0.00    +0.004 C 
ATOM     22  C   UNL     1      -0.413  -0.249  -0.190  0.00  0.00    -0.003 C 
ENDBRANCH  20  22
ENDBRANCH  19  20
ENDBRANCH  18  19
ENDBRANCH  17  18
ENDBRANCH  11  17
ENDBRANCH   1  16
BRANCH   9  23
ATOM     23  N   UNL     1      -0.102  -9.798   4.096  0.00  0.00    -0.328 N 
ATOM     24  H   UNL     1       0.081 -10.731   4.291  0.00  0.00    +0.145 HD
ATOM     25  H   UNL     1      -0.954  -9.408   4.346  0.00  0.00    +0.145 HD
ENDBRANCH   9  23
BRANCH  10  26
ATOM     26  C   UNL     1      -0.697  -7.197   3.591  0.00  0.00    +0.101 C 
ATOM     27  N   UNL     1      -1.705  -6.771   3.898  0.00  0.00    -0.191 NA
ENDBRANCH  10  26
BRANCH   5  28
ATOM     28  O   UNL     1       5.546  -9.921  -0.031  0.00  0.00    -0.420 OA
BRANCH  28  29
ATOM     29  C   UNL     1       5.150 -10.895  -0.876  0.00  0.00    +0.380 C 
ATOM     30  O   UNL     1       3.971 -11.023  -1.146  0.00  0.00    -0.241 OA
BRANCH  29  31
ATOM     31  C   UNL     1       6.142 -11.800  -1.469  0.00  0.00    +0.216 A 
ATOM     32  C   UNL     1       5.861 -12.810  -2.334  0.00  0.00    +0.010 A 
ATOM     33  C   UNL     1       7.142 -13.435  -2.656  0.00  0.00    +0.024 A 
ATOM     34  C   UNL     1       7.527 -14.503  -3.471  0.00  0.00    +0.012 A 
ATOM     35  C   UNL     1       8.846 -14.848  -3.558  0.00  0.00    +0.001 A 
ATOM     36  C   UNL     1       9.806 -14.143  -2.843  0.00  0.00    +0.004 A 
ATOM     37  C   UNL     1       9.447 -13.087  -2.034  0.00  0.00    +0.047 A 
ATOM     38  C   UNL     1       8.111 -12.718  -1.929  0.00  0.00    +0.136 A 
ATOM     39  O   UNL     1       7.471 -11.752  -1.242  0.00  0.00    -0.448 OA
ATOM     40  C   UNL     1       4.503 -13.205  -2.855  0.00  0.00    +0.048 C 
ENDBRANCH  29  31
ENDBRANCH  28  29
ENDBRANCH   5  28
TORSDOF 11
