REMARK  Name = ZINC46643033
REMARK  9 active torsions:
REMARK  status: ('A' for Active; 'I' for Inactive)
REMARK    1  A    between atoms: C_1  and  C_2
REMARK    2  A    between atoms: C_2  and  C_4
REMARK    3  A    between atoms: C_2  and  N_14
REMARK    4  A    between atoms: C_7  and  S_10
REMARK    5  A    between atoms: S_10  and  N_13
REMARK    6  A    between atoms: C_15  and  C_17
REMARK    7  A    between atoms: C_24  and  C_26
REMARK    8  A    between atoms: C_31  and  O_32
REMARK    9  A    between atoms: O_32  and  C_33
REMARK                            x       y       z     vdW  Elec       q    Type
REMARK                         _______ _______ _______ _____ _____    ______ ____
ROOT
ATOM      1  N   UNL     1       0.667  -0.432  -1.222  0.00  0.00    -0.308 N 
ATOM      2  C   UNL     1      -0.009  -0.550  -2.382  0.00  0.00    +0.218 C 
ATOM      3  O   UNL     1      -1.185  -0.258  -2.430  0.00  0.00    -0.275 OA
ATOM      4  H   UNL     1       1.608  -0.666  -1.183  0.00  0.00    +0.149 HD
ENDROOT
BRANCH   2   5
ATOM      5  C   UNL     1       0.696  -1.046  -3.618  0.00  0.00    +0.092 C 
ATOM      6  C   UNL     1      -0.291  -1.085  -4.787  0.00  0.00    +0.016 C 
ATOM      7  C   UNL     1       0.416  -1.619  -6.035  0.00  0.00    +0.020 C 
ATOM      8  C   UNL     1       1.569  -0.681  -6.406  0.00  0.00    +0.108 C 
ATOM      9  N   UNL     1       2.445  -0.523  -5.237  0.00  0.00    -0.297 N 
ATOM     10  C   UNL     1       1.852  -0.101  -3.961  0.00  0.00    +0.120 C 
ATOM     11  C   UNL     1       3.768  -0.762  -5.334  0.00  0.00    +0.250 C 
ATOM     12  O   UNL     1       4.231  -1.212  -6.364  0.00  0.00    -0.270 OA
BRANCH  11  13
ATOM     13  C   UNL     1       4.654  -0.478  -4.189  0.00  0.00    +0.079 A 
ATOM     14  C   UNL     1       4.655   0.789  -3.599  0.00  0.00    +0.017 A 
ATOM     15  C   UNL     1       5.485   1.048  -2.530  0.00  0.00    +0.001 A 
ATOM     16  C   UNL     1       6.319   0.058  -2.037  0.00  0.00    +0.004 A 
ATOM     17  C   UNL     1       6.328  -1.198  -2.611  0.00  0.00    +0.046 A 
ATOM     18  C   UNL     1       5.496  -1.478  -3.684  0.00  0.00    +0.139 A 
BRANCH  18  19
ATOM     19  O   UNL     1       5.500  -2.713  -4.246  0.00  0.00    -0.433 OA
BRANCH  19  20
ATOM     20  C   UNL     1       6.384  -3.681  -3.677  0.00  0.00    +0.541 C 
ATOM     21  F   UNL     1       7.702  -3.221  -3.771  0.00  0.00    -0.166 F 
ATOM     22  F   UNL     1       6.054  -3.881  -2.332  0.00  0.00    -0.166 F 
ENDBRANCH  19  20
ENDBRANCH  18  19
ENDBRANCH  11  13
ENDBRANCH   2   5
BRANCH   1  24
ATOM     23  C   UNL     1      -0.013   1.580  -0.009  0.00  0.00    +0.033 C 
ATOM     24  C   UNL     1      -0.018   0.050  -0.020  0.00  0.00    +0.100 C 
BRANCH  24  25
ATOM     25  C   UNL     1       0.695  -0.463   1.204  0.00  0.00    -0.027 A 
ATOM     26  C   UNL     1       2.076  -0.497   1.237  0.00  0.00    +0.007 A 
ATOM     27  C   UNL     1       2.730  -0.967   2.360  0.00  0.00    +0.029 A 
ATOM     28  C   UNL     1       2.002  -1.404   3.451  0.00  0.00    +0.105 A 
ATOM     29  C   UNL     1       0.621  -1.370   3.419  0.00  0.00    +0.029 A 
ATOM     30  C   UNL     1      -0.033  -0.895   2.297  0.00  0.00    +0.007 A 
BRANCH  28  31
ATOM     31  S   UNL     1       2.836  -2.005   4.882  0.00  0.00    +0.056 S 
ATOM     32  O   UNL     1       1.923  -2.862   5.554  0.00  0.00    -0.153 OA
ATOM     33  O   UNL     1       4.117  -2.444   4.452  0.00  0.00    -0.153 OA
BRANCH  31  34
ATOM     34  N   UNL     1       3.091  -0.709   5.881  0.00  0.00    -0.204 NA
ATOM     35  H   UNL     1       3.121  -0.836   6.842  0.00  0.00    +0.144 HD
ATOM     36  H   UNL     1       3.209   0.177   5.505  0.00  0.00    +0.144 HD
ENDBRANCH  31  34
ENDBRANCH  28  31
ENDBRANCH  24  25
ENDBRANCH   1  24
TORSDOF 8
