REMARK  Name = ZINC20590227
REMARK  4 active torsions:
REMARK  status: ('A' for Active; 'I' for Inactive)
REMARK    1  A    between atoms: C_5  and  C_6
REMARK    2  A    between atoms: N_8  and  C_9
REMARK    3  A    between atoms: C_9  and  C_10
REMARK    4  A    between atoms: C_10  and  C_11
REMARK                            x       y       z     vdW  Elec       q    Type
REMARK                         _______ _______ _______ _____ _____    ______ ____
ROOT
ATOM      1  C   UNL     1      -2.940  -5.459   0.002  0.00  0.00    +0.217 C 
ATOM      2  O   UNL     1      -4.054  -4.980   0.015  0.00  0.00    -0.276 OA
ATOM      3  N   UNL     1      -2.781  -6.797  -0.007  0.00  0.00    -0.301 N 
ATOM      4  C   UNL     1      -1.438  -7.392  -0.017  0.00  0.00    +0.110 C 
ATOM      5  C   UNL     1      -1.341  -8.370  -1.193  0.00  0.00    +0.047 C 
ATOM      6  C   UNL     1      -2.479  -9.386  -1.101  0.00  0.00    +0.064 C 
ATOM      7  C   UNL     1      -3.825  -8.665  -1.181  0.00  0.00    +0.047 C 
ATOM      8  C   UNL     1      -3.949  -7.689  -0.000  0.00  0.00    +0.110 C 
ATOM      9  C   UNL     1      -2.366 -10.379  -2.226  0.00  0.00    +0.057 A 
ATOM     10  C   UNL     1      -1.897 -11.639  -2.071  0.00  0.00    +0.039 A 
ATOM     11  N   UNL     1      -1.933 -12.243  -3.258  0.00  0.00    -0.349 N 
ATOM     12  C   UNL     1      -2.405 -11.408  -4.149  0.00  0.00    +0.171 A 
ATOM     13  N   UNL     1      -2.686 -10.232  -3.539  0.00  0.00    -0.348 N 
ATOM     14  H   UNL     1      -3.047  -9.436  -3.959  0.00  0.00    +0.166 HD
ATOM     15  C   UNL     1      -1.431 -12.184  -0.743  0.00  0.00    +0.070 C 
ATOM     16  C   UNL     1      -1.212 -10.997   0.204  0.00  0.00    +0.088 C 
ATOM     17  N   UNL     1      -2.386 -10.115   0.175  0.00  0.00    -0.305 NA
ATOM     18  H   UNL     1      -2.379  -9.476   0.956  0.00  0.00    +0.123 HD
ATOM     19  H   UNL     1      -1.655 -13.155  -3.434  0.00  0.00    +0.166 HD
ENDROOT
BRANCH   1  20
ATOM     20  C   UNL     1      -1.733  -4.557  -0.005  0.00  0.00    +0.114 C 
BRANCH  20  21
ATOM     21  C   UNL     1      -2.187  -3.096   0.007  0.00  0.00    +0.114 C 
BRANCH  21  24
ATOM     22  C   UNL     1      -1.172  -0.881   0.009  0.00  0.00    +0.279 C 
ATOM     23  O   UNL     1      -2.290  -0.401   0.023  0.00  0.00    -0.267 OA
ATOM     24  N   UNL     1      -1.014  -2.220   0.000  0.00  0.00    -0.308 N 
ATOM     25  H   UNL     1      -0.122  -2.602  -0.011  0.00  0.00    +0.149 HD
BRANCH  22  30
ATOM     26  C   UNL     1      -0.016   1.362   0.009  0.00  0.00    +0.056 A 
ATOM     27  C   UNL     1       1.321   1.784  -0.001  0.00  0.00    +0.058 A 
ATOM     28  C   UNL     1       2.090   0.670  -0.014  0.00  0.00    +0.171 A 
ATOM     29  O   UNL     1       1.291  -0.405  -0.012  0.00  0.00    -0.444 OA
ATOM     30  C   UNL     1       0.002  -0.004   0.002  0.00  0.00    +0.191 A 
ATOM     31 BR   UNL     1       3.981   0.637  -0.033  0.00  0.00    -0.008 Br
ENDBRANCH  22  30
ENDBRANCH  21  24
ENDBRANCH  20  21
ENDBRANCH   1  20
TORSDOF 4
