REMARK  Name = ZINC39685066
REMARK  8 active torsions:
REMARK  status: ('A' for Active; 'I' for Inactive)
REMARK    1  A    between atoms: C_5  and  O_7
REMARK    2  A    between atoms: O_7  and  C_8
REMARK    3  A    between atoms: C_8  and  C_9
REMARK    4  A    between atoms: C_9  and  N_10
REMARK    5  A    between atoms: C_11  and  C_13
REMARK    6  A    between atoms: C_24  and  C_26
REMARK    7  A    between atoms: C_29  and  O_32
REMARK    8  A    between atoms: O_32  and  C_33
REMARK                            x       y       z     vdW  Elec       q    Type
REMARK                         _______ _______ _______ _____ _____    ______ ____
ROOT
ATOM      1  C   UNL     1       2.138  -6.268   3.320  0.00  0.00    +0.100 C 
ATOM      2  C   UNL     1       1.025  -5.834   4.301  0.00  0.00    +0.121 C 
ATOM      3  N   UNL     1       0.235  -7.065   4.538  0.00  0.00    -0.296 N 
ATOM      4  C   UNL     1       1.248  -8.145   4.617  0.00  0.00    +0.115 C 
ATOM      5  C   UNL     1       2.284  -7.784   3.534  0.00  0.00    -0.004 C 
ATOM      6  C   UNL     1       1.974  -8.531   2.240  0.00  0.00    -0.010 C 
ATOM      7  C   UNL     1       2.181 -10.032   2.462  0.00  0.00    -0.082 C 
ATOM      8  N   UNL     1       3.568 -10.281   2.874  0.00  0.00    +0.379 N 
ATOM      9  C   UNL     1       3.830  -9.634   4.166  0.00  0.00    -0.082 C 
ATOM     10  C   UNL     1       3.692  -8.117   4.016  0.00  0.00    -0.010 C 
ATOM     11  C   UNL     1      -1.103  -7.179   4.656  0.00  0.00    +0.247 C 
ATOM     12  O   UNL     1      -1.816  -6.217   4.442  0.00  0.00    -0.270 OA
ATOM     13  H   UNL     1       3.718 -11.275   2.961  0.00  0.00    -0.086 HD
ATOM     14  H   UNL     1       4.196  -9.907   2.179  0.00  0.00    -0.086 HD
ENDROOT
BRANCH  11  15
ATOM     15  C   UNL     1      -1.703  -8.470   5.045  0.00  0.00    +0.037 A 
ATOM     16  C   UNL     1      -0.932  -9.430   5.706  0.00  0.00    +0.016 A 
ATOM     17  C   UNL     1      -1.496 -10.633   6.067  0.00  0.00    +0.047 A 
ATOM     18  C   UNL     1      -2.829 -10.893   5.776  0.00  0.00    +0.130 A 
ATOM     19  C   UNL     1      -3.600  -9.941   5.119  0.00  0.00    +0.047 A 
ATOM     20  C   UNL     1      -3.045  -8.733   4.759  0.00  0.00    +0.016 A 
BRANCH  18  21
ATOM     21  O   UNL     1      -3.381 -12.081   6.133  0.00  0.00    -0.406 OA
BRANCH  21  22
ATOM     22  C   UNL     1      -4.757 -12.283   5.803  0.00  0.00    +0.575 C 
ATOM     23  F   UNL     1      -4.921 -12.194   4.417  0.00  0.00    -0.133 F 
ATOM     24  F   UNL     1      -5.160 -13.549   6.240  0.00  0.00    -0.133 F 
ATOM     25  F   UNL     1      -5.535 -11.303   6.429  0.00  0.00    -0.133 F 
ENDBRANCH  21  22
ENDBRANCH  18  21
ENDBRANCH  11  15
BRANCH   1  27
ATOM     26  N   UNL     1       2.668  -5.814   0.947  0.00  0.00    -0.312 N 
ATOM     27  C   UNL     1       1.728  -5.974   1.900  0.00  0.00    +0.218 C 
ATOM     28  O   UNL     1       0.553  -5.883   1.614  0.00  0.00    -0.275 OA
ATOM     29  H   UNL     1       3.608  -5.887   1.176  0.00  0.00    +0.149 HD
BRANCH  26  30
ATOM     30  C   UNL     1       2.270  -5.529  -0.433  0.00  0.00    +0.145 C 
BRANCH  30  31
ATOM     31  C   UNL     1       3.519  -5.393  -1.306  0.00  0.00    +0.248 C 
BRANCH  31  32
ATOM     32  O   UNL     1       4.201  -6.648  -1.361  0.00  0.00    -0.488 OA
BRANCH  32  37
ATOM     33  C   UNL     1       6.950  -5.623  -3.514  0.00  0.00    +0.004 A 
ATOM     34  C   UNL     1       7.659  -6.806  -3.609  0.00  0.00    +0.003 A 
ATOM     35  C   UNL     1       7.212  -7.938  -2.952  0.00  0.00    +0.042 A 
ATOM     36  C   UNL     1       6.054  -7.888  -2.198  0.00  0.00    +0.165 A 
ATOM     37  C   UNL     1       5.340  -6.700  -2.101  0.00  0.00    +0.156 A 
ATOM     38  C   UNL     1       5.792  -5.568  -2.761  0.00  0.00    +0.048 A 
ATOM     39  F   UNL     1       5.616  -8.994  -1.556  0.00  0.00    -0.202 F 
ENDBRANCH  32  37
ENDBRANCH  31  32
ENDBRANCH  30  31
ENDBRANCH  26  30
ENDBRANCH   1  27
TORSDOF 8
