REMARK  Name = ZINC52001347
REMARK  7 active torsions:
REMARK  status: ('A' for Active; 'I' for Inactive)
REMARK    1  A    between atoms: C_1  and  C_2
REMARK    2  A    between atoms: C_3  and  C_11
REMARK    3  A    between atoms: C_8  and  C_10
REMARK    4  A    between atoms: C_11  and  C_13
REMARK    5  A    between atoms: C_11  and  N_14
REMARK    6  A    between atoms: N_14  and  C_15
REMARK    7  A    between atoms: C_21  and  O_23
REMARK                            x       y       z     vdW  Elec       q    Type
REMARK                         _______ _______ _______ _____ _____    ______ ____
ROOT
ATOM      1  C   UNL     1      -2.441   0.070  -0.044  0.00  0.00    -0.036 C 
ATOM      2  C   UNL     1      -3.177  -0.078   1.289  0.00  0.00    -0.009 C 
ENDROOT
BRANCH   1   5
ATOM      3  C   UNL     1       0.079   1.467  -0.196  0.00  0.00    +0.066 C 
ATOM      4  C   UNL     1       0.051  -0.033  -0.058  0.00  0.00    +0.047 A 
ATOM      5  C   UNL     1      -1.141  -0.689   0.013  0.00  0.00    +0.024 A 
ATOM      6  C   UNL     1      -1.131  -2.093   0.142  0.00  0.00    +0.253 A 
ATOM      7  O   UNL     1      -2.176  -2.720   0.208  0.00  0.00    -0.268 OA
ATOM      8  N   UNL     1       0.059  -2.730   0.189  0.00  0.00    -0.311 N 
ATOM      9  H   UNL     1       0.089  -3.695   0.277  0.00  0.00    +0.170 HD
ATOM     10  C   UNL     1       1.203  -2.022   0.114  0.00  0.00    +0.107 A 
ATOM     11  N   UNL     1       1.194  -0.722  -0.010  0.00  0.00    -0.239 NA
ATOM     12  C   UNL     1       2.522  -2.748   0.169  0.00  0.00    +0.086 C 
ENDBRANCH   1   5
BRANCH   1  13
ATOM     13  N   UNL     1      -3.275  -0.469  -1.127  0.00  0.00    +0.387 N 
ATOM     14  H   UNL     1      -2.753  -0.461  -1.990  0.00  0.00    -0.085 HD
ATOM     15  H   UNL     1      -3.543  -1.416  -0.905  0.00  0.00    -0.085 HD
BRANCH  13  16
ATOM     16  C   UNL     1      -4.480   0.358  -1.275  0.00  0.00    -0.042 C 
ATOM     17  C   UNL     1      -5.419  -0.286  -2.297  0.00  0.00    -0.013 C 
ATOM     18  C   UNL     1      -6.674   0.576  -2.451  0.00  0.00    -0.001 C 
ATOM     19  C   UNL     1      -6.277   1.972  -2.934  0.00  0.00    +0.002 C 
ATOM     20  C   UNL     1      -5.338   2.617  -1.913  0.00  0.00    +0.030 C 
ATOM     21  C   UNL     1      -4.083   1.755  -1.758  0.00  0.00    +0.101 C 
BRANCH  21  22
ATOM     22  O   UNL     1      -3.417   1.652  -3.019  0.00  0.00    -0.393 OA
ATOM     23  H   UNL     1      -3.137   2.501  -3.386  0.00  0.00    +0.210 HD
ENDBRANCH  21  22
ENDBRANCH  13  16
ENDBRANCH   1  13
TORSDOF 4
