REMARK  Name = ZINC36540919
REMARK  9 active torsions:
REMARK  status: ('A' for Active; 'I' for Inactive)
REMARK    1  A    between atoms: C_1  and  C_2
REMARK    2  A    between atoms: C_5  and  S_8
REMARK    3  A    between atoms: S_8  and  C_11
REMARK    4  A    between atoms: C_11  and  N_12
REMARK    5  A    between atoms: C_13  and  C_15
REMARK    6  A    between atoms: C_15  and  C_17
REMARK    7  A    between atoms: C_15  and  N_22
REMARK    8  A    between atoms: N_22  and  C_23
REMARK    9  A    between atoms: C_30  and  C_32
REMARK                            x       y       z     vdW  Elec       q    Type
REMARK                         _______ _______ _______ _____ _____    ______ ____
ROOT
ATOM      1  C   UNL     1       3.184  -4.474   4.021  0.00  0.00    +0.233 C 
ENDROOT
BRANCH   1   2
ATOM      2  C   UNL     1       2.514  -3.403   4.842  0.00  0.00    +0.135 A 
ATOM      3  C   UNL     1       2.926  -2.128   4.959  0.00  0.00    +0.047 A 
ATOM      4  C   UNL     1       2.010  -1.479   5.819  0.00  0.00    +0.041 A 
ATOM      5  C   UNL     1       1.094  -2.396   6.176  0.00  0.00    +0.195 A 
ATOM      6  O   UNL     1       1.401  -3.558   5.577  0.00  0.00    -0.465 OA
ENDBRANCH   1   2
BRANCH   1   8
ATOM      7  N   UNL     1       2.353  -3.590   1.865  0.00  0.00    -0.294 N 
ATOM      8  C   UNL     1       2.455  -4.633   2.712  0.00  0.00    +0.243 C 
ATOM      9  O   UNL     1       1.959  -5.701   2.420  0.00  0.00    -0.273 OA
ATOM     10  H   UNL     1       2.750  -2.736   2.099  0.00  0.00    +0.150 HD
BRANCH   7  11
ATOM     11  C   UNL     1       1.644  -3.745   0.593  0.00  0.00    +0.278 C 
BRANCH  11  12
ATOM     12  S   UNL     1      -0.074  -3.197   0.787  0.00  0.00    +0.013 S 
ATOM     13  O   UNL     1      -0.637  -3.760   1.965  0.00  0.00    -0.168 OA
ATOM     14  O   UNL     1      -0.758  -3.282  -0.455  0.00  0.00    -0.168 OA
BRANCH  12  19
ATOM     15  C   UNL     1       0.300   2.714   1.936  0.00  0.00    +0.044 C 
ATOM     16  C   UNL     1       0.207   1.238   1.649  0.00  0.00    -0.050 A 
ATOM     17  C   UNL     1       0.106   0.792   0.344  0.00  0.00    +0.005 A 
ATOM     18  C   UNL     1       0.021  -0.562   0.081  0.00  0.00    +0.027 A 
ATOM     19  C   UNL     1       0.036  -1.471   1.123  0.00  0.00    +0.090 A 
ATOM     20  C   UNL     1       0.138  -1.025   2.427  0.00  0.00    +0.027 A 
ATOM     21  C   UNL     1       0.228   0.329   2.690  0.00  0.00    +0.005 A 
ENDBRANCH  12  19
ENDBRANCH  11  12
ENDBRANCH   7  11
ENDBRANCH   1   8
BRANCH   1  22
ATOM     22  N   UNL     1       3.155  -5.742   4.754  0.00  0.00    -0.251 N 
ATOM     23  C   UNL     1       4.297  -6.426   4.963  0.00  0.00    +0.224 C 
ATOM     24  O   UNL     1       4.262  -7.520   5.486  0.00  0.00    -0.275 OA
BRANCH  22  25
ATOM     25  C   UNL     1       1.940  -6.243   5.238  0.00  0.00    +0.056 A 
ATOM     26  C   UNL     1       1.145  -7.041   4.427  0.00  0.00    +0.025 A 
ATOM     27  C   UNL     1      -0.053  -7.534   4.907  0.00  0.00    +0.002 A 
ATOM     28  C   UNL     1      -0.461  -7.233   6.193  0.00  0.00    +0.002 A 
ATOM     29  C   UNL     1       0.328  -6.438   7.004  0.00  0.00    +0.022 A 
ATOM     30  C   UNL     1       1.531  -5.946   6.532  0.00  0.00    +0.062 A 
ATOM     31 CL   UNL     1       2.525  -4.954   7.553  0.00  0.00    -0.082 Cl
ENDBRANCH  22  25
BRANCH  23  32
ATOM     32  C   UNL     1       5.618  -5.832   4.549  0.00  0.00    +0.076 C 
ATOM     33  C   UNL     1       5.883  -6.153   3.076  0.00  0.00    +0.013 C 
ATOM     34  C   UNL     1       7.224  -5.550   2.655  0.00  0.00    +0.001 C 
ATOM     35  C   UNL     1       8.342  -6.142   3.516  0.00  0.00    +0.000 C 
ATOM     36  C   UNL     1       8.078  -5.820   4.988  0.00  0.00    +0.001 C 
ATOM     37  C   UNL     1       6.737  -6.424   5.409  0.00  0.00    +0.013 C 
ENDBRANCH  23  32
ENDBRANCH   1  22
TORSDOF 8
