REMARK  Name = ZINC21145464
REMARK  3 active torsions:
REMARK  status: ('A' for Active; 'I' for Inactive)
REMARK    1  A    between atoms: C_1  and  S_2
REMARK    2  A    between atoms: S_2  and  C_3
REMARK    3  A    between atoms: C_6  and  C_9
REMARK                            x       y       z     vdW  Elec       q    Type
REMARK                         _______ _______ _______ _____ _____    ______ ____
ROOT
ATOM      1  C   UNL     1       2.901  -1.397  -5.106  0.00  0.00    +0.241 C 
ATOM      2  N   UNL     1       3.874  -0.343  -5.421  0.00  0.00    -0.226 NA
ATOM      3  C   UNL     1       5.052  -0.363  -4.851  0.00  0.00    +0.182 C 
ATOM      4  N   UNL     1       5.342  -1.413  -3.986  0.00  0.00    -0.258 N 
ATOM      5  C   UNL     1       4.843  -2.653  -4.344  0.00  0.00    +0.208 A 
ATOM      6  N   UNL     1       3.611  -2.671  -4.936  0.00  0.00    -0.286 N 
ATOM      7  C   UNL     1       3.051  -3.858  -5.358  0.00  0.00    +0.059 A 
ATOM      8  C   UNL     1       1.813  -3.908  -5.983  0.00  0.00    +0.027 A 
ATOM      9  C   UNL     1       1.297  -5.122  -6.385  0.00  0.00    +0.002 A 
ATOM     10  C   UNL     1       2.004  -6.296  -6.171  0.00  0.00    +0.001 A 
ATOM     11  C   UNL     1       3.235  -6.268  -5.552  0.00  0.00    +0.015 A 
ATOM     12  C   UNL     1       3.768  -5.049  -5.140  0.00  0.00    +0.065 A 
ATOM     13  C   UNL     1       5.080  -4.958  -4.473  0.00  0.00    +0.282 A 
ATOM     14  O   UNL     1       5.736  -5.961  -4.248  0.00  0.00    -0.265 OA
ATOM     15  N   UNL     1       5.538  -3.742  -4.118  0.00  0.00    -0.176 NA
ATOM     16  N   UNL     1       5.975   0.624  -5.099  0.00  0.00    -0.331 N 
ATOM     17  H   UNL     1       5.863  -1.283  -3.179  0.00  0.00    +0.158 HD
ATOM     18  H   UNL     1       5.758   1.350  -5.706  0.00  0.00    +0.145 HD
ATOM     19  H   UNL     1       6.844   0.596  -4.669  0.00  0.00    +0.145 HD
ENDROOT
BRANCH   1  23
ATOM     20  C   UNL     1       0.848  -0.411  -1.489  0.00  0.00    +0.008 A 
ATOM     21  C   UNL     1       1.315   0.599  -2.322  0.00  0.00    +0.015 A 
ATOM     22  C   UNL     1       1.978   0.276  -3.490  0.00  0.00    +0.008 A 
ATOM     23  C   UNL     1       2.178  -1.049  -3.830  0.00  0.00    -0.003 A 
ATOM     24  C   UNL     1       1.714  -2.056  -3.004  0.00  0.00    +0.008 A 
ATOM     25  C   UNL     1       1.056  -1.742  -1.831  0.00  0.00    +0.015 A 
BRANCH  20  27
ATOM     26  C   UNL     1      -0.022   1.810   0.012  0.00  0.00    +0.090 C 
ATOM     27  S   UNL     1       0.002  -0.004   0.002  0.00  0.00    -0.129 S 
ENDBRANCH  20  27
ENDBRANCH   1  23
TORSDOF 2
