REMARK  Name = ZINC39659027
REMARK  12 active torsions:
REMARK  status: ('A' for Active; 'I' for Inactive)
REMARK    1  A    between atoms: C_1  and  C_2
REMARK    2  A    between atoms: C_6  and  C_8
REMARK    3  A    between atoms: N_10  and  C_11
REMARK    4  A    between atoms: C_11  and  C_13
REMARK    5  A    between atoms: C_11  and  C_16
REMARK    6  A    between atoms: C_13  and  C_14
REMARK    7  A    between atoms: C_13  and  C_15
REMARK    8  A    between atoms: C_16  and  O_18
REMARK    9  A    between atoms: O_18  and  C_19
REMARK   10  A    between atoms: C_19  and  C_20
REMARK   11  A    between atoms: C_22  and  O_23
REMARK   12  A    between atoms: C_32  and  C_34
REMARK                            x       y       z     vdW  Elec       q    Type
REMARK                         _______ _______ _______ _____ _____    ______ ____
ROOT
ATOM      1  O   UNL     1       0.675  -6.950   5.189  0.00  0.00    -0.459 OA
ENDROOT
BRANCH   1   2
ATOM      2  C   UNL     1       0.556  -5.843   4.439  0.00  0.00    +0.328 C 
ATOM      3  O   UNL     1       1.072  -5.795   3.348  0.00  0.00    -0.249 OA
BRANCH   2   4
ATOM      4  C   UNL     1      -0.221  -4.661   4.958  0.00  0.00    +0.185 C 
BRANCH   4   7
ATOM      5  C   UNL     1      -0.366  -2.307   4.345  0.00  0.00    +0.245 C 
ATOM      6  O   UNL     1      -0.528  -2.041   5.520  0.00  0.00    -0.270 OA
ATOM      7  N   UNL     1      -0.203  -3.588   3.961  0.00  0.00    -0.298 N 
ATOM      8  H   UNL     1      -0.073  -3.801   3.023  0.00  0.00    +0.150 HD
BRANCH   5  14
ATOM      9  C   UNL     1      -0.682   2.542   3.213  0.00  0.00    +0.044 C 
ATOM     10  C   UNL     1      -0.499   1.108   2.789  0.00  0.00    -0.050 A 
ATOM     11  C   UNL     1      -0.315   0.802   1.452  0.00  0.00    +0.003 A 
ATOM     12  C   UNL     1      -0.146  -0.512   1.054  0.00  0.00    +0.001 A 
ATOM     13  C   UNL     1      -0.162  -1.527   1.988  0.00  0.00    +0.013 A 
ATOM     14  C   UNL     1      -0.348  -1.225   3.338  0.00  0.00    +0.037 A 
ATOM     15  C   UNL     1      -0.511   0.104   3.734  0.00  0.00    +0.016 A 
ENDBRANCH   5  14
ENDBRANCH   4   7
BRANCH   4  16
ATOM     16  C   UNL     1      -1.667  -5.080   5.230  0.00  0.00    +0.014 C 
ATOM     17  C   UNL     1      -2.456  -3.880   5.757  0.00  0.00    +0.009 C 
ATOM     18  C   UNL     1      -2.306  -5.580   3.933  0.00  0.00    +0.009 C 
ENDBRANCH   4  16
ENDBRANCH   2   4
ENDBRANCH   1   2
BRANCH   1  19
ATOM     19  C   UNL     1       1.425  -8.032   4.635  0.00  0.00    +0.268 C 
BRANCH  19  20
ATOM     20  C   UNL     1       1.450  -9.179   5.612  0.00  0.00    +0.007 A 
ATOM     21  C   UNL     1       0.275  -9.713   6.104  0.00  0.00    +0.095 A 
ATOM     22  C   UNL     1       0.318 -10.769   7.003  0.00  0.00    +0.285 A 
ATOM     23  O   UNL     1       1.480 -11.290   7.410  0.00  0.00    -0.425 OA
ATOM     24  C   UNL     1       2.657 -10.806   6.962  0.00  0.00    +0.141 A 
ATOM     25  C   UNL     1       2.674  -9.735   6.040  0.00  0.00    +0.024 A 
ATOM     26  C   UNL     1       3.898  -9.232   5.566  0.00  0.00    +0.014 A 
ATOM     27  C   UNL     1       5.067  -9.781   5.991  0.00  0.00    +0.024 A 
ATOM     28  C   UNL     1       5.060 -10.851   6.903  0.00  0.00    +0.037 A 
ATOM     29  C   UNL     1       3.853 -11.354   7.392  0.00  0.00    +0.070 A 
ATOM     30  N   UNL     1       6.237 -11.392   7.321  0.00  0.00    -0.286 N 
ATOM     31  C   UNL     1       6.248 -12.569   7.914  0.00  0.00    +0.214 C 
ATOM     32  O   UNL     1       5.225 -13.228   7.979  0.00  0.00    -0.276 OA
ATOM     33  C   UNL     1       7.526 -13.101   8.511  0.00  0.00    +0.109 C 
ATOM     34  H   UNL     1       7.068 -10.911   7.182  0.00  0.00    +0.155 HD
BRANCH  22  35
ATOM     35  O   UNL     1      -0.835 -11.280   7.475  0.00  0.00    -0.480 OA
ATOM     36  H   UNL     1      -0.716 -12.012   8.095  0.00  0.00    +0.295 HD
ENDBRANCH  22  35
ENDBRANCH  19  20
ENDBRANCH   1  19
TORSDOF 8
