REMARK  Name = ZINC61887840
REMARK  4 active torsions:
REMARK  status: ('A' for Active; 'I' for Inactive)
REMARK    1  A    between atoms: C_4  and  N_7
REMARK    2  A    between atoms: N_10  and  C_11
REMARK    3  A    between atoms: C_16  and  C_18
REMARK    4  A    between atoms: N_19  and  O_20
REMARK                            x       y       z     vdW  Elec       q    Type
REMARK                         _______ _______ _______ _____ _____    ______ ____
ROOT
ATOM      1  N   UNL     1       3.029  -0.119  -2.709  0.00  0.00    -0.297 N 
ATOM      2  C   UNL     1       3.560  -1.354  -2.616  0.00  0.00    +0.300 C 
ATOM      3  O   UNL     1       3.512  -1.958  -1.562  0.00  0.00    -0.253 OA
ATOM      4  N   UNL     1       4.143  -1.919  -3.692  0.00  0.00    -0.296 N 
ATOM      5  H   UNL     1       3.067   0.364  -3.549  0.00  0.00    +0.151 HD
ATOM      6  H   UNL     1       4.181  -1.437  -4.532  0.00  0.00    +0.151 HD
ENDROOT
BRANCH   1  10
ATOM      7  C   UNL     1       0.322   2.200  -0.364  0.00  0.00    +0.000 C 
ATOM      8  C   UNL     1       1.778   2.660  -0.455  0.00  0.00    +0.002 C 
ATOM      9  C   UNL     1       2.441   2.019  -1.676  0.00  0.00    +0.022 C 
ATOM     10  C   UNL     1       2.394   0.496  -1.540  0.00  0.00    +0.074 C 
ATOM     11  C   UNL     1       0.938   0.036  -1.449  0.00  0.00    +0.022 C 
ATOM     12  C   UNL     1       0.275   0.677  -0.228  0.00  0.00    +0.002 C 
ENDBRANCH   1  10
BRANCH   4  13
ATOM     13  C   UNL     1       4.721  -3.262  -3.591  0.00  0.00    +0.085 C 
ATOM     14  C   UNL     1       3.638  -4.324  -3.871  0.00  0.00    +0.023 C 
ATOM     15  C   UNL     1       3.812  -4.657  -5.374  0.00  0.00    +0.003 C 
ATOM     16  C   UNL     1       5.350  -4.620  -5.556  0.00  0.00    +0.013 C 
ATOM     17  C   UNL     1       5.810  -3.449  -4.662  0.00  0.00    +0.076 C 
BRANCH  17  18
ATOM     18  C   UNL     1       7.125  -3.784  -4.007  0.00  0.00    +0.136 C 
ATOM     19  N   UNL     1       8.228  -3.330  -4.504  0.00  0.00    -0.076 NA
ATOM     20  N   UNL     1       7.151  -4.574  -2.879  0.00  0.00    -0.344 N 
ATOM     21  H   UNL     1       6.323  -4.915  -2.506  0.00  0.00    +0.144 HD
ATOM     22  H   UNL     1       7.998  -4.790  -2.458  0.00  0.00    +0.144 HD
BRANCH  19  23
ATOM     23  O   UNL     1       8.195  -2.431  -5.597  0.00  0.00    -0.408 OA
ATOM     24  H   UNL     1       9.069  -2.147  -5.899  0.00  0.00    +0.328 HD
ENDBRANCH  19  23
ENDBRANCH  17  18
ENDBRANCH   4  13
TORSDOF 4
