REMARK  Name = ZINC58505882
REMARK  15 active torsions:
REMARK  status: ('A' for Active; 'I' for Inactive)
REMARK    1  A    between atoms: C_1  and  C_2
REMARK    2  A    between atoms: C_2  and  C_4
REMARK    3  A    between atoms: C_2  and  S_18
REMARK    4  A    between atoms: N_6  and  C_7
REMARK    5  A    between atoms: C_7  and  C_8
REMARK    6  A    between atoms: C_11  and  C_14
REMARK    7  A    between atoms: C_14  and  O_16
REMARK    8  A    between atoms: O_16  and  C_17
REMARK    9  A    between atoms: S_18  and  C_19
REMARK   10  A    between atoms: C_22  and  C_25
REMARK   11  A    between atoms: N_23  and  N_24
REMARK   12  A    between atoms: C_28  and  C_31
REMARK   13  A    between atoms: C_31  and  C_32
REMARK   14  A    between atoms: C_31  and  C_33
REMARK   15  A    between atoms: C_31  and  C_34
REMARK                            x       y       z     vdW  Elec       q    Type
REMARK                         _______ _______ _______ _____ _____    ______ ____
ROOT
ATOM      1  S   UNL     1       0.879  -0.605   1.472  0.00  0.00    -0.072 S 
ENDROOT
BRANCH   1   2
ATOM      2  C   UNL     1      -0.136  -0.087   2.816  0.00  0.00    +0.209 A 
ATOM      3  N   UNL     1      -1.267   0.576   2.728  0.00  0.00    -0.121 NA
ATOM      4  N   UNL     1      -1.745   0.791   3.901  0.00  0.00    -0.127 NA
ATOM      5  C   UNL     1      -0.949   0.278   4.810  0.00  0.00    +0.182 A 
ATOM      6  N   UNL     1       0.104  -0.305   4.142  0.00  0.00    -0.224 N 
BRANCH   5   7
ATOM      7  C   UNL     1      -1.148   0.315   6.274  0.00  0.00    +0.021 A 
ATOM      8  C   UNL     1      -0.088   0.021   7.134  0.00  0.00    +0.012 A 
ATOM      9  C   UNL     1      -0.280   0.058   8.499  0.00  0.00    +0.005 A 
ATOM     10  C   UNL     1      -1.521   0.385   9.018  0.00  0.00    -0.042 A 
ATOM     11  C   UNL     1      -2.576   0.677   8.171  0.00  0.00    +0.005 A 
ATOM     12  C   UNL     1      -2.395   0.650   6.804  0.00  0.00    +0.012 A 
BRANCH  10  13
ATOM     13  C   UNL     1      -1.724   0.423  10.510  0.00  0.00    -0.013 C 
ATOM     14  C   UNL     1      -0.779   1.456  11.127  0.00  0.00    +0.015 C 
ATOM     15  C   UNL     1      -3.172   0.809  10.818  0.00  0.00    +0.015 C 
ATOM     16  C   UNL     1      -1.427  -0.957  11.101  0.00  0.00    +0.015 C 
ENDBRANCH  10  13
ENDBRANCH   5   7
BRANCH   6  17
ATOM     17  N   UNL     1       1.167  -0.962   4.692  0.00  0.00    -0.295 N 
ATOM     18  H   UNL     1       1.926  -0.325   4.885  0.00  0.00    +0.163 HD
ATOM     19  H   UNL     1       0.893  -1.461   5.525  0.00  0.00    +0.163 HD
ENDBRANCH   6  17
ENDBRANCH   1   2
BRANCH   1  21
ATOM     20  C   UNL     1      -0.019   1.526   0.010  0.00  0.00    +0.029 C 
ATOM     21  C   UNL     1       0.002  -0.004   0.002  0.00  0.00    +0.137 C 
BRANCH  21  22
ATOM     22  C   UNL     1       0.707  -0.490  -1.238  0.00  0.00    +0.226 C 
ATOM     23  O   UNL     1       1.864  -0.849  -1.176  0.00  0.00    -0.275 OA
ATOM     24  N   UNL     1       0.053  -0.526  -2.415  0.00  0.00    -0.310 N 
ATOM     25  H   UNL     1      -0.873  -0.239  -2.465  0.00  0.00    +0.149 HD
BRANCH  24  26
ATOM     26  C   UNL     1       0.738  -0.999  -3.621  0.00  0.00    +0.139 C 
BRANCH  26  27
ATOM     27  C   UNL     1      -0.207  -0.940  -4.792  0.00  0.00    -0.030 A 
ATOM     28  C   UNL     1      -1.004  -2.031  -5.090  0.00  0.00    +0.006 A 
ATOM     29  C   UNL     1      -1.872  -1.984  -6.161  0.00  0.00    +0.015 A 
ATOM     30  C   UNL     1      -1.946  -0.832  -6.946  0.00  0.00    +0.059 A 
ATOM     31  C   UNL     1      -1.139   0.266  -6.640  0.00  0.00    +0.015 A 
ATOM     32  C   UNL     1      -0.280   0.208  -5.562  0.00  0.00    +0.006 A 
BRANCH  30  33
ATOM     33  C   UNL     1      -2.873  -0.774  -8.095  0.00  0.00    +0.339 C 
ATOM     34  O   UNL     1      -3.573  -1.731  -8.358  0.00  0.00    -0.245 OA
BRANCH  33  35
ATOM     35  O   UNL     1      -2.941   0.339  -8.849  0.00  0.00    -0.464 OA
ATOM     36  C   UNL     1      -3.859   0.325  -9.944  0.00  0.00    +0.280 C 
ENDBRANCH  33  35
ENDBRANCH  30  33
ENDBRANCH  26  27
ENDBRANCH  24  26
ENDBRANCH  21  22
ENDBRANCH   1  21
TORSDOF 10
