REMARK  Name = ZINC30128578
REMARK  5 active torsions:
REMARK  status: ('A' for Active; 'I' for Inactive)
REMARK    1  A    between atoms: C_3  and  C_24
REMARK    2  A    between atoms: C_5  and  N_7
REMARK    3  A    between atoms: C_8  and  C_10
REMARK    4  A    between atoms: C_10  and  C_11
REMARK    5  A    between atoms: C_24  and  N_25
REMARK                            x       y       z     vdW  Elec       q    Type
REMARK                         _______ _______ _______ _____ _____    ______ ____
ROOT
ATOM      1  N   UNL     1       1.237  -2.080  -0.021  0.00  0.00    -0.285 N 
ATOM      2  C   UNL     1       0.087  -2.773   0.087  0.00  0.00    +0.218 C 
ATOM      3  O   UNL     1      -0.975  -2.187   0.101  0.00  0.00    -0.275 OA
ATOM      4  H   UNL     1       2.082  -2.551  -0.100  0.00  0.00    +0.155 HD
ENDROOT
BRANCH   1   9
ATOM      5  C   UNL     1       0.140   1.379  -0.616  0.00  0.00    +0.002 A 
ATOM      6  C   UNL     1       1.169   2.086  -0.021  0.00  0.00    +0.005 A 
ATOM      7  C   UNL     1       2.221   1.413   0.573  0.00  0.00    -0.028 A 
ATOM      8  C   UNL     1       2.246   0.032   0.575  0.00  0.00    +0.028 A 
ATOM      9  C   UNL     1       1.214  -0.681  -0.021  0.00  0.00    +0.034 A 
ATOM     10  C   UNL     1       0.159  -0.002  -0.617  0.00  0.00    +0.023 A 
BRANCH   7  11
ATOM     11  C   UNL     1       3.340   2.188   1.219  0.00  0.00    +0.143 C 
BRANCH  11  12
ATOM     12  N   UNL     1       3.019   2.428   2.628  0.00  0.00    -0.297 N 
ATOM     13  C   UNL     1       2.287   3.600   3.122  0.00  0.00    +0.108 C 
ATOM     14  C   UNL     1       1.811   3.221   4.542  0.00  0.00    +0.028 C 
ATOM     15  C   UNL     1       2.856   2.157   4.950  0.00  0.00    +0.097 C 
ATOM     16  C   UNL     1       3.350   1.600   3.634  0.00  0.00    +0.216 C 
ATOM     17  O   UNL     1       3.960   0.560   3.504  0.00  0.00    -0.276 OA
ENDBRANCH  11  12
ENDBRANCH   7  11
ENDBRANCH   1   9
BRANCH   2  18
ATOM     18  C   UNL     1       0.119  -4.276   0.192  0.00  0.00    +0.103 C 
BRANCH  18  19
ATOM     19  C   UNL     1      -1.310  -4.810   0.304  0.00  0.00    -0.019 C 
ATOM     20  C   UNL     1      -2.106  -4.403  -0.937  0.00  0.00    +0.011 C 
ATOM     21  C   UNL     1      -3.535  -4.937  -0.825  0.00  0.00    -0.009 C 
ATOM     22  C   UNL     1      -3.502  -6.463  -0.718  0.00  0.00    +0.007 C 
ATOM     23  C   UNL     1      -2.706  -6.871   0.523  0.00  0.00    -0.009 C 
ATOM     24  C   UNL     1      -1.277  -6.336   0.411  0.00  0.00    +0.011 C 
ATOM     25  C   UNL     1      -3.372  -6.287   1.770  0.00  0.00    +0.021 C 
ATOM     26  C   UNL     1      -3.405  -4.761   1.664  0.00  0.00    +0.027 C 
ATOM     27  C   UNL     1      -4.201  -4.353   0.423  0.00  0.00    +0.021 C 
ATOM     28  C   UNL     1      -1.976  -4.226   1.552  0.00  0.00    +0.025 C 
ATOM     29 BR   UNL     1      -4.261  -4.011   3.267  0.00  0.00    -0.084 Br
ENDBRANCH  18  19
ENDBRANCH   2  18
TORSDOF 5
