REMARK  Name = ZINC08890625
REMARK  2 active torsions:
REMARK  status: ('A' for Active; 'I' for Inactive)
REMARK    1  A    between atoms: N_12  and  C_16
REMARK    2  A    between atoms: C_16  and  C_17
REMARK                            x       y       z     vdW  Elec       q    Type
REMARK                         _______ _______ _______ _____ _____    ______ ____
ROOT
ATOM      1  C   UNL     1       4.073   1.249   3.034  0.00  0.00    +0.000 A 
ATOM      2  C   UNL     1       2.752   1.200   3.440  0.00  0.00    +0.000 A 
ATOM      3  C   UNL     1       1.740   1.388   2.519  0.00  0.00    +0.006 A 
ATOM      4  C   UNL     1       2.041   1.626   1.188  0.00  0.00    -0.012 A 
ATOM      5  C   UNL     1       3.364   1.676   0.782  0.00  0.00    -0.042 A 
ATOM      6  C   UNL     1       4.376   1.486   1.708  0.00  0.00    +0.004 A 
ATOM      7  C   UNL     1       3.434   1.949  -0.706  0.00  0.00    +0.038 C 
ATOM      8  C   UNL     1       2.018   1.640  -1.242  0.00  0.00    +0.045 C 
ATOM      9  C   UNL     1       1.147   1.860   0.001  0.00  0.00    +0.138 C 
ATOM     10  C   UNL     1       0.556   3.246   0.015  0.00  0.00    +0.251 C 
ATOM     11  O   UNL     1       1.154   4.301   0.016  0.00  0.00    -0.272 OA
ATOM     12  N   UNL     1      -0.782   3.062   0.026  0.00  0.00    -0.219 N 
ATOM     13  C   UNL     1      -1.100   1.761   0.016  0.00  0.00    +0.310 C 
ATOM     14  O   UNL     1      -2.242   1.344   0.018  0.00  0.00    -0.252 OA
ATOM     15  N   UNL     1      -0.011   0.966   0.007  0.00  0.00    -0.281 N 
ATOM     16  H   UNL     1       0.002  -0.004   0.002  0.00  0.00    +0.152 HD
ENDROOT
BRANCH  12  17
ATOM     17  C   UNL     1      -1.763   4.150   0.043  0.00  0.00    +0.159 C 
BRANCH  17  18
ATOM     18  C   UNL     1      -2.113   4.532  -1.373  0.00  0.00    +0.047 A 
ATOM     19  C   UNL     1      -1.387   5.514  -2.024  0.00  0.00    +0.169 A 
ATOM     20  C   UNL     1      -1.705   5.862  -3.327  0.00  0.00    +0.197 A 
ATOM     21  C   UNL     1      -2.757   5.234  -3.975  0.00  0.00    +0.199 A 
ATOM     22  C   UNL     1      -3.487   4.255  -3.320  0.00  0.00    +0.197 A 
ATOM     23  C   UNL     1      -3.164   3.904  -2.018  0.00  0.00    +0.169 A 
ATOM     24  F   UNL     1      -3.875   2.949  -1.380  0.00  0.00    -0.202 F 
ATOM     25  F   UNL     1      -4.512   3.642  -3.950  0.00  0.00    -0.199 F 
ATOM     26  F   UNL     1      -3.071   5.576  -5.243  0.00  0.00    -0.199 F 
ATOM     27  F   UNL     1      -0.992   6.816  -3.965  0.00  0.00    -0.199 F 
ATOM     28  F   UNL     1      -0.365   6.130  -1.390  0.00  0.00    -0.202 F 
ENDBRANCH  17  18
ENDBRANCH  12  17
TORSDOF 2
