REMARK  Name = ZINC39572418
REMARK  5 active torsions:
REMARK  status: ('A' for Active; 'I' for Inactive)
REMARK    1  A    between atoms: C_1  and  C_2
REMARK    2  A    between atoms: C_8  and  C_10
REMARK    3  A    between atoms: C_10  and  C_12
REMARK    4  A    between atoms: C_10  and  S_13
REMARK    5  A    between atoms: S_13  and  C_14
REMARK                            x       y       z     vdW  Elec       q    Type
REMARK                         _______ _______ _______ _____ _____    ______ ____
ROOT
ATOM      1  C   UNL     1      -0.539  -9.001  -0.203  0.00  0.00    +0.182 C 
ATOM      2  N   UNL     1      -0.195  -9.128   1.067  0.00  0.00    -0.151 NA
ATOM      3  C   UNL     1      -0.213 -10.299   1.703  0.00  0.00    +0.272 C 
ATOM      4  O   UNL     1       0.113 -10.381   2.876  0.00  0.00    -0.268 OA
ATOM      5  C   UNL     1      -0.646 -11.511   0.936  0.00  0.00    +0.071 C 
ATOM      6  C   UNL     1      -0.797 -12.765   1.394  0.00  0.00    -0.042 C 
ATOM      7  C   UNL     1      -0.704 -13.148   2.869  0.00  0.00    +0.033 C 
ATOM      8  C   UNL     1      -2.011 -13.873   3.220  0.00  0.00    +0.004 C 
ATOM      9  C   UNL     1      -2.259 -15.019   2.242  0.00  0.00    +0.002 C 
ATOM     10  C   UNL     1      -2.451 -14.488   0.818  0.00  0.00    +0.019 C 
ATOM     11  C   UNL     1      -1.145 -13.832   0.361  0.00  0.00    +0.079 C 
ATOM     12  S   UNL     1      -1.442 -12.825  -1.141  0.00  0.00    -0.097 S 
ATOM     13  C   UNL     1      -0.995 -11.241  -0.476  0.00  0.00    +0.112 C 
ATOM     14  N   UNL     1      -0.934 -10.027  -0.958  0.00  0.00    -0.217 NA
ENDROOT
BRANCH   1  15
ATOM     15  S   UNL     1      -0.482  -7.397  -0.931  0.00  0.00    -0.076 S 
BRANCH  15  16
ATOM     16  C   UNL     1       0.093  -6.325   0.415  0.00  0.00    +0.137 C 
ATOM     17  C   UNL     1       1.521  -6.715   0.803  0.00  0.00    +0.029 C 
BRANCH  16  25
ATOM     18  C   UNL     1      -0.018   1.503   0.010  0.00  0.00    +0.075 C 
ATOM     19  C   UNL     1       0.002  -0.004   0.002  0.00  0.00    +0.101 A 
ATOM     20  N   UNL     1       0.010  -0.844  -1.014  0.00  0.00    -0.145 NA
ATOM     21  N   UNL     1       0.028  -2.086  -0.784  0.00  0.00    -0.126 NA
ATOM     22  C   UNL     1       0.040  -2.568   0.443  0.00  0.00    +0.188 A 
ATOM     23  S   UNL     1       0.031  -1.158   1.367  0.00  0.00    -0.036 S 
ATOM     24  N   UNL     1       0.060  -3.893   0.865  0.00  0.00    -0.262 N 
ATOM     25  C   UNL     1       0.071  -4.889  -0.043  0.00  0.00    +0.232 C 
ATOM     26  O   UNL     1       0.063  -4.630  -1.227  0.00  0.00    -0.274 OA
ATOM     27  H   UNL     1       0.067  -4.100   1.813  0.00  0.00    +0.157 HD
ENDBRANCH  16  25
ENDBRANCH  15  16
ENDBRANCH   1  15
TORSDOF 3
