REMARK  Name = ZINC14866480
REMARK  7 active torsions:
REMARK  status: ('A' for Active; 'I' for Inactive)
REMARK    1  A    between atoms: C_1  and  C_2
REMARK    2  A    between atoms: C_2  and  C_3
REMARK    3  A    between atoms: C_6  and  N_9
REMARK    4  A    between atoms: C_11  and  C_16
REMARK    5  A    between atoms: N_18  and  C_19
REMARK    6  A    between atoms: C_22  and  S_25
REMARK    7  A    between atoms: S_25  and  N_28
REMARK                            x       y       z     vdW  Elec       q    Type
REMARK                         _______ _______ _______ _____ _____    ______ ____
ROOT
ATOM      1  C   UNL     1       1.834   2.091  -1.574  0.00  0.00    +0.222 C 
ATOM      2  O   UNL     1       3.018   2.325  -1.453  0.00  0.00    -0.275 OA
ATOM      3  N   UNL     1       1.018   3.011  -2.124  0.00  0.00    -0.285 N 
ATOM      4  H   UNL     1       0.084   2.799  -2.281  0.00  0.00    +0.155 HD
ENDROOT
BRANCH   1   7
ATOM      5  N   UNL     1       2.749  -0.973  -1.845  0.00  0.00    -0.271 N 
ATOM      6  C   UNL     1       2.408  -0.180  -0.658  0.00  0.00    +0.127 C 
ATOM      7  C   UNL     1       1.276   0.770  -1.108  0.00  0.00    +0.102 C 
ATOM      8  C   UNL     1       0.656  -0.015  -2.288  0.00  0.00    +0.110 C 
ATOM      9  C   UNL     1       1.779  -0.903  -2.777  0.00  0.00    +0.221 C 
ATOM     10  O   UNL     1       1.800  -1.468  -3.850  0.00  0.00    -0.275 OA
BRANCH   5  14
ATOM     11  C   UNL     1       6.268  -3.160  -2.279  0.00  0.00    -0.048 A 
ATOM     12  C   UNL     1       5.331  -3.153  -3.295  0.00  0.00    +0.005 A 
ATOM     13  C   UNL     1       4.163  -2.429  -3.154  0.00  0.00    +0.024 A 
ATOM     14  C   UNL     1       3.931  -1.708  -1.990  0.00  0.00    +0.036 A 
ATOM     15  C   UNL     1       4.877  -1.713  -0.973  0.00  0.00    +0.024 A 
ATOM     16  C   UNL     1       6.040  -2.443  -1.119  0.00  0.00    +0.005 A 
BRANCH  11  18
ATOM     17  C   UNL     1       8.615  -3.066  -3.074  0.00  0.00    +0.009 C 
ATOM     18  C   UNL     1       7.542  -3.950  -2.436  0.00  0.00    +0.032 C 
ENDBRANCH  11  18
ENDBRANCH   5  14
ENDBRANCH   1   7
BRANCH   3  19
ATOM     19  C   UNL     1       1.516   4.273  -2.467  0.00  0.00    +0.034 A 
ATOM     20  C   UNL     1       0.712   5.397  -2.337  0.00  0.00    +0.025 A 
ATOM     21  C   UNL     1       1.208   6.642  -2.672  0.00  0.00    +0.031 A 
ATOM     22  C   UNL     1       2.502   6.768  -3.146  0.00  0.00    +0.113 A 
ATOM     23  C   UNL     1       3.303   5.649  -3.281  0.00  0.00    +0.031 A 
ATOM     24  C   UNL     1       2.814   4.402  -2.943  0.00  0.00    +0.025 A 
BRANCH  22  25
ATOM     25  S   UNL     1       3.129   8.356  -3.579  0.00  0.00    +0.100 S 
ATOM     26  O   UNL     1       2.368   9.307  -2.847  0.00  0.00    -0.146 OA
ATOM     27  O   UNL     1       4.544   8.274  -3.480  0.00  0.00    -0.146 OA
BRANCH  25  28
ATOM     28  N   UNL     1       2.780   8.601  -5.179  0.00  0.00    -0.118 NA
ATOM     29  C   UNL     1       3.134   9.703  -5.757  0.00  0.00    +0.117 C 
ATOM     30  C   UNL     1       3.869  10.781  -4.964  0.00  0.00    +0.073 C 
ATOM     31  C   UNL     1       5.293  10.827  -5.491  0.00  0.00    +0.008 C 
ATOM     32  C   UNL     1       5.471  11.777  -6.678  0.00  0.00    +0.002 C 
ATOM     33  C   UNL     1       4.340  11.675  -7.702  0.00  0.00    +0.019 C 
ATOM     34  C   UNL     1       3.927  10.249  -7.994  0.00  0.00    +0.102 C 
ATOM     35  N   UNL     1       2.857   9.900  -7.030  0.00  0.00    -0.331 N 
ATOM     36  H   UNL     1       1.942   9.815  -7.340  0.00  0.00    +0.147 HD
ENDBRANCH  25  28
ENDBRANCH  22  25
ENDBRANCH   3  19
TORSDOF 6
