REMARK  Name = ZINC20982489
REMARK  7 active torsions:
REMARK  status: ('A' for Active; 'I' for Inactive)
REMARK    1  A    between atoms: C_1  and  C_2
REMARK    2  A    between atoms: C_2  and  O_4
REMARK    3  A    between atoms: O_4  and  C_5
REMARK    4  A    between atoms: C_7  and  C_21
REMARK    5  A    between atoms: C_9  and  C_11
REMARK    6  A    between atoms: C_15  and  N_20
REMARK    7  A    between atoms: C_25  and  N_30
REMARK                            x       y       z     vdW  Elec       q    Type
REMARK                         _______ _______ _______ _____ _____    ______ ____
ROOT
ATOM      1  C   UNL     1      -6.846   3.659   0.060  0.00  0.00    +0.133 A 
ATOM      2  C   UNL     1      -7.523   2.453  -0.031  0.00  0.00    +0.059 A 
ATOM      3  C   UNL     1      -6.814   1.251  -0.034  0.00  0.00    +0.041 A 
ATOM      4  C   UNL     1      -5.424   1.264   0.054  0.00  0.00    +0.026 A 
ATOM      5  C   UNL     1      -4.747   2.478   0.146  0.00  0.00    +0.041 A 
ATOM      6  C   UNL     1      -5.464   3.676   0.155  0.00  0.00    +0.059 A 
ENDROOT
BRANCH   5   7
ATOM      7  C   UNL     1      -3.272   2.498   0.241  0.00  0.00    +0.229 A 
ATOM      8  N   UNL     1      -2.541   3.579   0.343  0.00  0.00    -0.209 NA
ATOM      9  C   UNL     1      -1.233   3.218   0.406  0.00  0.00    +0.112 A 
ATOM     10  C   UNL     1      -0.039   3.937   0.504  0.00  0.00    +0.054 A 
ATOM     11  C   UNL     1       1.165   3.259   0.548  0.00  0.00    +0.027 A 
ATOM     12  C   UNL     1       1.191   1.867   0.494  0.00  0.00    +0.026 A 
ATOM     13  C   UNL     1       0.017   1.151   0.396  0.00  0.00    +0.050 A 
ATOM     14  C   UNL     1      -1.199   1.815   0.346  0.00  0.00    +0.156 A 
ATOM     15  O   UNL     1      -2.484   1.406   0.247  0.00  0.00    -0.435 OA
BRANCH  11  16
ATOM     16  N   UNL     1       2.364   3.974   0.647  0.00  0.00    -0.358 N 
ATOM     17  H   UNL     1       3.323   3.438   0.682  0.00  0.00    +0.142 HD
ATOM     18  H   UNL     1       2.346   5.073   0.690  0.00  0.00    +0.142 HD
ENDBRANCH  11  16
ENDBRANCH   5   7
BRANCH   3  19
ATOM     19  C   UNL     1      -7.538  -0.035  -0.132  0.00  0.00    +0.229 A 
ATOM     20  N   UNL     1      -8.838  -0.159  -0.219  0.00  0.00    -0.209 NA
ATOM     21  C   UNL     1      -9.146  -1.480  -0.291  0.00  0.00    +0.112 A 
ATOM     22  C   UNL     1     -10.348  -2.184  -0.396  0.00  0.00    +0.054 A 
ATOM     23  C   UNL     1     -10.330  -3.565  -0.449  0.00  0.00    +0.027 A 
ATOM     24  C   UNL     1      -9.120  -4.254  -0.400  0.00  0.00    +0.026 A 
ATOM     25  C   UNL     1      -7.929  -3.567  -0.296  0.00  0.00    +0.050 A 
ATOM     26  C   UNL     1      -7.931  -2.181  -0.242  0.00  0.00    +0.156 A 
ATOM     27  O   UNL     1      -6.956  -1.248  -0.149  0.00  0.00    -0.435 OA
BRANCH  23  28
ATOM     28  N   UNL     1     -11.531  -4.274  -0.554  0.00  0.00    -0.358 N 
ATOM     29  H   UNL     1     -11.519  -5.373  -0.597  0.00  0.00    +0.142 HD
ATOM     30  H   UNL     1     -12.488  -3.733  -0.593  0.00  0.00    +0.142 HD
ENDBRANCH  23  28
ENDBRANCH   3  19
BRANCH   1  31
ATOM     31  O   UNL     1      -7.540   4.828   0.062  0.00  0.00    -0.426 OA
BRANCH  31  33
ATOM     32  C   UNL     1      -8.047   6.982  -1.034  0.00  0.00    +0.136 C 
ATOM     33  C   UNL     1      -7.413   5.614  -1.018  0.00  0.00    +0.309 C 
ATOM     34  O   UNL     1      -6.791   5.226  -1.978  0.00  0.00    -0.251 OA
ENDBRANCH  31  33
ENDBRANCH   1  31
TORSDOF 6
