REMARK  Name = ZINC64798680
REMARK  6 active torsions:
REMARK  status: ('A' for Active; 'I' for Inactive)
REMARK    1  A    between atoms: C_1  and  C_2
REMARK    2  A    between atoms: C_5  and  S_8
REMARK    3  A    between atoms: S_8  and  C_11
REMARK    4  A    between atoms: C_20  and  C_22
REMARK    5  A    between atoms: C_27  and  O_28
REMARK    6  A    between atoms: O_28  and  C_29
REMARK                            x       y       z     vdW  Elec       q    Type
REMARK                         _______ _______ _______ _____ _____    ______ ____
ROOT
ATOM      1  C   UNL     1       1.756  -4.584   0.068  0.00  0.00    +0.122 A 
ATOM      2  C   UNL     1       2.130  -5.160   1.236  0.00  0.00    +0.074 A 
ATOM      3  S   UNL     1       3.809  -5.660   0.885  0.00  0.00    -0.097 S 
ATOM      4  C   UNL     1       3.893  -5.066  -0.779  0.00  0.00    +0.021 A 
ATOM      5  C   UNL     1       2.652  -4.533  -0.996  0.00  0.00    +0.070 A 
ATOM      6  N   UNL     1       2.383  -3.956  -2.272  0.00  0.00    -0.283 N 
ATOM      7  C   UNL     1       3.262  -4.153  -3.270  0.00  0.00    +0.218 C 
ATOM      8  O   UNL     1       3.126  -3.516  -4.293  0.00  0.00    -0.275 OA
ATOM      9  C   UNL     1       4.405  -5.123  -3.178  0.00  0.00    +0.109 C 
ATOM     10  C   UNL     1       5.013  -5.104  -1.764  0.00  0.00    +0.070 C 
ATOM     11  H   UNL     1       1.580  -3.432  -2.417  0.00  0.00    +0.155 HD
ENDROOT
BRANCH  10  12
ATOM     12  C   UNL     1       5.886  -3.889  -1.587  0.00  0.00    +0.003 A 
ATOM     13  C   UNL     1       5.350  -2.624  -1.739  0.00  0.00    +0.008 A 
ATOM     14  C   UNL     1       6.151  -1.509  -1.577  0.00  0.00    +0.001 A 
ATOM     15  C   UNL     1       7.489  -1.655  -1.264  0.00  0.00    +0.004 A 
ATOM     16  C   UNL     1       8.030  -2.917  -1.111  0.00  0.00    +0.046 A 
ATOM     17  C   UNL     1       7.228  -4.038  -1.267  0.00  0.00    +0.125 A 
BRANCH  17  18
ATOM     18  O   UNL     1       7.756  -5.280  -1.111  0.00  0.00    -0.489 OA
BRANCH  18  19
ATOM     19  C   UNL     1       9.114  -5.357  -0.675  0.00  0.00    +0.173 C 
ATOM     20  C   UNL     1      10.064  -5.300  -1.890  0.00  0.00    +0.044 C 
ATOM     21  C   UNL     1      11.210  -6.274  -1.522  0.00  0.00    +0.004 C 
ATOM     22  C   UNL     1      10.465  -7.423  -0.799  0.00  0.00    +0.004 C 
ATOM     23  C   UNL     1       9.369  -6.707   0.019  0.00  0.00    +0.044 C 
ENDBRANCH  18  19
ENDBRANCH  17  18
ENDBRANCH  10  12
BRANCH   1  24
ATOM     24  S   UNL     1       0.137  -3.909  -0.106  0.00  0.00    +0.027 S 
ATOM     25  O   UNL     1       0.296  -2.616  -0.673  0.00  0.00    -0.164 OA
ATOM     26  O   UNL     1      -0.527  -4.122   1.132  0.00  0.00    -0.164 OA
BRANCH  24  31
ATOM     27  C   UNL     1      -2.759  -7.247  -4.214  0.00  0.00    +0.044 C 
ATOM     28  C   UNL     1      -2.035  -6.414  -3.188  0.00  0.00    -0.050 A 
ATOM     29  C   UNL     1      -1.988  -6.828  -1.870  0.00  0.00    +0.005 A 
ATOM     30  C   UNL     1      -1.324  -6.063  -0.929  0.00  0.00    +0.027 A 
ATOM     31  C   UNL     1      -0.708  -4.884  -1.306  0.00  0.00    +0.094 A 
ATOM     32  C   UNL     1      -0.754  -4.471  -2.624  0.00  0.00    +0.027 A 
ATOM     33  C   UNL     1      -1.414  -5.238  -3.566  0.00  0.00    +0.005 A 
ENDBRANCH  24  31
ENDBRANCH   1  24
TORSDOF 5
