REMARK  Name = ZINC35304169
REMARK  16 active torsions:
REMARK  status: ('A' for Active; 'I' for Inactive)
REMARK    1  A    between atoms: C_1  and  C_2
REMARK    2  A    between atoms: C_2  and  N_3
REMARK    3  A    between atoms: C_4  and  C_37
REMARK    4  A    between atoms: C_5  and  C_30
REMARK    5  A    between atoms: C_6  and  C_11
REMARK    6  A    between atoms: C_14  and  N_17
REMARK    7  A    between atoms: N_17  and  S_18
REMARK    8  A    between atoms: S_18  and  C_21
REMARK    9  A    between atoms: C_22  and  C_29
REMARK   10  A    between atoms: C_24  and  C_28
REMARK   11  A    between atoms: C_26  and  C_27
REMARK   12  A    between atoms: C_30  and  O_32
REMARK   13  A    between atoms: O_32  and  C_33
REMARK   14  A    between atoms: C_33  and  C_34
REMARK   15  A    between atoms: C_34  and  C_35
REMARK   16  A    between atoms: C_34  and  C_36
REMARK                            x       y       z     vdW  Elec       q    Type
REMARK                         _______ _______ _______ _____ _____    ______ ____
ROOT
ATOM      1  C   UNL     1       4.569  -0.370  -3.405  0.00  0.00    -0.022 A 
ATOM      2  C   UNL     1       4.610  -0.884  -4.688  0.00  0.00    +0.007 A 
ATOM      3  C   UNL     1       4.038  -2.111  -4.961  0.00  0.00    +0.025 A 
ATOM      4  C   UNL     1       3.421  -2.829  -3.944  0.00  0.00    +0.048 A 
ATOM      5  C   UNL     1       3.381  -2.310  -2.656  0.00  0.00    +0.025 A 
ATOM      6  C   UNL     1       3.960  -1.085  -2.390  0.00  0.00    +0.007 A 
ENDROOT
BRANCH   1  10
ATOM      7  N   UNL     1       5.104   2.315  -0.698  0.00  0.00    -0.286 N 
ATOM      8  C   UNL     1       4.106   2.564  -1.595  0.00  0.00    +0.021 C 
ATOM      9  C   UNL     1       4.080   1.946  -2.796  0.00  0.00    +0.078 C 
ATOM     10  C   UNL     1       5.194   0.969  -3.112  0.00  0.00    +0.141 C 
ATOM     11  N   UNL     1       6.222   0.773  -2.076  0.00  0.00    -0.315 N 
ATOM     12  C   UNL     1       6.114   1.467  -0.926  0.00  0.00    +0.138 C 
ATOM     13  S   UNL     1       7.305   1.253   0.285  0.00  0.00    -0.018 S 
ATOM     14  C   UNL     1       3.017   3.543  -1.241  0.00  0.00    +0.061 C 
ATOM     15  H   UNL     1       6.960   0.160  -2.219  0.00  0.00    +0.149 HD
BRANCH   7  17
ATOM     16  C   UNL     1       4.163   2.264   1.560  0.00  0.00    +0.025 C 
ATOM     17  C   UNL     1       5.069   3.020   0.586  0.00  0.00    +0.109 C 
ENDBRANCH   7  17
BRANCH   9  18
ATOM     18  C   UNL     1       3.046   2.202  -3.727  0.00  0.00    +0.339 C 
ATOM     19  O   UNL     1       2.221   3.066  -3.498  0.00  0.00    -0.245 OA
BRANCH  18  20
ATOM     20  O   UNL     1       2.976   1.488  -4.870  0.00  0.00    -0.461 OA
BRANCH  20  21
ATOM     21  C   UNL     1       1.933   1.830  -5.785  0.00  0.00    +0.235 C 
BRANCH  21  22
ATOM     22  C   UNL     1       1.917   0.825  -6.939  0.00  0.00    +0.020 C 
ATOM     23  C   UNL     1       1.495  -0.548  -6.414  0.00  0.00    +0.010 C 
ATOM     24  C   UNL     1       0.924   1.290  -8.007  0.00  0.00    +0.010 C 
ENDBRANCH  21  22
ENDBRANCH  20  21
ENDBRANCH  18  20
ENDBRANCH   9  18
ENDBRANCH   1  10
BRANCH   4  25
ATOM     25  N   UNL     1       2.841  -4.071  -4.216  0.00  0.00    -0.216 N 
ATOM     26  H   UNL     1       1.876  -4.158  -4.250  0.00  0.00    +0.174 HD
BRANCH  25  27
ATOM     27  S   UNL     1       3.802  -5.393  -4.481  0.00  0.00    +0.073 S 
ATOM     28  O   UNL     1       2.928  -6.495  -4.689  0.00  0.00    -0.150 OA
ATOM     29  O   UNL     1       4.776  -5.002  -5.440  0.00  0.00    -0.150 OA
BRANCH  27  30
ATOM     30  C   UNL     1       4.671  -5.715  -2.983  0.00  0.00    +0.114 A 
ATOM     31  C   UNL     1       4.203  -6.674  -2.105  0.00  0.00    -0.023 A 
ATOM     32  C   UNL     1       4.885  -6.926  -0.929  0.00  0.00    +0.008 A 
ATOM     33  C   UNL     1       6.035  -6.220  -0.631  0.00  0.00    -0.050 A 
ATOM     34  C   UNL     1       6.503  -5.261  -1.510  0.00  0.00    +0.008 A 
ATOM     35  C   UNL     1       5.824  -5.011  -2.688  0.00  0.00    -0.023 A 
ATOM     36  C   UNL     1       6.337  -3.970  -3.648  0.00  0.00    +0.046 C 
ATOM     37  C   UNL     1       6.778  -6.494   0.651  0.00  0.00    +0.044 C 
ATOM     38  C   UNL     1       2.949  -7.445  -2.429  0.00  0.00    +0.046 C 
ENDBRANCH  27  30
ENDBRANCH  25  27
ENDBRANCH   4  25
TORSDOF 9
