REMARK  Name = ZINC39965107
REMARK  6 active torsions:
REMARK  status: ('A' for Active; 'I' for Inactive)
REMARK    1  A    between atoms: C_3  and  S_27
REMARK    2  A    between atoms: C_6  and  N_7
REMARK    3  A    between atoms: C_8  and  C_10
REMARK    4  A    between atoms: C_10  and  N_11
REMARK    5  A    between atoms: N_14  and  C_17
REMARK    6  A    between atoms: S_27  and  N_30
REMARK                            x       y       z     vdW  Elec       q    Type
REMARK                         _______ _______ _______ _____ _____    ______ ____
ROOT
ATOM      1  N   UNL     1      -1.199  -0.722   0.010  0.00  0.00    -0.284 N 
ATOM      2  C   UNL     1      -1.183  -2.065  -0.099  0.00  0.00    +0.231 C 
ATOM      3  O   UNL     1      -0.125  -2.659  -0.113  0.00  0.00    -0.274 OA
ATOM      4  H   UNL     1      -2.044  -0.252   0.089  0.00  0.00    +0.155 HD
ENDROOT
BRANCH   1  10
ATOM      5  C   UNL     1       0.065   1.248  -0.586  0.00  0.00    +0.025 A 
ATOM      6  C   UNL     1       1.253   1.953  -0.584  0.00  0.00    +0.030 A 
ATOM      7  C   UNL     1       2.378   1.413   0.010  0.00  0.00    +0.106 A 
ATOM      8  C   UNL     1       2.319   0.166   0.604  0.00  0.00    +0.030 A 
ATOM      9  C   UNL     1       1.135  -0.544   0.606  0.00  0.00    +0.025 A 
ATOM     10  C   UNL     1       0.003  -0.005   0.010  0.00  0.00    +0.034 A 
BRANCH   7  11
ATOM     11  S   UNL     1       3.892   2.316   0.009  0.00  0.00    +0.061 S 
ATOM     12  O   UNL     1       4.934   1.360   0.148  0.00  0.00    -0.153 OA
ATOM     13  O   UNL     1       3.826   3.217  -1.087  0.00  0.00    -0.153 OA
BRANCH  11  14
ATOM     14  N   UNL     1       3.911   3.240   1.383  0.00  0.00    -0.177 NA
ATOM     15  C   UNL     1       3.349   4.572   1.330  0.00  0.00    +0.109 C 
ATOM     16  C   UNL     1       4.447   5.582   0.915  0.00  0.00    +0.017 C 
ATOM     17  C   UNL     1       5.412   5.766   2.009  0.00  0.00    +0.001 C 
ATOM     18  C   UNL     1       6.184   4.505   2.385  0.00  0.00    +0.001 C 
ATOM     19  C   UNL     1       5.371   3.695   3.364  0.00  0.00    +0.017 C 
ATOM     20  C   UNL     1       4.496   2.670   2.612  0.00  0.00    +0.109 C 
ENDBRANCH  11  14
ENDBRANCH   7  11
ENDBRANCH   1  10
BRANCH   2  21
ATOM     21  C   UNL     1      -2.478  -2.828  -0.204  0.00  0.00    +0.180 C 
BRANCH  21  22
ATOM     22  N   UNL     1      -2.191  -4.265  -0.312  0.00  0.00    -0.298 NA
ATOM     23  C   UNL     1      -1.507  -4.573  -1.576  0.00  0.00    +0.066 C 
ATOM     24  C   UNL     1      -1.175  -6.066  -1.622  0.00  0.00    -0.062 C 
ATOM     25  N   UNL     1      -2.414  -6.847  -1.514  0.00  0.00    +0.385 N 
ATOM     26  C   UNL     1      -3.073  -6.548  -0.236  0.00  0.00    -0.062 C 
ATOM     27  C   UNL     1      -3.421  -5.059  -0.178  0.00  0.00    +0.066 C 
ATOM     28  H   UNL     1      -3.031  -6.606  -2.275  0.00  0.00    -0.081 HD
BRANCH  25  29
ATOM     29  C   UNL     1      -2.096  -8.280  -1.577  0.00  0.00    -0.065 C 
ATOM     30  C   UNL     1      -1.411  -8.592  -2.909  0.00  0.00    -0.009 C 
ATOM     31  C   UNL     1      -1.080 -10.084  -2.974  0.00  0.00    -0.012 C 
ATOM     32  C   UNL     1      -2.370 -10.899  -2.861  0.00  0.00    +0.007 C 
ATOM     33  C   UNL     1      -3.055 -10.586  -1.529  0.00  0.00    -0.012 C 
ATOM     34  C   UNL     1      -3.386  -9.094  -1.464  0.00  0.00    -0.009 C 
ATOM     35  C   UNL     1      -2.119 -10.952  -0.376  0.00  0.00    +0.007 C 
ATOM     36  C   UNL     1      -0.828 -10.138  -0.489  0.00  0.00    -0.012 C 
ATOM     37  C   UNL     1      -0.143 -10.450  -1.821  0.00  0.00    +0.007 C 
ATOM     38  C   UNL     1      -1.159  -8.646  -0.423  0.00  0.00    -0.009 C 
ENDBRANCH  25  29
ENDBRANCH  21  22
ENDBRANCH   2  21
TORSDOF 6
