REMARK  Name = ZINC25252413
REMARK  10 active torsions:
REMARK  status: ('A' for Active; 'I' for Inactive)
REMARK    1  A    between atoms: C_1  and  C_2
REMARK    2  A    between atoms: C_5  and  S_8
REMARK    3  A    between atoms: S_8  and  N_11
REMARK    4  A    between atoms: N_11  and  C_12
REMARK    5  A    between atoms: N_11  and  C_18
REMARK    6  A    between atoms: C_12  and  C_13
REMARK    7  A    between atoms: C_18  and  C_19
REMARK    8  A    between atoms: N_21  and  C_22
REMARK    9  A    between atoms: N_26  and  C_28
REMARK   10  A    between atoms: C_28  and  C_29
REMARK                            x       y       z     vdW  Elec       q    Type
REMARK                         _______ _______ _______ _____ _____    ______ ____
ROOT
ATOM      1  C   UNL     1       1.739  -2.853  -3.583  0.00  0.00    +0.205 C 
ENDROOT
BRANCH   1   2
ATOM      2  C   UNL     1       1.998  -2.073  -2.319  0.00  0.00    +0.229 C 
ATOM      3  O   UNL     1       3.031  -2.237  -1.706  0.00  0.00    -0.274 OA
ATOM      4  N   UNL     1       1.081  -1.192  -1.871  0.00  0.00    -0.313 N 
ATOM      5  H   UNL     1       0.143  -1.044  -2.427  0.00  0.00    +0.149 HD
BRANCH   4   6
ATOM      6  C   UNL     1       1.333  -0.434  -0.643  0.00  0.00    +0.055 C 
ATOM      7  C   UNL     1       2.070   0.885  -0.966  0.00  0.00    +0.002 C 
ATOM      8  C   UNL     1       1.405   1.899  -0.001  0.00  0.00    -0.077 C 
ATOM      9  N   UNL     1      -0.018   1.475   0.010  0.00  0.00    +0.384 N 
ATOM     10  C   UNL     1       0.002  -0.004   0.002  0.00  0.00    -0.056 C 
ATOM     11  H   UNL     1      -0.571   1.875  -0.852  0.00  0.00    -0.081 HD
BRANCH   9  12
ATOM     12  C   UNL     1      -0.710   1.985   1.201  0.00  0.00    -0.043 C 
BRANCH  12  13
ATOM     13  C   UNL     1      -0.500   3.474   1.304  0.00  0.00    -0.064 A 
ATOM     14  C   UNL     1       0.580   3.973   2.009  0.00  0.00    +0.002 A 
ATOM     15  C   UNL     1       0.775   5.338   2.099  0.00  0.00    +0.000 A 
ATOM     16  C   UNL     1      -0.116   6.205   1.494  0.00  0.00    +0.000 A 
ATOM     17  C   UNL     1      -1.199   5.707   0.794  0.00  0.00    +0.000 A 
ATOM     18  C   UNL     1      -1.391   4.341   0.699  0.00  0.00    +0.002 A 
ENDBRANCH  12  13
ENDBRANCH   9  12
ENDBRANCH   4   6
ENDBRANCH   1   2
BRANCH   1  19
ATOM     19  N   UNL     1       2.877  -3.734  -3.854  0.00  0.00    -0.160 NA
BRANCH  19  20
ATOM     20  S   UNL     1       4.082  -3.239  -4.877  0.00  0.00    +0.062 S 
ATOM     21  O   UNL     1       4.700  -4.417  -5.377  0.00  0.00    -0.153 OA
ATOM     22  O   UNL     1       3.512  -2.257  -5.731  0.00  0.00    -0.153 OA
BRANCH  20  27
ATOM     23  C   UNL     1       8.222  -0.411  -1.521  0.00  0.00    +0.044 C 
ATOM     24  C   UNL     1       7.188  -1.117  -2.359  0.00  0.00    -0.050 A 
ATOM     25  C   UNL     1       7.285  -2.480  -2.573  0.00  0.00    +0.005 A 
ATOM     26  C   UNL     1       6.336  -3.128  -3.341  0.00  0.00    +0.029 A 
ATOM     27  C   UNL     1       5.291  -2.413  -3.897  0.00  0.00    +0.106 A 
ATOM     28  C   UNL     1       5.197  -1.050  -3.687  0.00  0.00    +0.029 A 
ATOM     29  C   UNL     1       6.142  -0.403  -2.913  0.00  0.00    +0.005 A 
ENDBRANCH  20  27
ENDBRANCH  19  20
BRANCH  19  30
ATOM     30  C   UNL     1       2.949  -5.053  -3.221  0.00  0.00    +0.184 C 
BRANCH  30  31
ATOM     31  C   UNL     1       2.169  -6.048  -4.042  0.00  0.00    +0.120 A 
ATOM     32  C   UNL     1       2.657  -6.790  -5.051  0.00  0.00    +0.046 A 
ATOM     33  C   UNL     1       1.588  -7.580  -5.533  0.00  0.00    +0.041 A 
ATOM     34  C   UNL     1       0.508  -7.267  -4.795  0.00  0.00    +0.195 A 
ATOM     35  O   UNL     1       0.866  -6.338  -3.893  0.00  0.00    -0.466 OA
ENDBRANCH  30  31
ENDBRANCH  19  30
ENDBRANCH   1  19
TORSDOF 9
