REMARK  Name = ZINC13750986
REMARK  11 active torsions:
REMARK  status: ('A' for Active; 'I' for Inactive)
REMARK    1  A    between atoms: C_1  and  C_2
REMARK    2  A    between atoms: C_2  and  C_4
REMARK    3  A    between atoms: C_4  and  N_5
REMARK    4  A    between atoms: C_14  and  S_15
REMARK    5  A    between atoms: S_15  and  C_16
REMARK    6  A    between atoms: C_16  and  C_17
REMARK    7  A    between atoms: N_19  and  C_20
REMARK    8  A    between atoms: C_23  and  N_26
REMARK    9  A    between atoms: C_27  and  C_29
REMARK   10  A    between atoms: C_32  and  C_34
REMARK   11  A    between atoms: C_32  and  C_35
REMARK                            x       y       z     vdW  Elec       q    Type
REMARK                         _______ _______ _______ _____ _____    ______ ____
ROOT
ATOM      1  N   UNL     1      -3.951   2.222   4.502  0.00  0.00    -0.283 N 
ATOM      2  C   UNL     1      -2.904   2.299   3.648  0.00  0.00    +0.264 A 
ATOM      3  O   UNL     1      -1.814   2.718   3.998  0.00  0.00    -0.267 OA
ATOM      4  C   UNL     1      -3.155   1.859   2.308  0.00  0.00    +0.076 A 
ATOM      5  C   UNL     1      -2.210   1.837   1.208  0.00  0.00    -0.018 A 
ATOM      6  C   UNL     1      -2.668   1.377   0.018  0.00  0.00    +0.021 A 
ATOM      7  S   UNL     1      -4.365   0.954   0.307  0.00  0.00    -0.071 S 
ATOM      8  C   UNL     1      -4.458   1.393   2.015  0.00  0.00    +0.117 A 
ATOM      9  N   UNL     1      -5.444   1.343   2.901  0.00  0.00    -0.216 NA
ATOM     10  C   UNL     1      -5.177   1.758   4.133  0.00  0.00    +0.173 A 
ATOM     11  C   UNL     1      -1.881   1.264  -1.250  0.00  0.00    +0.203 C 
ATOM     12  O   UNL     1      -0.665   2.010  -1.086  0.00  0.00    -0.368 OA
ATOM     13  C   UNL     1       0.019   1.721   0.136  0.00  0.00    +0.068 C 
ATOM     14  C   UNL     1      -0.760   2.294   1.322  0.00  0.00    +0.071 C 
ATOM     15  C   UNL     1       0.148   0.205   0.299  0.00  0.00    +0.041 C 
ATOM     16  C   UNL     1       1.415   2.347   0.096  0.00  0.00    +0.041 C 
ENDROOT
BRANCH   1  17
ATOM     17  C   UNL     1      -3.758   2.658   5.888  0.00  0.00    +0.157 C 
BRANCH  17  19
ATOM     18  C   UNL     1      -3.031   5.156   5.683  0.00  0.00    +0.040 C 
ATOM     19  C   UNL     1      -4.082   4.125   6.003  0.00  0.00    -0.060 C 
ATOM     20  C   UNL     1      -5.278   4.504   6.380  0.00  0.00    +0.009 C 
ENDBRANCH  17  19
ENDBRANCH   1  17
BRANCH  10  21
ATOM     21  S   UNL     1      -6.461   1.707   5.339  0.00  0.00    -0.078 S 
BRANCH  21  22
ATOM     22  C   UNL     1      -7.808   1.034   4.335  0.00  0.00    +0.173 C 
BRANCH  22  23
ATOM     23  C   UNL     1      -9.047   0.898   5.183  0.00  0.00    +0.227 C 
ATOM     24  O   UNL     1      -9.021   1.224   6.351  0.00  0.00    -0.275 OA
ATOM     25  N   UNL     1     -10.183   0.414   4.644  0.00  0.00    -0.285 N 
ATOM     26  H   UNL     1     -10.226   0.223   3.694  0.00  0.00    +0.155 HD
BRANCH  25  27
ATOM     27  C   UNL     1     -11.303   0.188   5.455  0.00  0.00    +0.034 A 
ATOM     28  C   UNL     1     -11.135  -0.224   6.770  0.00  0.00    +0.025 A 
ATOM     29  C   UNL     1     -12.238  -0.443   7.571  0.00  0.00    +0.025 A 
ATOM     30  C   UNL     1     -13.515  -0.260   7.058  0.00  0.00    +0.033 A 
ATOM     31  C   UNL     1     -13.683   0.147   5.741  0.00  0.00    +0.025 A 
ATOM     32  C   UNL     1     -12.580   0.371   4.942  0.00  0.00    +0.025 A 
BRANCH  30  33
ATOM     33  N   UNL     1     -14.635  -0.486   7.869  0.00  0.00    -0.286 N 
ATOM     34  C   UNL     1     -14.589  -0.181   9.181  0.00  0.00    +0.214 C 
ATOM     35  O   UNL     1     -13.554   0.212   9.676  0.00  0.00    -0.276 OA
ATOM     36  C   UNL     1     -15.824  -0.327  10.032  0.00  0.00    +0.109 C 
ATOM     37  H   UNL     1     -15.443  -0.863   7.487  0.00  0.00    +0.155 HD
ENDBRANCH  30  33
ENDBRANCH  25  27
ENDBRANCH  22  23
ENDBRANCH  21  22
ENDBRANCH  10  21
TORSDOF 7
