REMARK  Name = ZINC60441348
REMARK  6 active torsions:
REMARK  status: ('A' for Active; 'I' for Inactive)
REMARK    1  A    between atoms: C_1  and  C_2
REMARK    2  A    between atoms: C_5  and  C_7
REMARK    3  A    between atoms: C_7  and  N_8
REMARK    4  A    between atoms: C_9  and  N_13
REMARK    5  A    between atoms: C_14  and  C_16
REMARK    6  A    between atoms: C_17  and  C_27
REMARK                            x       y       z     vdW  Elec       q    Type
REMARK                         _______ _______ _______ _____ _____    ______ ____
ROOT
ATOM      1  N   UNL     1       0.160  -5.224  -1.766  0.00  0.00    -0.265 N 
ATOM      2  C   UNL     1      -0.436  -6.074  -2.626  0.00  0.00    +0.266 C 
ATOM      3  O   UNL     1       0.010  -6.216  -3.749  0.00  0.00    -0.268 OA
ATOM      4  H   UNL     1      -0.196  -5.111  -0.871  0.00  0.00    +0.157 HD
ENDROOT
BRANCH   2   5
ATOM      5  C   UNL     1      -1.622  -6.830  -2.206  0.00  0.00    +0.106 A 
ATOM      6  C   UNL     1      -2.313  -7.725  -2.976  0.00  0.00    -0.010 A 
ATOM      7  C   UNL     1      -3.363  -8.207  -2.185  0.00  0.00    +0.042 A 
ATOM      8  C   UNL     1      -3.279  -7.580  -0.942  0.00  0.00    +0.027 A 
ATOM      9  N   UNL     1      -2.226  -6.763  -0.965  0.00  0.00    -0.354 N 
ATOM     10  H   UNL     1      -1.931  -6.206  -0.227  0.00  0.00    +0.166 HD
ATOM     11  C   UNL     1      -4.255  -7.846   0.176  0.00  0.00    +0.054 C 
ATOM     12  C   UNL     1      -5.540  -8.443  -0.406  0.00  0.00    +0.014 C 
ATOM     13  C   UNL     1      -5.223  -9.658  -1.283  0.00  0.00    +0.080 C 
ATOM     14  C   UNL     1      -4.418  -9.187  -2.486  0.00  0.00    +0.165 C 
ATOM     15  O   UNL     1      -4.631  -9.590  -3.610  0.00  0.00    -0.292 OA
ATOM     16  C   UNL     1      -2.005  -8.115  -4.399  0.00  0.00    +0.047 C 
ENDBRANCH   2   5
BRANCH   1  18
ATOM     17  N   UNL     1       1.983  -3.620  -1.407  0.00  0.00    -0.243 N 
ATOM     18  C   UNL     1       1.286  -4.506  -2.164  0.00  0.00    +0.124 A 
ATOM     19  C   UNL     1       1.890  -4.565  -3.383  0.00  0.00    +0.065 A 
ATOM     20  C   UNL     1       2.981  -3.692  -3.364  0.00  0.00    +0.136 A 
ATOM     21  N   UNL     1       3.034  -3.123  -2.188  0.00  0.00    -0.178 NA
BRANCH  17  22
ATOM     22  C   UNL     1       1.684  -3.245  -0.023  0.00  0.00    +0.219 C 
BRANCH  22  27
ATOM     23  C   UNL     1      -0.018   1.503   0.010  0.00  0.00    +0.086 C 
ATOM     24  C   UNL     1       0.002  -0.004   0.002  0.00  0.00    +0.102 A 
ATOM     25  C   UNL     1      -1.078  -0.805   0.003  0.00  0.00    +0.045 A 
ATOM     26  C   UNL     1      -0.601  -2.136  -0.007  0.00  0.00    +0.047 A 
ATOM     27  C   UNL     1       0.742  -2.069  -0.013  0.00  0.00    +0.127 A 
ATOM     28  O   UNL     1       1.102  -0.775  -0.013  0.00  0.00    -0.463 OA
ENDBRANCH  22  27
ENDBRANCH  17  22
ENDBRANCH   1  18
TORSDOF 4
