REMARK  Name = ZINC37058636
REMARK  4 active torsions:
REMARK  status: ('A' for Active; 'I' for Inactive)
REMARK    1  A    between atoms: C_3  and  N_10
REMARK    2  A    between atoms: C_5  and  N_7
REMARK    3  A    between atoms: N_10  and  C_11
REMARK    4  A    between atoms: C_11  and  C_12
REMARK                            x       y       z     vdW  Elec       q    Type
REMARK                         _______ _______ _______ _____ _____    ______ ____
ROOT
ATOM      1  C   UNL     1      -0.017   1.378   0.010  0.00  0.00    +0.004 A 
ATOM      2  C   UNL     1       1.169   2.087   0.002  0.00  0.00    +0.023 A 
ATOM      3  C   UNL     1       2.381   1.409  -0.013  0.00  0.00    +0.030 A 
ATOM      4  C   UNL     1       2.396   0.020  -0.021  0.00  0.00    +0.055 A 
ATOM      5  C   UNL     1       1.207  -0.682  -0.013  0.00  0.00    +0.128 A 
ATOM      6  C   UNL     1       0.002  -0.004   0.002  0.00  0.00    +0.033 A 
ENDROOT
BRANCH   5   7
ATOM      7  N   UNL     1       1.222  -2.162  -0.021  0.00  0.00    +0.056 N 
ATOM      8  O   UNL     1       2.276  -2.756  -0.035  0.00  0.00    -0.126 OA
ATOM      9  O   UNL     1       0.182  -2.778  -0.015  0.00  0.00    -0.126 OA
ENDBRANCH   5   7
BRANCH   3  10
ATOM     10  N   UNL     1       3.582   2.122  -0.021  0.00  0.00    -0.339 N 
ATOM     11  H   UNL     1       4.428   1.647  -0.032  0.00  0.00    +0.146 HD
BRANCH  10  12
ATOM     12  C   UNL     1       3.564   3.587  -0.014  0.00  0.00    +0.144 C 
BRANCH  12  13
ATOM     13  C   UNL     1       4.979   4.107  -0.025  0.00  0.00    +0.008 A 
ATOM     14  C   UNL     1       5.767   4.411  -1.084  0.00  0.00    +0.014 A 
ATOM     15  C   UNL     1       7.048   4.879  -0.854  0.00  0.00    +0.023 A 
ATOM     16  C   UNL     1       7.477   5.018   0.425  0.00  0.00    +0.055 A 
ATOM     17  S   UNL     1       6.047   4.488   1.354  0.00  0.00    -0.085 S 
ATOM     18 BR   UNL     1       9.152   5.623   1.061  0.00  0.00    -0.043 Br
ENDBRANCH  12  13
ENDBRANCH  10  12
ENDBRANCH   3  10
TORSDOF 4
