REMARK  Name = ZINC41584768
REMARK  4 active torsions:
REMARK  status: ('A' for Active; 'I' for Inactive)
REMARK    1  A    between atoms: C_3  and  C_8
REMARK    2  A    between atoms: C_15  and  O_36
REMARK    3  A    between atoms: C_16  and  C_19
REMARK    4  A    between atoms: C_19  and  N_20
REMARK                            x       y       z     vdW  Elec       q    Type
REMARK                         _______ _______ _______ _____ _____    ______ ____
ROOT
ATOM      1  C   UNL     1       3.651   2.158  -0.022  0.00  0.00    +0.058 C 
ATOM      2  C   UNL     1       4.832   1.498   0.066  0.00  0.00    +0.176 C 
ATOM      3  C   UNL     1       6.166   2.111   0.179  0.00  0.00    +0.231 C 
ATOM      4  O   UNL     1       6.441   3.297   0.214  0.00  0.00    -0.283 OA
ATOM      5  C   UNL     1       7.094   0.967   0.242  0.00  0.00    +0.068 A 
ATOM      6  C   UNL     1       8.482   0.869   0.352  0.00  0.00    +0.019 A 
ATOM      7  C   UNL     1       9.077  -0.360   0.387  0.00  0.00    +0.046 A 
ATOM      8  C   UNL     1       8.302  -1.514   0.313  0.00  0.00    +0.122 A 
ATOM      9  C   UNL     1       6.923  -1.432   0.203  0.00  0.00    +0.020 A 
ATOM     10  C   UNL     1       6.302  -0.190   0.167  0.00  0.00    +0.144 A 
ATOM     11  O   UNL     1       4.999   0.154   0.071  0.00  0.00    -0.451 OA
ENDROOT
BRANCH   1  14
ATOM     12  C   UNL     1       1.210  -0.688  -0.022  0.00  0.00    +0.003 A 
ATOM     13  C   UNL     1       2.399   0.009  -0.035  0.00  0.00    +0.008 A 
ATOM     14  C   UNL     1       2.387   1.408  -0.009  0.00  0.00    -0.019 A 
ATOM     15  C   UNL     1       1.166   2.090   0.031  0.00  0.00    +0.046 A 
ATOM     16  C   UNL     1      -0.017   1.378   0.043  0.00  0.00    +0.124 A 
ATOM     17  C   UNL     1       0.005  -0.009   0.017  0.00  0.00    +0.038 A 
ATOM     18  F   UNL     1      -1.198   2.033   0.081  0.00  0.00    -0.205 F 
ENDBRANCH   1  14
BRANCH   8  19
ATOM     19  O   UNL     1       8.903  -2.731   0.348  0.00  0.00    -0.506 OA
ATOM     20  H   UNL     1       9.006  -3.093   1.239  0.00  0.00    +0.292 HD
ENDBRANCH   8  19
BRANCH   9  21
ATOM     21  C   UNL     1       6.098  -2.690   0.122  0.00  0.00    -0.036 C 
BRANCH  21  22
ATOM     22  N   UNL     1       5.718  -3.114   1.477  0.00  0.00    +0.383 N 
ATOM     23  C   UNL     1       4.811  -4.262   1.391  0.00  0.00    -0.073 C 
ATOM     24  C   UNL     1       4.393  -4.737   2.775  0.00  0.00    -0.007 C 
ATOM     25  C   UNL     1       5.622  -5.074   3.626  0.00  0.00    +0.011 C 
ATOM     26  C   UNL     1       6.507  -3.823   3.669  0.00  0.00    +0.020 C 
ATOM     27  C   UNL     1       6.926  -3.488   2.228  0.00  0.00    -0.069 C 
ATOM     28  C   UNL     1       5.696  -2.663   4.201  0.00  0.00    +0.023 A 
ATOM     29  C   UNL     1       6.364  -1.682   4.864  0.00  0.00    +0.022 A 
ATOM     30  C   UNL     1       5.686  -0.549   5.327  0.00  0.00    +0.007 A 
ATOM     31  C   UNL     1       4.349  -0.433   5.079  0.00  0.00    +0.070 A 
ATOM     32  C   UNL     1       3.692  -1.461   4.388  0.00  0.00    +0.251 A 
ATOM     33  O   UNL     1       2.511  -1.340   4.106  0.00  0.00    -0.268 OA
ATOM     34  N   UNL     1       4.356  -2.588   4.030  0.00  0.00    -0.312 N 
ATOM     35  C   UNL     1       3.562  -3.694   3.503  0.00  0.00    +0.126 C 
ATOM     36  H   UNL     1       5.252  -2.354   1.948  0.00  0.00    -0.081 HD
ENDBRANCH  21  22
ENDBRANCH   9  21
TORSDOF 4
