REMARK  Name = ZINC36545245
REMARK  8 active torsions:
REMARK  status: ('A' for Active; 'I' for Inactive)
REMARK    1  A    between atoms: C_5  and  N_7
REMARK    2  A    between atoms: N_7  and  C_8
REMARK    3  A    between atoms: C_8  and  C_10
REMARK    4  A    between atoms: C_8  and  C_15
REMARK    5  A    between atoms: N_17  and  C_18
REMARK    6  A    between atoms: C_24  and  C_26
REMARK    7  A    between atoms: C_27  and  O_33
REMARK    8  A    between atoms: C_31  and  O_32
REMARK                            x       y       z     vdW  Elec       q    Type
REMARK                         _______ _______ _______ _____ _____    ______ ____
ROOT
ATOM      1  N   UNL     1       1.393  -2.051   0.028  0.00  0.00    -0.247 N 
ATOM      2  C   UNL     1       1.360  -2.759   1.174  0.00  0.00    +0.259 C 
ATOM      3  O   UNL     1       1.218  -2.188   2.239  0.00  0.00    -0.269 OA
ENDROOT
BRANCH   1   8
ATOM      4  C   UNL     1       0.139   1.406   0.010  0.00  0.00    +0.002 A 
ATOM      5  C   UNL     1       1.319   2.114   0.150  0.00  0.00    +0.002 A 
ATOM      6  C   UNL     1       2.524   1.443   0.250  0.00  0.00    +0.022 A 
ATOM      7  C   UNL     1       2.552   0.062   0.210  0.00  0.00    +0.062 A 
ATOM      8  C   UNL     1       1.368  -0.652   0.070  0.00  0.00    +0.056 A 
ATOM      9  C   UNL     1       0.161   0.025  -0.031  0.00  0.00    +0.025 A 
ATOM     10 CL   UNL     1       4.066  -0.780   0.334  0.00  0.00    -0.082 Cl
ENDBRANCH   1   8
BRANCH   2  11
ATOM     11  C   UNL     1       1.495  -4.225   1.138  0.00  0.00    +0.120 A 
ATOM     12  C   UNL     1       2.765  -4.818   1.177  0.00  0.00    +0.133 A 
ATOM     13  C   UNL     1       2.880  -6.198   1.142  0.00  0.00    +0.046 A 
ATOM     14  C   UNL     1       1.749  -6.990   1.070  0.00  0.00    +0.007 A 
ATOM     15  C   UNL     1       0.492  -6.415   1.030  0.00  0.00    +0.046 A 
ATOM     16  C   UNL     1       0.354  -5.038   1.070  0.00  0.00    +0.133 A 
BRANCH  16  17
ATOM     17  O   UNL     1      -0.881  -4.476   1.036  0.00  0.00    -0.506 OA
ATOM     18  H   UNL     1      -1.178  -4.231   0.149  0.00  0.00    +0.292 HD
ENDBRANCH  16  17
BRANCH  12  19
ATOM     19  O   UNL     1       3.876  -4.044   1.248  0.00  0.00    -0.506 OA
ATOM     20  H   UNL     1       4.160  -3.844   2.150  0.00  0.00    +0.292 HD
ENDBRANCH  12  19
ENDBRANCH   2  11
BRANCH   1  21
ATOM     21  C   UNL     1       1.456  -2.744  -1.260  0.00  0.00    +0.233 C 
BRANCH  21  22
ATOM     22  C   UNL     1       2.710  -2.336  -1.990  0.00  0.00    +0.135 A 
ATOM     23  C   UNL     1       3.501  -3.151  -2.711  0.00  0.00    +0.047 A 
ATOM     24  C   UNL     1       4.556  -2.357  -3.215  0.00  0.00    +0.041 A 
ATOM     25  C   UNL     1       4.346  -1.104  -2.773  0.00  0.00    +0.195 A 
ATOM     26  O   UNL     1       3.223  -1.096  -2.037  0.00  0.00    -0.465 OA
ENDBRANCH  21  22
BRANCH  21  27
ATOM     27  C   UNL     1       0.251  -2.377  -2.088  0.00  0.00    +0.242 C 
ATOM     28  O   UNL     1      -0.578  -1.612  -1.645  0.00  0.00    -0.273 OA
ATOM     29  N   UNL     1       0.095  -2.900  -3.320  0.00  0.00    -0.311 N 
ATOM     30  H   UNL     1       0.759  -3.513  -3.675  0.00  0.00    +0.149 HD
BRANCH  29  31
ATOM     31  C   UNL     1      -1.076  -2.543  -4.124  0.00  0.00    +0.073 C 
ATOM     32  C   UNL     1      -2.248  -3.453  -3.750  0.00  0.00    +0.022 C 
ATOM     33  C   UNL     1      -3.471  -3.080  -4.590  0.00  0.00    +0.002 C 
ATOM     34  C   UNL     1      -3.143  -3.255  -6.074  0.00  0.00    +0.000 C 
ATOM     35  C   UNL     1      -1.972  -2.346  -6.449  0.00  0.00    +0.002 C 
ATOM     36  C   UNL     1      -0.748  -2.719  -5.609  0.00  0.00    +0.022 C 
ENDBRANCH  29  31
ENDBRANCH  21  27
ENDBRANCH   1  21
TORSDOF 8
