REMARK  Name = ZINC39855911
REMARK  6 active torsions:
REMARK  status: ('A' for Active; 'I' for Inactive)
REMARK    1  A    between atoms: C_1  and  C_2
REMARK    2  A    between atoms: C_6  and  C_7
REMARK    3  A    between atoms: C_12  and  C_15
REMARK    4  A    between atoms: C_17  and  C_25
REMARK    5  A    between atoms: C_17  and  C_26
REMARK    6  A    between atoms: N_20  and  N_21
REMARK                            x       y       z     vdW  Elec       q    Type
REMARK                         _______ _______ _______ _____ _____    ______ ____
ROOT
ATOM      1  C   UNL     1       0.545   1.438   0.014  0.00  0.00    +0.048 C 
ATOM      2  C   UNL     1       0.194  -0.028   0.004  0.00  0.00    +0.009 A 
ATOM      3  C   UNL     1       0.037  -0.846  -1.121  0.00  0.00    +0.043 A 
ATOM      4  C   UNL     1      -0.282  -2.106  -0.674  0.00  0.00    +0.116 A 
ATOM      5  O   UNL     1      -0.318  -2.074   0.656  0.00  0.00    -0.454 OA
ATOM      6  C   UNL     1      -0.029  -0.826   1.091  0.00  0.00    +0.193 A 
ATOM      7  C   UNL     1      -0.534  -3.267  -1.602  0.00  0.00    +0.081 C 
ATOM      8  C   UNL     1      -0.887  -2.738  -2.995  0.00  0.00    -0.023 C 
ATOM      9  C   UNL     1       0.179  -1.751  -3.484  0.00  0.00    +0.064 C 
ATOM     10  C   UNL     1       0.163  -0.539  -2.564  0.00  0.00    +0.073 C 
ATOM     11  N   UNL     1       0.254   0.675  -3.011  0.00  0.00    -0.175 NA
ATOM     12  C   UNL     1      -0.975  -3.911  -3.973  0.00  0.00    +0.011 C 
ATOM     13  C   UNL     1      -2.242  -2.029  -2.937  0.00  0.00    +0.011 C 
ENDROOT
BRANCH   6  14
ATOM     14  C   UNL     1       0.032  -0.400   2.494  0.00  0.00    +0.282 C 
ATOM     15  O   UNL     1       0.154   0.780   2.766  0.00  0.00    -0.267 OA
ATOM     16  N   UNL     1      -0.048  -1.315   3.480  0.00  0.00    -0.295 N 
ATOM     17  C   UNL     1      -0.026  -2.751   3.172  0.00  0.00    +0.108 C 
ATOM     18  C   UNL     1       1.078  -3.416   3.999  0.00  0.00    +0.022 C 
ATOM     19  C   UNL     1       0.866  -3.094   5.480  0.00  0.00    -0.011 C 
ATOM     20  C   UNL     1       0.949  -1.580   5.691  0.00  0.00    +0.022 C 
ATOM     21  C   UNL     1      -0.151  -0.894   4.884  0.00  0.00    +0.108 C 
ATOM     22  C   UNL     1       1.947  -3.785   6.313  0.00  0.00    +0.007 C 
ENDBRANCH   6  14
BRANCH  11  23
ATOM     23  N   UNL     1       0.372   0.907  -4.388  0.00  0.00    -0.248 N 
ATOM     24  C   UNL     1       0.468   2.189  -4.860  0.00  0.00    +0.187 C 
ATOM     25  N   UNL     1       0.580   2.410  -6.170  0.00  0.00    -0.370 N 
ATOM     26  N   UNL     1       0.449   3.215  -4.010  0.00  0.00    -0.370 N 
ATOM     27  H   UNL     1       0.386   0.160  -5.006  0.00  0.00    +0.192 HD
ATOM     28  H   UNL     1       0.594   1.663  -6.788  0.00  0.00    +0.159 HD
ATOM     29  H   UNL     1       0.367   3.054  -3.057  0.00  0.00    +0.159 HD
ATOM     30  H   UNL     1       0.517   4.123  -4.345  0.00  0.00    +0.159 HD
ATOM     31  H   UNL     1       0.648   3.318  -6.504  0.00  0.00    +0.159 HD
ENDBRANCH  11  23
TORSDOF 2
