REMARK  Name = ZINC08339031
REMARK  5 active torsions:
REMARK  status: ('A' for Active; 'I' for Inactive)
REMARK    1  A    between atoms: C_1  and  C_2
REMARK    2  A    between atoms: C_2  and  C_4
REMARK    3  A    between atoms: C_2  and  N_51
REMARK    4  A    between atoms: N_6  and  C_7
REMARK    5  A    between atoms: C_8  and  C_15
REMARK                            x       y       z     vdW  Elec       q    Type
REMARK                         _______ _______ _______ _____ _____    ______ ____
ROOT
ATOM      1  C   UNL     1       0.072   1.228   2.494  0.00  0.00    +0.204 C 
ATOM      2  O   UNL     1      -0.400   0.492   3.336  0.00  0.00    -0.277 OA
ATOM      3  N   UNL     1       1.312   1.730   2.657  0.00  0.00    -0.281 N 
ATOM      4  H   UNL     1       1.689   2.318   1.984  0.00  0.00    +0.155 HD
ENDROOT
BRANCH   3   5
ATOM      5  C   UNL     1       2.048   1.406   3.786  0.00  0.00    +0.084 A 
ATOM      6  C   UNL     1       3.327   1.814   4.125  0.00  0.00    +0.068 A 
ATOM      7  C   UNL     1       3.880   1.328   5.389  0.00  0.00    -0.023 A 
ATOM      8  C   UNL     1       3.071   0.514   6.091  0.00  0.00    -0.004 A 
ATOM      9  S   UNL     1       1.595   0.388   5.111  0.00  0.00    -0.077 S 
ATOM     10  C   UNL     1       3.709   0.053   7.373  0.00  0.00    +0.043 C 
ATOM     11  C   UNL     1       4.879   1.036   7.601  0.00  0.00    +0.010 C 
ATOM     12  C   UNL     1       5.189   1.494   6.162  0.00  0.00    +0.037 C 
BRANCH   6  13
ATOM     13  C   UNL     1       4.097   2.704   3.252  0.00  0.00    +0.244 C 
ATOM     14  O   UNL     1       4.018   3.911   3.390  0.00  0.00    -0.270 OA
ATOM     15  N   UNL     1       4.893   2.187   2.295  0.00  0.00    -0.325 N 
ATOM     16  H   UNL     1       4.957   1.225   2.185  0.00  0.00    +0.145 HD
ATOM     17  H   UNL     1       5.403   2.776   1.717  0.00  0.00    +0.145 HD
ENDBRANCH   6  13
ENDBRANCH   3   5
BRANCH   1  19
ATOM     18  C   UNL     1      -0.296   0.686   0.102  0.00  0.00    -0.004 C 
ATOM     19  C   UNL     1      -0.729   1.579   1.267  0.00  0.00    +0.016 C 
BRANCH  19  27
ATOM     20  C   UNL     1      -2.478  -0.059   1.606  0.00  0.00    -0.078 C 
ATOM     21  C   UNL     1      -3.886  -0.256   2.165  0.00  0.00    -0.019 C 
ATOM     22  C   UNL     1      -4.915   0.055   1.073  0.00  0.00    -0.002 C 
ATOM     23  C   UNL     1      -4.987   1.572   0.880  0.00  0.00    -0.000 C 
ATOM     24  C   UNL     1      -5.002   2.257   2.247  0.00  0.00    -0.002 C 
ATOM     25  C   UNL     1      -3.705   3.041   2.443  0.00  0.00    -0.019 C 
ATOM     26  C   UNL     1      -2.567   2.067   2.767  0.00  0.00    -0.078 C 
ATOM     27  N   UNL     1      -2.172   1.383   1.515  0.00  0.00    +0.387 N 
ATOM     28  H   UNL     1      -2.703   1.787   0.734  0.00  0.00    -0.081 HD
ENDBRANCH  19  27
ENDBRANCH   1  19
TORSDOF 4
