REMARK  Name = ZINC01045077
REMARK  9 active torsions:
REMARK  status: ('A' for Active; 'I' for Inactive)
REMARK    1  A    between atoms: C_1  and  C_2
REMARK    2  A    between atoms: C_5  and  C_8
REMARK    3  A    between atoms: C_8  and  C_10
REMARK    4  A    between atoms: C_10  and  C_11
REMARK    5  A    between atoms: C_11  and  C_13
REMARK    6  A    between atoms: C_11  and  S_22
REMARK    7  A    between atoms: C_16  and  N_19
REMARK    8  A    between atoms: S_22  and  C_23
REMARK    9  A    between atoms: C_28  and  N_29
REMARK                            x       y       z     vdW  Elec       q    Type
REMARK                         _______ _______ _______ _____ _____    ______ ____
ROOT
ATOM      1  C   UNL     1       1.722  -0.558   0.040  0.00  0.00    +0.089 C 
ENDROOT
BRANCH   1   2
ATOM      2  C   UNL     1       1.900  -2.029  -0.235  0.00  0.00    -0.034 A 
ATOM      3  C   UNL     1       1.368  -2.964   0.634  0.00  0.00    +0.007 A 
ATOM      4  C   UNL     1       1.527  -4.313   0.379  0.00  0.00    +0.033 A 
ATOM      5  C   UNL     1       2.227  -4.728  -0.739  0.00  0.00    +0.126 A 
ATOM      6  C   UNL     1       2.764  -3.793  -1.604  0.00  0.00    +0.033 A 
ATOM      7  C   UNL     1       2.600  -2.444  -1.352  0.00  0.00    +0.007 A 
BRANCH   5   8
ATOM      8  N   UNL     1       2.401  -6.173  -1.008  0.00  0.00    +0.056 N 
ATOM      9  O   UNL     1       3.018  -6.538  -1.993  0.00  0.00    -0.126 OA
ATOM     10  O   UNL     1       1.928  -6.996  -0.246  0.00  0.00    -0.126 OA
ENDBRANCH   5   8
ENDBRANCH   1   2
BRANCH   1  11
ATOM     11  C   UNL     1       2.348  -0.213   1.393  0.00  0.00    +0.098 C 
BRANCH  11  12
ATOM     12  C   UNL     1       2.294   1.278   1.605  0.00  0.00    +0.165 C 
ATOM     13  O   UNL     1       1.892   2.003   0.719  0.00  0.00    -0.292 OA
BRANCH  12  18
ATOM     14  C   UNL     1       3.992   3.532   6.613  0.00  0.00    +0.044 C 
ATOM     15  C   UNL     1       3.547   2.941   5.300  0.00  0.00    -0.050 A 
ATOM     16  C   UNL     1       3.089   3.772   4.292  0.00  0.00    +0.004 A 
ATOM     17  C   UNL     1       2.680   3.239   3.088  0.00  0.00    +0.011 A 
ATOM     18  C   UNL     1       2.729   1.855   2.887  0.00  0.00    +0.017 A 
ATOM     19  C   UNL     1       3.188   1.023   3.913  0.00  0.00    +0.011 A 
ATOM     20  C   UNL     1       3.599   1.572   5.109  0.00  0.00    +0.004 A 
ENDBRANCH  12  18
ENDBRANCH  11  12
ENDBRANCH   1  11
BRANCH   1  21
ATOM     21  S   UNL     1      -0.047  -0.159   0.074  0.00  0.00    -0.115 S 
BRANCH  21  22
ATOM     22  C   UNL     1      -0.558  -0.344  -1.603  0.00  0.00    +0.029 A 
ATOM     23  C   UNL     1       0.380  -0.603  -2.591  0.00  0.00    +0.016 A 
ATOM     24  C   UNL     1      -0.023  -0.748  -3.906  0.00  0.00    +0.001 A 
ATOM     25  C   UNL     1      -1.360  -0.636  -4.239  0.00  0.00    +0.002 A 
ATOM     26  C   UNL     1      -2.302  -0.379  -3.261  0.00  0.00    +0.024 A 
ATOM     27  C   UNL     1      -1.908  -0.237  -1.939  0.00  0.00    +0.038 A 
BRANCH  27  28
ATOM     28  N   UNL     1      -2.861   0.018  -0.945  0.00  0.00    -0.357 N 
ATOM     29  H   UNL     1      -2.583   0.120  -0.022  0.00  0.00    +0.142 HD
ATOM     30  H   UNL     1      -3.799   0.092  -1.181  0.00  0.00    +0.142 HD
ENDBRANCH  27  28
ENDBRANCH  21  22
ENDBRANCH   1  21
TORSDOF 8
