REMARK  Name = ZINC22079042
REMARK  6 active torsions:
REMARK  status: ('A' for Active; 'I' for Inactive)
REMARK    1  A    between atoms: C_1  and  C_2
REMARK    2  A    between atoms: C_2  and  N_4
REMARK    3  A    between atoms: C_10  and  C_11
REMARK    4  A    between atoms: C_16  and  O_17
REMARK    5  A    between atoms: O_17  and  C_18
REMARK    6  A    between atoms: C_18  and  C_19
REMARK                            x       y       z     vdW  Elec       q    Type
REMARK                         _______ _______ _______ _____ _____    ______ ____
ROOT
ATOM      1  C   UNL     1      -3.464  -6.377  -0.565  0.00  0.00    +0.019 A 
ATOM      2  C   UNL     1      -4.415  -5.350  -0.511  0.00  0.00    +0.031 A 
ATOM      3  C   UNL     1      -5.752  -5.644  -0.668  0.00  0.00    +0.042 A 
ATOM      4  C   UNL     1      -6.161  -6.953  -0.876  0.00  0.00    +0.023 A 
ATOM      5  C   UNL     1      -5.234  -7.975  -0.931  0.00  0.00    +0.048 A 
ATOM      6  C   UNL     1      -3.884  -7.699  -0.782  0.00  0.00    +0.128 A 
ATOM      7 CL   UNL     1      -6.931  -4.371  -0.602  0.00  0.00    -0.084 Cl
ENDROOT
BRANCH   1  14
ATOM      8  N   UNL     1      -1.248  -0.968  -1.453  0.00  0.00    -0.159 NA
ATOM      9  C   UNL     1      -1.206  -2.253  -1.120  0.00  0.00    +0.158 C 
ATOM     10  N   UNL     1      -0.136  -2.952  -0.645  0.00  0.00    -0.262 N 
ATOM     11  C   UNL     1      -0.245  -4.241  -0.353  0.00  0.00    +0.256 C 
ATOM     12  O   UNL     1       0.683  -4.902   0.073  0.00  0.00    -0.269 OA
ATOM     13  C   UNL     1      -1.588  -4.805  -0.590  0.00  0.00    +0.078 C 
ATOM     14  C   UNL     1      -2.038  -6.072  -0.400  0.00  0.00    +0.032 C 
ATOM     15  S   UNL     1      -2.462  -3.368  -1.187  0.00  0.00    -0.051 S 
ATOM     16  H   UNL     1       0.714  -2.502  -0.519  0.00  0.00    +0.157 HD
BRANCH   8  18
ATOM     17  C   UNL     1      -0.175   1.206  -1.861  0.00  0.00    +0.111 C 
ATOM     18  C   UNL     1      -0.129  -0.248  -1.470  0.00  0.00    +0.235 C 
ATOM     19  O   UNL     1       0.930  -0.764  -1.170  0.00  0.00    -0.274 OA
ENDBRANCH   8  18
ENDBRANCH   1  14
BRANCH   6  20
ATOM     20  O   UNL     1      -2.972  -8.703  -0.841  0.00  0.00    -0.487 OA
BRANCH  20  21
ATOM     21  C   UNL     1      -3.474 -10.022  -1.065  0.00  0.00    +0.268 C 
BRANCH  21  22
ATOM     22  C   UNL     1      -2.325 -10.997  -1.099  0.00  0.00    +0.043 A 
ATOM     23  C   UNL     1      -1.690 -11.279  -2.297  0.00  0.00    +0.131 A 
ATOM     24  C   UNL     1      -0.635 -12.174  -2.327  0.00  0.00    +0.039 A 
ATOM     25  C   UNL     1      -0.215 -12.787  -1.161  0.00  0.00    +0.004 A 
ATOM     26  C   UNL     1      -0.848 -12.506   0.035  0.00  0.00    +0.020 A 
ATOM     27  C   UNL     1      -1.900 -11.607   0.067  0.00  0.00    +0.050 A 
ATOM     28 CL   UNL     1      -2.689 -11.249   1.571  0.00  0.00    -0.083 Cl
ATOM     29  F   UNL     1      -2.102 -10.680  -3.436  0.00  0.00    -0.205 F 
ENDBRANCH  21  22
ENDBRANCH  20  21
ENDBRANCH   6  20
TORSDOF 5
