REMARK  Name = ZINC64055087
REMARK  11 active torsions:
REMARK  status: ('A' for Active; 'I' for Inactive)
REMARK    1  A    between atoms: C_1  and  C_2
REMARK    2  A    between atoms: C_2  and  C_3
REMARK    3  A    between atoms: C_3  and  N_4
REMARK    4  A    between atoms: N_4  and  C_5
REMARK    5  A    between atoms: C_5  and  C_6
REMARK    6  A    between atoms: C_9  and  C_11
REMARK    7  A    between atoms: C_11  and  S_12
REMARK    8  A    between atoms: S_12  and  C_13
REMARK    9  A    between atoms: C_17  and  C_26
REMARK   10  A    between atoms: N_18  and  C_19
REMARK   11  A    between atoms: C_19  and  C_20
REMARK                            x       y       z     vdW  Elec       q    Type
REMARK                         _______ _______ _______ _____ _____    ______ ____
ROOT
ATOM      1  C   UNL     1      -1.395  -2.190  -5.475  0.00  0.00    +0.237 C 
ATOM      2  N   UNL     1      -2.627  -1.391  -5.577  0.00  0.00    -0.237 N 
ATOM      3  N   UNL     1      -2.263  -0.064  -5.317  0.00  0.00    -0.169 NA
ATOM      4  C   UNL     1      -0.983   0.038  -5.075  0.00  0.00    +0.147 C 
ATOM      5  N   UNL     1      -0.349  -1.208  -5.146  0.00  0.00    -0.283 N 
ATOM      6  H   UNL     1      -3.516  -1.719  -5.783  0.00  0.00    +0.171 HD
ENDROOT
BRANCH   4   7
ATOM      7  C   UNL     1      -0.328   1.244  -4.782  0.00  0.00    +0.022 C 
ATOM      8  C   UNL     1      -0.909   2.500  -4.608  0.00  0.00    +0.006 A 
ATOM      9  C   UNL     1      -2.247   2.947  -4.663  0.00  0.00    +0.010 A 
ATOM     10  C   UNL     1      -2.528   4.258  -4.448  0.00  0.00    +0.001 A 
ATOM     11  C   UNL     1      -1.522   5.186  -4.170  0.00  0.00    +0.002 A 
ATOM     12  C   UNL     1      -0.217   4.827  -4.102  0.00  0.00    +0.026 A 
ATOM     13  C   UNL     1       0.155   3.474  -4.316  0.00  0.00    +0.043 A 
ATOM     14  N   UNL     1       1.333   2.881  -4.304  0.00  0.00    -0.380 N 
ATOM     15  C   UNL     1       1.157   1.452  -4.582  0.00  0.00    +0.152 C 
ATOM     16  H   UNL     1       2.181   3.320  -4.134  0.00  0.00    +0.160 HD
ENDBRANCH   4   7
BRANCH   1  17
ATOM     17  S   UNL     1      -1.546  -3.423  -4.153  0.00  0.00    -0.109 S 
BRANCH  17  18
ATOM     18  C   UNL     1      -1.925  -2.439  -2.677  0.00  0.00    +0.168 C 
BRANCH  18  20
ATOM     19  N   UNL     1      -2.364  -2.841  -0.276  0.00  0.00    -0.301 N 
ATOM     20  C   UNL     1      -2.078  -3.354  -1.489  0.00  0.00    +0.226 C 
ATOM     21  O   UNL     1      -1.944  -4.552  -1.625  0.00  0.00    -0.275 OA
BRANCH  19  22
ATOM     22  C   UNL     1      -2.526  -1.395  -0.112  0.00  0.00    +0.107 C 
BRANCH  22  24
ATOM     23  C   UNL     1      -1.342   0.746   0.396  0.00  0.00    +0.005 C 
ATOM     24  C   UNL     1      -1.172  -0.765   0.224  0.00  0.00    +0.016 C 
ENDBRANCH  22  24
ENDBRANCH  19  22
BRANCH  19  25
ATOM     25  C   UNL     1      -2.512  -3.731   0.879  0.00  0.00    +0.111 C 
BRANCH  25  26
ATOM     26  C   UNL     1      -3.974  -4.167   1.002  0.00  0.00    +0.006 C 
ATOM     27  C   UNL     1      -4.736  -3.735   2.257  0.00  0.00    +0.005 C 
ATOM     28  C   UNL     1      -4.315  -5.196   2.082  0.00  0.00    +0.005 C 
ENDBRANCH  25  26
ENDBRANCH  19  25
ENDBRANCH  18  20
ENDBRANCH  17  18
ENDBRANCH   1  17
BRANCH   5  29
ATOM     29  C   UNL     1       1.075  -1.482  -4.936  0.00  0.00    +0.140 C 
BRANCH  29  30
ATOM     30  C   UNL     1       1.348  -1.637  -3.438  0.00  0.00    +0.136 C 
ATOM     31  C   UNL     1       2.865  -1.793  -3.196  0.00  0.00    +0.035 C 
ATOM     32  C   UNL     1       2.911  -2.861  -2.069  0.00  0.00    +0.031 C 
ATOM     33  C   UNL     1       1.693  -3.740  -2.447  0.00  0.00    +0.160 C 
ATOM     34  O   UNL     1       0.706  -2.820  -2.947  0.00  0.00    -0.375 OA
ENDBRANCH  29  30
ENDBRANCH   5  29
TORSDOF 10
