REMARK  Name = ZINC09119970
REMARK  7 active torsions:
REMARK  status: ('A' for Active; 'I' for Inactive)
REMARK    1  A    between atoms: C_4  and  C_7
REMARK    2  A    between atoms: C_7  and  C_9
REMARK    3  A    between atoms: C_7  and  N_51
REMARK    4  A    between atoms: N_11  and  C_12
REMARK    5  A    between atoms: C_15  and  N_19
REMARK    6  A    between atoms: C_22  and  C_23
REMARK    7  A    between atoms: C_22  and  N_51
REMARK                            x       y       z     vdW  Elec       q    Type
REMARK                         _______ _______ _______ _____ _____    ______ ____
ROOT
ATOM      1  C   UNL     1       0.003   9.403   0.368  0.00  0.00    +0.047 C 
ENDROOT
BRANCH   1   5
ATOM      2  C   UNL     1       2.276   9.875  -3.219  0.00  0.00    +0.000 A 
ATOM      3  C   UNL     1       1.143  10.640  -3.012  0.00  0.00    +0.000 A 
ATOM      4  C   UNL     1       0.408  10.488  -1.852  0.00  0.00    +0.002 A 
ATOM      5  C   UNL     1       0.805   9.569  -0.897  0.00  0.00    -0.053 A 
ATOM      6  C   UNL     1       1.940   8.808  -1.101  0.00  0.00    +0.002 A 
ATOM      7  C   UNL     1       2.673   8.957  -2.264  0.00  0.00    +0.000 A 
ENDBRANCH   1   5
BRANCH   1   8
ATOM      8  C   UNL     1       0.672  10.157   1.489  0.00  0.00    +0.207 C 
ATOM      9  O   UNL     1       1.046   9.565   2.479  0.00  0.00    -0.277 OA
ATOM     10  N   UNL     1       0.853  11.489   1.391  0.00  0.00    -0.285 N 
ATOM     11  H   UNL     1       0.613  11.953   0.573  0.00  0.00    +0.155 HD
BRANCH  10  12
ATOM     12  C   UNL     1       1.388  12.204   2.469  0.00  0.00    +0.052 A 
ATOM     13  C   UNL     1       2.349  11.619   3.283  0.00  0.00    +0.027 A 
ATOM     14  C   UNL     1       2.875  12.327   4.346  0.00  0.00    +0.034 A 
ATOM     15  C   UNL     1       2.446  13.617   4.601  0.00  0.00    +0.128 A 
ATOM     16  C   UNL     1       1.490  14.203   3.792  0.00  0.00    +0.054 A 
ATOM     17  C   UNL     1       0.963  13.502   2.723  0.00  0.00    +0.064 A 
ATOM     18 CL   UNL     1      -0.233  14.241   1.704  0.00  0.00    -0.082 Cl
BRANCH  15  19
ATOM     19  N   UNL     1       3.013  14.372   5.741  0.00  0.00    +0.056 N 
ATOM     20  O   UNL     1       3.856  13.857   6.453  0.00  0.00    -0.126 OA
ATOM     21  O   UNL     1       2.636  15.508   5.966  0.00  0.00    -0.126 OA
ENDBRANCH  15  19
ENDBRANCH  10  12
ENDBRANCH   1   8
BRANCH   1  22
ATOM     22  N   UNL     1      -0.068   7.973   0.721  0.00  0.00    +0.392 N 
ATOM     23  H   UNL     1      -0.218   7.881   1.733  0.00  0.00    -0.084 HD
ATOM     24  H   UNL     1       0.815   7.516   0.464  0.00  0.00    -0.084 HD
BRANCH  22  25
ATOM     25  C   UNL     1      -1.180   7.323   0.003  0.00  0.00    -0.032 C 
BRANCH  25  26
ATOM     26  C   UNL     1      -1.229   5.843   0.389  0.00  0.00    +0.194 C 
ATOM     27  C   UNL     1      -2.382   5.153  -0.352  0.00  0.00    +0.271 C 
ATOM     28  O   UNL     1      -2.391   3.770   0.021  0.00  0.00    -0.485 OA
ATOM     29  C   UNL     1      -1.191   3.127   0.010  0.00  0.00    +0.162 A 
ATOM     30  C   UNL     1      -1.163   1.740  -0.004  0.00  0.00    +0.049 A 
ATOM     31  C   UNL     1       0.047   1.073  -0.006  0.00  0.00    +0.004 A 
ATOM     32  C   UNL     1       1.232   1.785  -0.006  0.00  0.00    +0.004 A 
ATOM     33  C   UNL     1       1.211   3.167   0.002  0.00  0.00    +0.049 A 
ATOM     34  C   UNL     1      -0.000   3.843   0.008  0.00  0.00    +0.162 A 
ATOM     35  O   UNL     1      -0.005   5.204   0.008  0.00  0.00    -0.484 OA
ENDBRANCH  25  26
ENDBRANCH  22  25
ENDBRANCH   1  22
TORSDOF 7
