REMARK  Name = ZINC64623114
REMARK  7 active torsions:
REMARK  status: ('A' for Active; 'I' for Inactive)
REMARK    1  A    between atoms: C_1  and  O_2
REMARK    2  A    between atoms: O_2  and  C_3
REMARK    3  A    between atoms: C_6  and  C_9
REMARK    4  A    between atoms: N_27  and  C_28
REMARK    5  A    between atoms: C_33  and  C_34
REMARK    6  A    between atoms: C_34  and  O_36
REMARK    7  A    between atoms: O_36  and  C_37
REMARK                            x       y       z     vdW  Elec       q    Type
REMARK                         _______ _______ _______ _____ _____    ______ ____
ROOT
ATOM      1  C   UNL     1       2.498  -2.521  -4.378  0.00  0.00    +0.134 C 
ATOM      2  C   UNL     1       1.447  -3.103  -5.329  0.00  0.00    +0.131 C 
ATOM      3  C   UNL     1       0.838  -4.306  -4.621  0.00  0.00    -0.035 C 
ATOM      4  C   UNL     1      -0.472  -4.092  -4.576  0.00  0.00    +0.001 A 
ATOM      5  C   UNL     1      -1.583  -4.922  -4.082  0.00  0.00    +0.030 A 
ATOM      6  C   UNL     1      -2.826  -4.379  -4.181  0.00  0.00    +0.042 A 
ATOM      7  C   UNL     1      -3.071  -3.109  -4.715  0.00  0.00    +0.022 A 
ATOM      8  C   UNL     1      -2.109  -2.281  -5.196  0.00  0.00    +0.027 A 
ATOM      9  C   UNL     1      -0.762  -2.744  -5.151  0.00  0.00    +0.043 A 
ATOM     10  N   UNL     1       0.350  -2.163  -5.568  0.00  0.00    -0.375 N 
ATOM     11 CL   UNL     1      -4.178  -5.309  -3.615  0.00  0.00    -0.084 Cl
ATOM     12  C   UNL     1       1.679  -5.423  -4.053  0.00  0.00    +0.052 C 
ATOM     13  C   UNL     1       2.765  -4.761  -3.184  0.00  0.00    +0.114 C 
ATOM     14  N   UNL     1       3.348  -3.628  -3.912  0.00  0.00    -0.276 N 
ATOM     15  C   UNL     1       4.673  -3.601  -4.157  0.00  0.00    +0.307 C 
ATOM     16  O   UNL     1       5.176  -2.623  -4.675  0.00  0.00    -0.252 OA
ATOM     17  N   UNL     1       5.441  -4.659  -3.828  0.00  0.00    -0.269 N 
ATOM     18  H   UNL     1       5.031  -5.465  -3.477  0.00  0.00    +0.156 HD
ATOM     19  H   UNL     1       0.435  -1.278  -5.955  0.00  0.00    +0.160 HD
ENDROOT
BRANCH   1  23
ATOM     20  C   UNL     1       0.568  -0.676  -1.041  0.00  0.00    +0.120 A 
ATOM     21  C   UNL     1       0.399  -2.033  -1.279  0.00  0.00    +0.046 A 
ATOM     22  C   UNL     1       1.024  -2.627  -2.358  0.00  0.00    +0.009 A 
ATOM     23  C   UNL     1       1.817  -1.871  -3.201  0.00  0.00    -0.024 A 
ATOM     24  C   UNL     1       1.988  -0.519  -2.966  0.00  0.00    +0.009 A 
ATOM     25  C   UNL     1       1.360   0.081  -1.891  0.00  0.00    +0.046 A 
BRANCH  20  27
ATOM     26  C   UNL     1      -0.846  -0.931   0.853  0.00  0.00    +0.277 C 
ATOM     27  O   UNL     1      -0.046  -0.090   0.020  0.00  0.00    -0.495 OA
ENDBRANCH  20  27
ENDBRANCH   1  23
BRANCH  17  28
ATOM     28  C   UNL     1       6.822  -4.593  -3.990  0.00  0.00    +0.049 A 
ATOM     29  C   UNL     1       7.366  -3.905  -5.066  0.00  0.00    +0.024 A 
ATOM     30  C   UNL     1       8.736  -3.842  -5.226  0.00  0.00    +0.002 A 
ATOM     31  C   UNL     1       9.578  -4.463  -4.317  0.00  0.00    +0.001 A 
ATOM     32  C   UNL     1       9.056  -5.150  -3.243  0.00  0.00    +0.017 A 
ATOM     33  C   UNL     1       7.672  -5.218  -3.065  0.00  0.00    +0.080 A 
BRANCH  33  34
ATOM     34  C   UNL     1       7.107  -5.947  -1.915  0.00  0.00    +0.341 C 
ATOM     35  O   UNL     1       5.904  -6.081  -1.812  0.00  0.00    -0.245 OA
BRANCH  34  36
ATOM     36  O   UNL     1       7.926  -6.465  -0.978  0.00  0.00    -0.464 OA
ATOM     37  C   UNL     1       7.310  -7.159   0.109  0.00  0.00    +0.280 C 
ENDBRANCH  34  36
ENDBRANCH  33  34
ENDBRANCH  17  28
TORSDOF 5
