REMARK  Name = ZINC02146702
REMARK  8 active torsions:
REMARK  status: ('A' for Active; 'I' for Inactive)
REMARK    1  A    between atoms: C_1  and  N_56
REMARK    2  A    between atoms: C_8  and  O_31
REMARK    3  A    between atoms: C_10  and  C_12
REMARK    4  A    between atoms: C_12  and  C_13
REMARK    5  A    between atoms: C_13  and  C_15
REMARK    6  A    between atoms: C_18  and  C_20
REMARK    7  A    between atoms: C_22  and  C_27
REMARK    8  A    between atoms: O_31  and  C_32
REMARK                            x       y       z     vdW  Elec       q    Type
REMARK                         _______ _______ _______ _____ _____    ______ ____
ROOT
ATOM      1  C   UNL     1      -3.159   1.471   0.893  0.00  0.00    +0.072 C 
ENDROOT
BRANCH   1  11
ATOM      2  C   UNL     1      -5.151   2.749  -0.795  0.00  0.00    -0.095 C 
ATOM      3  C   UNL     1      -3.930   4.833  -0.592  0.00  0.00    -0.074 C 
ATOM      4  C   UNL     1      -3.211   5.699   0.442  0.00  0.00    +0.017 C 
ATOM      5  C   UNL     1      -2.021   4.958   0.997  0.00  0.00    -0.040 A 
ATOM      6  C   UNL     1      -1.049   5.682   1.672  0.00  0.00    +0.053 A 
ATOM      7  C   UNL     1       0.059   5.046   2.205  0.00  0.00    +0.170 A 
ATOM      8  C   UNL     1       0.195   3.668   2.065  0.00  0.00    +0.208 A 
ATOM      9  C   UNL     1      -0.774   2.948   1.383  0.00  0.00    +0.167 A 
ATOM     10  C   UNL     1      -1.886   3.594   0.850  0.00  0.00    -0.012 A 
ATOM     11  C   UNL     1      -2.912   2.768   0.120  0.00  0.00    -0.026 C 
ATOM     12  O   UNL     1       1.354   3.280   2.676  0.00  0.00    -0.449 OA
ATOM     13  C   UNL     1       1.714   4.370   3.545  0.00  0.00    +0.467 C 
ATOM     14  O   UNL     1       1.132   5.523   2.900  0.00  0.00    -0.452 OA
ATOM     15  N   UNL     1      -4.178   3.512   0.020  0.00  0.00    +0.383 N 
ATOM     16  H   UNL     1      -4.564   3.646   0.962  0.00  0.00    -0.081 HD
BRANCH   9  17
ATOM     17  O   UNL     1      -0.640   1.603   1.238  0.00  0.00    -0.491 OA
ATOM     18  C   UNL     1       0.051   1.140   0.076  0.00  0.00    +0.277 C 
ENDBRANCH   9  17
ENDBRANCH   1  11
BRANCH   1  19
ATOM     19  C   UNL     1      -3.521   1.797   2.319  0.00  0.00    +0.197 C 
ATOM     20  O   UNL     1      -3.672   2.953   2.658  0.00  0.00    -0.289 OA
BRANCH  19  21
ATOM     21  C   UNL     1      -3.686   0.759   3.260  0.00  0.00    +0.171 A 
ATOM     22  C   UNL     1      -4.016   0.918   4.594  0.00  0.00    +0.053 A 
ATOM     23  C   UNL     1      -4.073  -0.361   5.151  0.00  0.00    +0.050 A 
ATOM     24  C   UNL     1      -3.778  -1.253   4.143  0.00  0.00    +0.137 A 
ATOM     25  O   UNL     1      -3.553  -0.562   3.013  0.00  0.00    -0.452 OA
BRANCH  24  26
ATOM     26  C   UNL     1      -3.724  -2.721   4.281  0.00  0.00    +0.036 A 
ATOM     27  C   UNL     1      -4.412  -3.537   3.379  0.00  0.00    +0.025 A 
ATOM     28  C   UNL     1      -4.357  -4.908   3.514  0.00  0.00    +0.056 A 
ATOM     29  C   UNL     1      -3.623  -5.478   4.539  0.00  0.00    +0.014 A 
ATOM     30  C   UNL     1      -2.939  -4.678   5.437  0.00  0.00    +0.021 A 
ATOM     31  C   UNL     1      -2.979  -3.303   5.311  0.00  0.00    +0.052 A 
ATOM     32 CL   UNL     1      -2.115  -2.300   6.433  0.00  0.00    -0.083 Cl
BRANCH  28  33
ATOM     33  C   UNL     1      -5.099  -5.789   2.542  0.00  0.00    +0.417 C 
ATOM     34  F   UNL     1      -4.266  -6.096   1.461  0.00  0.00    -0.166 F 
ATOM     35  F   UNL     1      -5.484  -6.971   3.184  0.00  0.00    -0.166 F 
ATOM     36  F   UNL     1      -6.236  -5.118   2.079  0.00  0.00    -0.166 F 
ENDBRANCH  28  33
ENDBRANCH  24  26
ENDBRANCH  19  21
ENDBRANCH   1  19
TORSDOF 6
