REMARK  Name = ZINC10964841
REMARK  8 active torsions:
REMARK  status: ('A' for Active; 'I' for Inactive)
REMARK    1  A    between atoms: C_1  and  C_2
REMARK    2  A    between atoms: C_7  and  C_8
REMARK    3  A    between atoms: C_8  and  N_9
REMARK    4  A    between atoms: N_17  and  C_34
REMARK    5  A    between atoms: C_23  and  C_24
REMARK    6  A    between atoms: C_26  and  O_32
REMARK    7  A    between atoms: C_27  and  O_31
REMARK    8  A    between atoms: O_32  and  C_33
REMARK                            x       y       z     vdW  Elec       q    Type
REMARK                         _______ _______ _______ _____ _____    ______ ____
ROOT
ATOM      1  N   UNL     1       1.371   1.785  -0.645  0.00  0.00    -0.298 N 
ATOM      2  C   UNL     1       0.398   1.256  -1.496  0.00  0.00    +0.152 A 
ATOM      3  C   UNL     1      -0.466   1.839  -2.451  0.00  0.00    +0.280 A 
ATOM      4  O   UNL     1      -0.435   3.039  -2.658  0.00  0.00    -0.265 OA
ATOM      5  N   UNL     1      -1.319   1.051  -3.137  0.00  0.00    -0.273 N 
ATOM      6  H   UNL     1      -1.928   1.455  -3.819  0.00  0.00    +0.173 HD
ATOM      7  C   UNL     1      -1.357  -0.275  -2.912  0.00  0.00    +0.331 A 
ATOM      8  O   UNL     1      -2.137  -0.964  -3.541  0.00  0.00    -0.246 OA
ATOM      9  N   UNL     1      -0.548  -0.853  -2.006  0.00  0.00    -0.281 N 
ATOM     10  C   UNL     1       0.345  -0.092  -1.281  0.00  0.00    +0.155 A 
ATOM     11  N   UNL     1       1.268  -0.406  -0.314  0.00  0.00    -0.244 N 
ATOM     12  C   UNL     1       1.899   0.742   0.079  0.00  0.00    +0.239 A 
ATOM     13  N   UNL     1       2.773   0.407   1.003  0.00  0.00    -0.110 NA
ATOM     14  N   UNL     1       2.731  -0.861   1.212  0.00  0.00    -0.127 NA
ATOM     15  C   UNL     1       1.828  -1.415   0.436  0.00  0.00    +0.171 A 
ATOM     16  C   UNL     1      -0.616  -2.300  -1.786  0.00  0.00    +0.155 C 
ENDROOT
BRANCH  15  17
ATOM     17  C   UNL     1       1.480  -2.850   0.378  0.00  0.00    +0.024 A 
ATOM     18  C   UNL     1       2.471  -3.801   0.124  0.00  0.00    +0.061 A 
ATOM     19  C   UNL     1       2.141  -5.143   0.070  0.00  0.00    +0.163 A 
ATOM     20  C   UNL     1       0.822  -5.544   0.270  0.00  0.00    +0.173 A 
ATOM     21  C   UNL     1      -0.163  -4.600   0.522  0.00  0.00    +0.064 A 
ATOM     22  C   UNL     1       0.161  -3.259   0.583  0.00  0.00    +0.030 A 
ATOM     23 BR   UNL     1      -1.951  -5.151   0.791  0.00  0.00    -0.046 Br
BRANCH  20  24
ATOM     24  O   UNL     1       0.499  -6.864   0.218  0.00  0.00    -0.503 OA
ATOM     25  H   UNL     1       0.559  -7.317   1.070  0.00  0.00    +0.292 HD
ENDBRANCH  20  24
BRANCH  19  26
ATOM     26  O   UNL     1       3.104  -6.070  -0.177  0.00  0.00    -0.491 OA
ATOM     27  C   UNL     1       4.435  -5.588  -0.371  0.00  0.00    +0.277 C 
ENDBRANCH  19  26
ENDBRANCH  15  17
BRANCH   1  28
ATOM     28  C   UNL     1       1.759   3.194  -0.543  0.00  0.00    +0.161 C 
BRANCH  28  35
ATOM     29  C   UNL     1       2.501   3.063   2.246  0.00  0.00    +0.044 C 
ATOM     30  C   UNL     1       1.261   3.813   1.831  0.00  0.00    -0.046 A 
ATOM     31  C   UNL     1       0.482   4.442   2.784  0.00  0.00    +0.004 A 
ATOM     32  C   UNL     1      -0.658   5.125   2.403  0.00  0.00    +0.000 A 
ATOM     33  C   UNL     1      -1.015   5.184   1.069  0.00  0.00    +0.000 A 
ATOM     34  C   UNL     1      -0.234   4.559   0.116  0.00  0.00    +0.005 A 
ATOM     35  C   UNL     1       0.906   3.876   0.496  0.00  0.00    -0.025 A 
ENDBRANCH  28  35
ENDBRANCH   1  28
TORSDOF 5
