REMARK  Name = ZINC06240269
REMARK  4 active torsions:
REMARK  status: ('A' for Active; 'I' for Inactive)
REMARK    1  A    between atoms: C_4  and  C_7
REMARK    2  A    between atoms: C_7  and  C_8
REMARK    3  A    between atoms: N_11  and  C_17
REMARK    4  A    between atoms: N_15  and  O_16
REMARK                            x       y       z     vdW  Elec       q    Type
REMARK                         _______ _______ _______ _____ _____    ______ ____
ROOT
ATOM      1  C   UNL     1       4.057  -0.933   1.426  0.00  0.00    +0.068 C 
ATOM      2  C   UNL     1       5.388  -1.691   1.562  0.00  0.00    +0.118 C 
ATOM      3  N   UNL     1       6.292  -0.812   2.306  0.00  0.00    -0.293 N 
ATOM      4  C   UNL     1       5.695   0.342   2.626  0.00  0.00    +0.265 C 
ATOM      5  O   UNL     1       6.230   1.242   3.243  0.00  0.00    -0.269 OA
ATOM      6  C   UNL     1       4.302   0.384   2.135  0.00  0.00    +0.146 C 
ATOM      7  N   UNL     1       3.458   1.352   2.278  0.00  0.00    -0.086 NA
ENDROOT
BRANCH   3   8
ATOM      8  C   UNL     1       7.674  -1.153   2.655  0.00  0.00    +0.076 C 
ATOM      9  C   UNL     1       7.834  -1.135   4.177  0.00  0.00    +0.022 C 
ATOM     10  C   UNL     1       9.277  -1.490   4.542  0.00  0.00    +0.002 C 
ATOM     11  C   UNL     1      10.228  -0.467   3.916  0.00  0.00    +0.000 C 
ATOM     12  C   UNL     1      10.067  -0.485   2.395  0.00  0.00    +0.002 C 
ATOM     13  C   UNL     1       8.624  -0.130   2.030  0.00  0.00    +0.022 C 
ENDBRANCH   3   8
BRANCH   7  14
ATOM     14  O   UNL     1       2.118   1.193   1.847  0.00  0.00    -0.409 OA
ATOM     15  H   UNL     1       1.563   1.971   1.996  0.00  0.00    +0.328 HD
ENDBRANCH   7  14
BRANCH   1  16
ATOM     16  C   UNL     1       3.725  -0.694  -0.048  0.00  0.00    +0.046 C 
BRANCH  16  20
ATOM     17  C   UNL     1       2.660  -4.399  -1.888  0.00  0.00    +0.000 A 
ATOM     18  C   UNL     1       1.708  -3.671  -1.199  0.00  0.00    +0.000 A 
ATOM     19  C   UNL     1       2.053  -2.472  -0.603  0.00  0.00    +0.003 A 
ATOM     20  C   UNL     1       3.349  -2.001  -0.696  0.00  0.00    -0.047 A 
ATOM     21  C   UNL     1       4.301  -2.730  -1.385  0.00  0.00    +0.003 A 
ATOM     22  C   UNL     1       3.957  -3.928  -1.981  0.00  0.00    +0.000 A 
ENDBRANCH  16  20
ENDBRANCH   1  16
TORSDOF 4
