REMARK  Name = ZINC38583138
REMARK  5 active torsions:
REMARK  status: ('A' for Active; 'I' for Inactive)
REMARK    1  A    between atoms: C_1  and  C_2
REMARK    2  A    between atoms: C_2  and  C_34
REMARK    3  A    between atoms: N_7  and  N_8
REMARK    4  A    between atoms: C_9  and  C_11
REMARK    5  A    between atoms: C_28  and  C_30
REMARK                            x       y       z     vdW  Elec       q    Type
REMARK                         _______ _______ _______ _____ _____    ______ ____
ROOT
ATOM      1  C   UNL     1      -0.019   1.526   0.010  0.00  0.00    +0.011 C 
ATOM      2  C   UNL     1       0.002  -0.004   0.002  0.00  0.00    -0.024 C 
ATOM      3  C   UNL     1       0.715  -0.496  -1.254  0.00  0.00    +0.062 C 
ATOM      4  C   UNL     1       0.876  -1.991  -1.245  0.00  0.00    +0.051 C 
ATOM      5  C   UNL     1       0.815  -2.709  -0.049  0.00  0.00    +0.025 C 
ATOM      6  C   UNL     1       0.642  -2.026   1.238  0.00  0.00    +0.069 C 
ATOM      7  N   UNL     1       0.410  -2.692   2.330  0.00  0.00    -0.184 NA
ATOM      8  C   UNL     1       0.745  -0.512   1.246  0.00  0.00    +0.064 C 
ATOM      9  C   UNL     1       0.889  -4.104  -0.164  0.00  0.00    +0.000 C 
ATOM     10  C   UNL     1       1.306  -5.122   0.638  0.00  0.00    +0.004 A 
ATOM     11  C   UNL     1       1.635  -5.171   2.015  0.00  0.00    +0.010 A 
ATOM     12  C   UNL     1       2.070  -6.367   2.503  0.00  0.00    +0.001 A 
ATOM     13  C   UNL     1       2.200  -7.513   1.721  0.00  0.00    +0.002 A 
ATOM     14  C   UNL     1       1.885  -7.558   0.397  0.00  0.00    +0.026 A 
ATOM     15  C   UNL     1       1.403  -6.356  -0.191  0.00  0.00    +0.044 A 
ATOM     16  N   UNL     1       0.979  -6.128  -1.409  0.00  0.00    -0.372 N 
ATOM     17  C   UNL     1       0.466  -4.770  -1.475  0.00  0.00    +0.165 C 
ATOM     18  C   UNL     1       1.032  -3.920  -2.576  0.00  0.00    +0.148 C 
ATOM     19  N   UNL     1       1.149  -2.637  -2.389  0.00  0.00    -0.249 NA
ATOM     20  C   UNL     1      -1.433  -0.533   0.013  0.00  0.00    +0.011 C 
ATOM     21  H   UNL     1       1.004  -6.761  -2.144  0.00  0.00    +0.161 HD
ENDROOT
BRANCH   7  22
ATOM     22  N   UNL     1       0.249  -2.012   3.544  0.00  0.00    -0.203 N 
ATOM     23  C   UNL     1       0.009  -2.703   4.676  0.00  0.00    +0.263 C 
ATOM     24  O   UNL     1      -0.068  -3.915   4.644  0.00  0.00    -0.268 OA
ATOM     25  H   UNL     1       0.311  -1.044   3.570  0.00  0.00    +0.178 HD
BRANCH  23  26
ATOM     26  C   UNL     1      -0.161  -1.984   5.960  0.00  0.00    +0.041 A 
ATOM     27  C   UNL     1      -0.081  -0.589   6.019  0.00  0.00    +0.033 A 
ATOM     28  C   UNL     1      -0.245   0.040   7.237  0.00  0.00    +0.111 A 
ATOM     29  N   UNL     1      -0.474  -0.656   8.333  0.00  0.00    -0.263 NA
ATOM     30  C   UNL     1      -0.557  -1.971   8.322  0.00  0.00    +0.111 A 
ATOM     31  C   UNL     1      -0.410  -2.681   7.146  0.00  0.00    +0.033 A 
ENDBRANCH  23  26
ENDBRANCH   7  22
BRANCH  18  32
ATOM     32  C   UNL     1       1.458  -4.544  -3.880  0.00  0.00    +0.433 C 
ATOM     33  F   UNL     1       1.947  -3.550  -4.735  0.00  0.00    -0.165 F 
ATOM     34  F   UNL     1       2.463  -5.487  -3.639  0.00  0.00    -0.165 F 
ATOM     35  F   UNL     1       0.361  -5.174  -4.477  0.00  0.00    -0.165 F 
ENDBRANCH  18  32
TORSDOF 3
