REMARK  Name = ZINC09291939
REMARK  6 active torsions:
REMARK  status: ('A' for Active; 'I' for Inactive)
REMARK    1  A    between atoms: C_4  and  C_7
REMARK    2  A    between atoms: C_8  and  C_9
REMARK    3  A    between atoms: N_13  and  C_29
REMARK    4  A    between atoms: C_15  and  C_16
REMARK    5  A    between atoms: C_15  and  C_18
REMARK    6  A    between atoms: N_20  and  C_21
REMARK                            x       y       z     vdW  Elec       q    Type
REMARK                         _______ _______ _______ _____ _____    ______ ____
ROOT
ATOM      1  C   UNL     1      -0.278  -0.388   0.530  0.00  0.00    +0.020 C 
ATOM      2  C   UNL     1      -0.322   0.949   0.255  0.00  0.00    +0.079 A 
ATOM      3  C   UNL     1      -1.468   1.873   0.289  0.00  0.00    +0.270 A 
ATOM      4  O   UNL     1      -2.584   1.492   0.594  0.00  0.00    -0.266 OA
ATOM      5  N   UNL     1      -1.230   3.136  -0.023  0.00  0.00    -0.269 N 
ATOM      6  C   UNL     1       0.033   3.547  -0.371  0.00  0.00    +0.111 A 
ATOM      7  C   UNL     1       0.462   4.828  -0.731  0.00  0.00    +0.144 C 
ATOM      8  S   UNL     1       0.994   2.047  -0.250  0.00  0.00    -0.064 S 
ENDROOT
BRANCH   5   9
ATOM      9  C   UNL     1      -2.279   4.063  -0.004  0.00  0.00    +0.051 A 
ATOM     10  C   UNL     1      -2.457   4.890   1.097  0.00  0.00    +0.026 A 
ATOM     11  C   UNL     1      -3.489   5.808   1.111  0.00  0.00    +0.002 A 
ATOM     12  C   UNL     1      -4.352   5.896   0.034  0.00  0.00    +0.000 A 
ATOM     13  C   UNL     1      -4.181   5.070  -1.062  0.00  0.00    +0.002 A 
ATOM     14  C   UNL     1      -3.148   4.154  -1.084  0.00  0.00    +0.026 A 
ENDBRANCH   5   9
BRANCH   7  15
ATOM     15  C   UNL     1      -0.508   5.913  -0.864  0.00  0.00    +0.261 C 
ATOM     16  O   UNL     1      -0.732   6.649   0.081  0.00  0.00    -0.269 OA
ATOM     17  N   UNL     1      -1.155   6.100  -2.031  0.00  0.00    -0.281 N 
ATOM     18  H   UNL     1      -0.918   5.569  -2.807  0.00  0.00    +0.155 HD
BRANCH  17  19
ATOM     19  C   UNL     1      -2.170   7.060  -2.123  0.00  0.00    +0.034 A 
ATOM     20  C   UNL     1      -2.115   8.207  -1.342  0.00  0.00    +0.026 A 
ATOM     21  C   UNL     1      -3.115   9.155  -1.438  0.00  0.00    +0.040 A 
ATOM     22  C   UNL     1      -4.176   8.957  -2.305  0.00  0.00    +0.124 A 
ATOM     23  C   UNL     1      -4.236   7.812  -3.081  0.00  0.00    +0.040 A 
ATOM     24  C   UNL     1      -3.236   6.864  -2.991  0.00  0.00    +0.026 A 
ATOM     25  F   UNL     1      -5.156   9.884  -2.393  0.00  0.00    -0.205 F 
ENDBRANCH  17  19
ENDBRANCH   7  15
BRANCH   1  27
ATOM     26  C   UNL     1      -1.407  -2.393   1.188  0.00  0.00    +0.008 C 
ATOM     27  C   UNL     1      -1.451  -1.067   0.915  0.00  0.00    +0.002 C 
BRANCH  26  31
ATOM     28  C   UNL     1      -4.937  -4.436   2.349  0.00  0.00    +0.000 A 
ATOM     29  C   UNL     1      -3.742  -5.128   2.250  0.00  0.00    +0.001 A 
ATOM     30  C   UNL     1      -2.590  -4.471   1.873  0.00  0.00    +0.008 A 
ATOM     31  C   UNL     1      -2.631  -3.101   1.591  0.00  0.00    -0.025 A 
ATOM     32  C   UNL     1      -3.842  -2.408   1.699  0.00  0.00    +0.008 A 
ATOM     33  C   UNL     1      -4.986  -3.080   2.072  0.00  0.00    +0.001 A 
ENDBRANCH  26  31
ENDBRANCH   1  27
BRANCH   7  34
ATOM     34  C   UNL     1       1.851   5.077  -0.970  0.00  0.00    +0.107 C 
ATOM     35  N   UNL     1       2.954   5.274  -1.160  0.00  0.00    -0.191 NA
ENDBRANCH   7  34
TORSDOF 6
