REMARK  Name = ZINC12544801
REMARK  8 active torsions:
REMARK  status: ('A' for Active; 'I' for Inactive)
REMARK    1  A    between atoms: C_3  and  C_18
REMARK    2  A    between atoms: C_5  and  S_7
REMARK    3  A    between atoms: S_7  and  N_10
REMARK    4  A    between atoms: N_10  and  C_11
REMARK    5  A    between atoms: N_20  and  C_21
REMARK    6  A    between atoms: C_21  and  C_22
REMARK    7  A    between atoms: C_22  and  C_24
REMARK    8  A    between atoms: C_22  and  N_29
REMARK                            x       y       z     vdW  Elec       q    Type
REMARK                         _______ _______ _______ _____ _____    ______ ____
ROOT
ATOM      1  C   UNL     1       0.028   1.354   0.317  0.00  0.00    +0.003 A 
ATOM      2  C   UNL     1       1.201   2.068   0.187  0.00  0.00    +0.013 A 
ATOM      3  C   UNL     1       2.390   1.403  -0.112  0.00  0.00    +0.039 A 
ATOM      4  C   UNL     1       2.385   0.016  -0.277  0.00  0.00    +0.042 A 
ATOM      5  C   UNL     1       1.205  -0.686  -0.144  0.00  0.00    +0.111 A 
ATOM      6  C   UNL     1       0.029  -0.020   0.153  0.00  0.00    +0.029 A 
ENDROOT
BRANCH   3   7
ATOM      7  C   UNL     1       3.651   2.162  -0.253  0.00  0.00    +0.244 C 
ATOM      8  O   UNL     1       4.686   1.579  -0.513  0.00  0.00    -0.270 OA
ATOM      9  N   UNL     1       3.653   3.500  -0.093  0.00  0.00    -0.312 N 
ATOM     10  H   UNL     1       2.827   3.965   0.114  0.00  0.00    +0.149 HD
BRANCH   9  11
ATOM     11  C   UNL     1       4.902   4.253  -0.234  0.00  0.00    +0.097 C 
BRANCH  11  12
ATOM     12  C   UNL     1       4.608   5.751  -0.139  0.00  0.00    +0.016 C 
BRANCH  12  13
ATOM     13  N   UNL     1       5.872   6.500  -0.147  0.00  0.00    +0.387 N 
ATOM     14  C   UNL     1       5.605   7.958  -0.049  0.00  0.00    -0.078 C 
ATOM     15  C   UNL     1       6.941   8.528   0.488  0.00  0.00    -0.020 C 
ATOM     16  C   UNL     1       7.406   7.440   1.483  0.00  0.00    -0.020 C 
ATOM     17  C   UNL     1       6.676   6.156   1.046  0.00  0.00    -0.078 C 
ATOM     18  H   UNL     1       6.392   6.296  -0.988  0.00  0.00    -0.081 HD
ENDBRANCH  12  13
BRANCH  12  19
ATOM     19  C   UNL     1       3.766   6.174  -1.315  0.00  0.00    +0.093 A 
ATOM     20  C   UNL     1       2.435   6.367  -1.301  0.00  0.00    +0.043 A 
ATOM     21  C   UNL     1       2.063   6.753  -2.609  0.00  0.00    +0.041 A 
ATOM     22  C   UNL     1       3.189   6.773  -3.345  0.00  0.00    +0.195 A 
ATOM     23  O   UNL     1       4.219   6.427  -2.554  0.00  0.00    -0.469 OA
ENDBRANCH  12  19
ENDBRANCH  11  12
ENDBRANCH   9  11
ENDBRANCH   3   7
BRANCH   5  24
ATOM     24  S   UNL     1       1.196  -2.436  -0.352  0.00  0.00    +0.092 S 
ATOM     25  O   UNL     1      -0.130  -2.795  -0.715  0.00  0.00    -0.148 OA
ATOM     26  O   UNL     1       2.320  -2.754  -1.161  0.00  0.00    -0.148 OA
BRANCH  24  27
ATOM     27  N   UNL     1       1.478  -3.108   1.135  0.00  0.00    -0.098 NA
BRANCH  27  28
ATOM     28  C   UNL     1       1.526  -4.497   1.276  0.00  0.00    +0.074 A 
ATOM     29  C   UNL     1       1.344  -5.316   0.169  0.00  0.00    +0.028 A 
ATOM     30  C   UNL     1       1.392  -6.688   0.312  0.00  0.00    +0.017 A 
ATOM     31  C   UNL     1       1.622  -7.248   1.556  0.00  0.00    +0.018 A 
ATOM     32  C   UNL     1       1.804  -6.435   2.660  0.00  0.00    +0.017 A 
ATOM     33  C   UNL     1       1.763  -5.062   2.523  0.00  0.00    +0.028 A 
ATOM     34 BR   UNL     1       1.686  -9.129   1.747  0.00  0.00    -0.050 Br
ENDBRANCH  27  28
ENDBRANCH  24  27
ENDBRANCH   5  24
TORSDOF 8
