REMARK  Name = ZINC24104502
REMARK  8 active torsions:
REMARK  status: ('A' for Active; 'I' for Inactive)
REMARK    1  A    between atoms: C_1  and  C_2
REMARK    2  A    between atoms: N_11  and  C_15
REMARK    3  A    between atoms: C_15  and  C_16
REMARK    4  A    between atoms: N_18  and  C_19
REMARK    5  A    between atoms: C_19  and  C_21
REMARK    6  A    between atoms: C_19  and  C_27
REMARK    7  A    between atoms: C_30  and  O_33
REMARK    8  A    between atoms: O_33  and  C_34
REMARK                            x       y       z     vdW  Elec       q    Type
REMARK                         _______ _______ _______ _____ _____    ______ ____
ROOT
ATOM      1  C   UNL     1       2.909   1.446  -1.438  0.00  0.00    +0.232 C 
ATOM      2  O   UNL     1       2.150   1.691  -2.351  0.00  0.00    -0.274 OA
ATOM      3  N   UNL     1       4.168   1.042  -1.697  0.00  0.00    -0.303 N 
ATOM      4  H   UNL     1       4.856   0.820  -0.868  0.00  0.00    +0.150 HD
ENDROOT
BRANCH   1   5
ATOM      5  C   UNL     1       2.443   1.592  -0.012  0.00  0.00    +0.213 C 
BRANCH   5  15
ATOM      6  C   UNL     1      -1.220   2.162  -2.475  0.00  0.00    +0.010 C 
ATOM      7  C   UNL     1      -2.069   1.879  -1.234  0.00  0.00    +0.018 C 
ATOM      8  C   UNL     1      -3.279   2.817  -1.219  0.00  0.00    +0.006 C 
ATOM      9  C   UNL     1      -4.116   2.547   0.033  0.00  0.00    +0.000 C 
ATOM     10  C   UNL     1      -3.268   2.804   1.280  0.00  0.00    +0.003 C 
ATOM     11  C   UNL     1      -2.058   1.866   1.276  0.00  0.00    +0.035 C 
ATOM     12  C   UNL     1      -1.230   2.107   0.018  0.00  0.00    +0.115 C 
ATOM     13  C   UNL     1      -0.014   1.208   0.009  0.00  0.00    +0.247 C 
ATOM     14  O   UNL     1       0.002  -0.004   0.002  0.00  0.00    -0.273 OA
ATOM     15  N   UNL     1       1.048   2.039   0.003  0.00  0.00    -0.215 N 
ATOM     16  C   UNL     1       0.670   3.323   0.013  0.00  0.00    +0.310 C 
ATOM     17  O   UNL     1       1.448   4.257   0.010  0.00  0.00    -0.252 OA
ATOM     18  N   UNL     1      -0.670   3.464   0.026  0.00  0.00    -0.285 N 
ATOM     19  H   UNL     1      -1.340   4.336   0.040  0.00  0.00    +0.151 HD
ENDBRANCH   5  15
ENDBRANCH   1   5
BRANCH   3  20
ATOM     20  C   UNL     1       4.621   0.900  -3.083  0.00  0.00    +0.134 C 
BRANCH  20  21
ATOM     21  C   UNL     1       5.096   2.235  -3.596  0.00  0.00    -0.023 A 
ATOM     22  C   UNL     1       5.823   3.073  -2.771  0.00  0.00    +0.006 A 
ATOM     23  C   UNL     1       6.263   4.296  -3.243  0.00  0.00    +0.000 A 
ATOM     24  C   UNL     1       5.968   4.684  -4.537  0.00  0.00    +0.000 A 
ATOM     25  C   UNL     1       5.238   3.848  -5.360  0.00  0.00    +0.000 A 
ATOM     26  C   UNL     1       4.802   2.623  -4.890  0.00  0.00    +0.006 A 
ENDBRANCH  20  21
BRANCH  20  27
ATOM     27  C   UNL     1       5.753  -0.093  -3.143  0.00  0.00    -0.023 A 
ATOM     28  C   UNL     1       6.723  -0.093  -2.158  0.00  0.00    +0.009 A 
ATOM     29  C   UNL     1       7.759  -1.006  -2.207  0.00  0.00    +0.046 A 
ATOM     30  C   UNL     1       7.830  -1.916  -3.252  0.00  0.00    +0.127 A 
ATOM     31  C   UNL     1       6.858  -1.911  -4.242  0.00  0.00    +0.046 A 
ATOM     32  C   UNL     1       5.822  -1.000  -4.185  0.00  0.00    +0.009 A 
BRANCH  30  33
ATOM     33  O   UNL     1       8.852  -2.811  -3.306  0.00  0.00    -0.434 OA
BRANCH  33  34
ATOM     34  C   UNL     1       9.816  -2.759  -2.253  0.00  0.00    +0.541 C 
ATOM     35  F   UNL     1      10.422  -1.498  -2.237  0.00  0.00    -0.166 F 
ATOM     36  F   UNL     1       9.181  -2.987  -1.027  0.00  0.00    -0.166 F 
ENDBRANCH  33  34
ENDBRANCH  30  33
ENDBRANCH  20  27
ENDBRANCH   3  20
TORSDOF 7
