REMARK  Name = ZINC34791243
REMARK  13 active torsions:
REMARK  status: ('A' for Active; 'I' for Inactive)
REMARK    1  A    between atoms: C_1  and  C_2
REMARK    2  A    between atoms: C_2  and  N_3
REMARK    3  A    between atoms: C_6  and  C_11
REMARK    4  A    between atoms: C_15  and  O_17
REMARK    5  A    between atoms: O_17  and  C_18
REMARK    6  A    between atoms: N_26  and  C_28
REMARK    7  A    between atoms: C_28  and  C_30
REMARK    8  A    between atoms: C_28  and  C_34
REMARK    9  A    between atoms: C_30  and  C_31
REMARK   10  A    between atoms: C_31  and  C_32
REMARK   11  A    between atoms: C_31  and  C_33
REMARK   12  A    between atoms: N_36  and  C_37
REMARK   13  A    between atoms: C_37  and  C_38
REMARK                            x       y       z     vdW  Elec       q    Type
REMARK                         _______ _______ _______ _____ _____    ______ ____
ROOT
ATOM      1  N   UNL     1       2.726  -0.850  -0.582  0.00  0.00    -0.257 N 
ATOM      2  C   UNL     1       1.721  -1.150  -1.456  0.00  0.00    +0.042 C 
ATOM      3  C   UNL     1       1.986  -1.514  -2.727  0.00  0.00    +0.058 C 
ATOM      4  C   UNL     1       3.439  -1.579  -3.153  0.00  0.00    +0.142 C 
ATOM      5  N   UNL     1       4.448  -1.237  -2.136  0.00  0.00    -0.288 N 
ATOM      6  C   UNL     1       4.025  -0.886  -0.905  0.00  0.00    +0.307 C 
ATOM      7  O   UNL     1       4.850  -0.598  -0.060  0.00  0.00    -0.252 OA
ATOM      8  C   UNL     1       0.788  -1.771  -3.424  0.00  0.00    +0.247 C 
ATOM      9  O   UNL     1       0.730  -2.118  -4.590  0.00  0.00    -0.270 OA
ATOM     10  N   UNL     1      -0.284  -1.582  -2.633  0.00  0.00    -0.281 N 
ATOM     11  C   UNL     1       0.216  -1.171  -1.313  0.00  0.00    +0.160 C 
ATOM     12  H   UNL     1       5.394  -1.260  -2.348  0.00  0.00    +0.151 HD
ENDROOT
BRANCH   4  13
ATOM     13  C   UNL     1       3.623  -0.646  -4.322  0.00  0.00    -0.019 A 
ATOM     14  C   UNL     1       3.769   0.712  -4.105  0.00  0.00    +0.006 A 
ATOM     15  C   UNL     1       3.938   1.571  -5.175  0.00  0.00    +0.004 A 
ATOM     16  C   UNL     1       3.962   1.075  -6.464  0.00  0.00    +0.046 A 
ATOM     17  C   UNL     1       3.816  -0.287  -6.684  0.00  0.00    +0.129 A 
ATOM     18  C   UNL     1       3.652  -1.148  -5.608  0.00  0.00    +0.052 A 
BRANCH  17  19
ATOM     19  O   UNL     1       3.839  -0.778  -7.951  0.00  0.00    -0.456 OA
BRANCH  19  20
ATOM     20  C   UNL     1       3.685  -2.117  -8.119  0.00  0.00    +0.128 A 
ATOM     21  C   UNL     1       2.417  -2.656  -8.283  0.00  0.00    +0.046 A 
ATOM     22  C   UNL     1       2.264  -4.019  -8.454  0.00  0.00    +0.004 A 
ATOM     23  C   UNL     1       3.373  -4.845  -8.461  0.00  0.00    +0.000 A 
ATOM     24  C   UNL     1       4.637  -4.310  -8.297  0.00  0.00    +0.004 A 
ATOM     25  C   UNL     1       4.797  -2.948  -8.133  0.00  0.00    +0.046 A 
ENDBRANCH  19  20
ENDBRANCH  17  19
ENDBRANCH   4  13
BRANCH   1  27
ATOM     26  C   UNL     1       2.173   1.055   0.849  0.00  0.00    +0.025 C 
ATOM     27  C   UNL     1       2.363  -0.462   0.783  0.00  0.00    +0.111 C 
ENDBRANCH   1  27
BRANCH  10  28
ATOM     28  C   UNL     1      -1.688  -1.754  -3.016  0.00  0.00    +0.163 C 
BRANCH  28  29
ATOM     29  C   UNL     1      -2.017  -0.819  -4.151  0.00  0.00    +0.234 C 
ATOM     30  O   UNL     1      -1.163  -0.082  -4.597  0.00  0.00    -0.274 OA
ATOM     31  N   UNL     1      -3.260  -0.802  -4.672  0.00  0.00    -0.310 N 
ATOM     32  H   UNL     1      -3.943  -1.392  -4.315  0.00  0.00    +0.149 HD
BRANCH  31  33
ATOM     33  C   UNL     1      -3.580   0.107  -5.775  0.00  0.00    +0.131 C 
BRANCH  33  34
ATOM     34  C   UNL     1      -5.024  -0.070  -6.169  0.00  0.00    -0.016 C 
ATOM     35  C   UNL     1      -5.828   0.964  -6.189  0.00  0.00    +0.005 C 
ENDBRANCH  33  34
ENDBRANCH  31  33
ENDBRANCH  28  29
BRANCH  28  36
ATOM     36  C   UNL     1      -1.922  -3.199  -3.461  0.00  0.00    +0.035 C 
BRANCH  36  37
ATOM     37  C   UNL     1      -1.708  -4.139  -2.274  0.00  0.00    -0.015 C 
ATOM     38  C   UNL     1      -2.773  -3.866  -1.209  0.00  0.00    +0.007 C 
ATOM     39  C   UNL     1      -1.819  -5.590  -2.746  0.00  0.00    +0.007 C 
ENDBRANCH  36  37
ENDBRANCH  28  36
ENDBRANCH  10  28
TORSDOF 10
