REMARK  Name = ZINC21663951
REMARK  4 active torsions:
REMARK  status: ('A' for Active; 'I' for Inactive)
REMARK    1  A    between atoms: C_7  and  C_11
REMARK    2  A    between atoms: C_11  and  C_12
REMARK    3  A    between atoms: C_12  and  N_13
REMARK    4  A    between atoms: C_14  and  C_16
REMARK                            x       y       z     vdW  Elec       q    Type
REMARK                         _______ _______ _______ _____ _____    ______ ____
ROOT
ATOM      1  C   UNL     1      -2.262   7.672   2.667  0.00  0.00    +0.092 C 
ATOM      2  C   UNL     1      -2.676   7.971   4.111  0.00  0.00    +0.016 C 
ATOM      3  C   UNL     1      -3.706   9.105   4.113  0.00  0.00    +0.020 C 
ATOM      4  C   UNL     1      -4.905   8.700   3.254  0.00  0.00    +0.107 C 
ATOM      5  N   UNL     1      -4.457   8.425   1.883  0.00  0.00    -0.307 N 
ATOM      6  C   UNL     1      -3.503   7.309   1.850  0.00  0.00    +0.119 C 
ATOM      7  C   UNL     1      -5.533   8.182   1.048  0.00  0.00    +0.184 A 
ATOM      8  N   UNL     1      -6.809   8.187   1.329  0.00  0.00    -0.139 NA
ATOM      9  N   UNL     1      -7.768   7.918   0.357  0.00  0.00    -0.169 N 
ATOM     10  C   UNL     1      -9.121   7.887   0.518  0.00  0.00    +0.279 A 
ATOM     11  O   UNL     1      -9.607   8.112   1.616  0.00  0.00    -0.265 OA
ATOM     12  C   UNL     1      -9.957   7.599  -0.569  0.00  0.00    +0.040 A 
ATOM     13  C   UNL     1      -9.400   7.349  -1.797  0.00  0.00    +0.053 A 
ATOM     14  N   UNL     1      -8.071   7.383  -1.919  0.00  0.00    -0.226 NA
ATOM     15  C   UNL     1      -7.300   7.652  -0.899  0.00  0.00    +0.201 A 
ATOM     16  S   UNL     1      -5.537   7.790  -0.694  0.00  0.00    -0.013 S 
ATOM     17  C   UNL     1     -10.221   7.040  -3.019  0.00  0.00    +0.056 C 
ATOM     18  C   UNL     1     -11.637   6.624  -2.622  0.00  0.00    +0.006 C 
ATOM     19  C   UNL     1     -12.198   7.677  -1.659  0.00  0.00    +0.005 C 
ATOM     20  C   UNL     1     -11.445   7.572  -0.335  0.00  0.00    +0.042 C 
ENDROOT
BRANCH   1  22
ATOM     21  N   UNL     1      -0.793   6.074   1.481  0.00  0.00    -0.315 N 
ATOM     22  C   UNL     1      -1.293   6.518   2.651  0.00  0.00    +0.218 C 
ATOM     23  O   UNL     1      -0.963   5.989   3.692  0.00  0.00    -0.275 OA
ATOM     24  H   UNL     1      -1.092   6.554   0.538  0.00  0.00    +0.149 HD
BRANCH  21  25
ATOM     25  C   UNL     1       0.149   4.952   1.466  0.00  0.00    +0.109 C 
BRANCH  25  26
ATOM     26  C   UNL     1       0.559   4.650   0.023  0.00  0.00    +0.056 C 
BRANCH  26  33
ATOM     27  C   UNL     1       0.002  -0.004   0.002  0.00  0.00    +0.001 A 
ATOM     28  C   UNL     1       1.207  -0.693  -0.013  0.00  0.00    +0.002 A 
ATOM     29  C   UNL     1       2.405  -0.013  -0.021  0.00  0.00    +0.026 A 
ATOM     30  C   UNL     1       2.410   1.378  -0.014  0.00  0.00    +0.047 A 
ATOM     31  C   UNL     1       1.186   2.072   0.002  0.00  0.00    +0.003 A 
ATOM     32  C   UNL     1      -0.017   1.362   0.009  0.00  0.00    +0.010 A 
ATOM     33  C   UNL     1       1.528   3.496   0.007  0.00  0.00    -0.021 A 
ATOM     34  C   UNL     1       2.868   3.578  -0.005  0.00  0.00    +0.087 A 
ATOM     35  N   UNL     1       3.412   2.323  -0.018  0.00  0.00    -0.360 N 
ATOM     36  H   UNL     1       4.465   2.007  -0.031  0.00  0.00    +0.165 HD
ENDBRANCH  26  33
ENDBRANCH  25  26
ENDBRANCH  21  25
ENDBRANCH   1  22
TORSDOF 4
