REMARK  Name = ZINC63478479
REMARK  6 active torsions:
REMARK  status: ('A' for Active; 'I' for Inactive)
REMARK    1  A    between atoms: C_1  and  O_2
REMARK    2  A    between atoms: O_2  and  C_3
REMARK    3  A    between atoms: C_3  and  C_4
REMARK    4  A    between atoms: C_4  and  N_5
REMARK    5  A    between atoms: C_10  and  C_28
REMARK    6  A    between atoms: C_28  and  C_29
REMARK                            x       y       z     vdW  Elec       q    Type
REMARK                         _______ _______ _______ _____ _____    ______ ____
ROOT
ATOM      1  N   UNL     1      -0.515  -2.565   1.245  0.00  0.00    -0.239 N 
ATOM      2  C   UNL     1       0.811  -2.680   1.376  0.00  0.00    +0.227 C 
ATOM      3  O   UNL     1       1.624  -2.444   0.508  0.00  0.00    -0.275 OA
ATOM      4  C   UNL     1       1.139  -3.147   2.776  0.00  0.00    +0.107 C 
ATOM      5  C   UNL     1       1.723  -4.575   2.713  0.00  0.00    +0.072 C 
ATOM      6  N   UNL     1       0.539  -5.473   2.742  0.00  0.00    -0.295 NA
ATOM      7  C   UNL     1      -0.384  -4.823   3.691  0.00  0.00    +0.136 C 
ATOM      8  C   UNL     1      -0.258  -3.300   3.440  0.00  0.00    +0.122 C 
ATOM      9  C   UNL     1      -1.211  -2.879   2.344  0.00  0.00    +0.228 C 
ATOM     10  O   UNL     1      -2.419  -2.835   2.445  0.00  0.00    -0.275 OA
ATOM     11  C   UNL     1      -0.047  -5.171   5.113  0.00  0.00    +0.006 A 
ATOM     12  C   UNL     1       1.077  -5.002   5.890  0.00  0.00    +0.046 A 
ATOM     13  C   UNL     1       1.085  -5.439   7.204  0.00  0.00    +0.124 A 
ATOM     14  C   UNL     1      -0.042  -6.047   7.733  0.00  0.00    +0.040 A 
ATOM     15  C   UNL     1      -1.170  -6.217   6.958  0.00  0.00    +0.026 A 
ATOM     16  C   UNL     1      -1.185  -5.780   5.636  0.00  0.00    +0.039 A 
ATOM     17  N   UNL     1      -2.189  -5.838   4.666  0.00  0.00    -0.283 N 
ATOM     18  C   UNL     1      -1.798  -5.298   3.496  0.00  0.00    +0.243 C 
ATOM     19  O   UNL     1      -2.457  -5.212   2.481  0.00  0.00    -0.273 OA
ATOM     20  F   UNL     1       2.187  -5.275   7.967  0.00  0.00    -0.205 F 
ATOM     21  H   UNL     1       0.121  -5.551   1.827  0.00  0.00    +0.124 HD
ATOM     22  H   UNL     1      -3.067  -6.223   4.817  0.00  0.00    +0.155 HD
ENDROOT
BRANCH   1  23
ATOM     23  C   UNL     1      -1.154  -2.126   0.002  0.00  0.00    +0.144 C 
BRANCH  23  24
ATOM     24  C   UNL     1      -1.295  -0.603   0.011  0.00  0.00    +0.179 C 
BRANCH  24  26
ATOM     25  C   UNL     1      -0.017   1.425   0.010  0.00  0.00    +0.194 C 
ATOM     26  O   UNL     1       0.002  -0.004   0.002  0.00  0.00    -0.381 OA
ENDBRANCH  24  26
ENDBRANCH  23  24
ENDBRANCH   1  23
BRANCH   5  27
ATOM     27  C   UNL     1       2.511  -4.771   1.416  0.00  0.00    +0.052 C 
BRANCH  27  28
ATOM     28  C   UNL     1       3.174  -6.124   1.431  0.00  0.00    -0.040 C 
ATOM     29  C   UNL     1       2.700  -7.267   0.885  0.00  0.00    -0.001 A 
ATOM     30  C   UNL     1       1.472  -7.581   0.144  0.00  0.00    +0.010 A 
ATOM     31  C   UNL     1       1.271  -8.848  -0.285  0.00  0.00    +0.001 A 
ATOM     32  C   UNL     1       2.202  -9.866  -0.041  0.00  0.00    +0.002 A 
ATOM     33  C   UNL     1       3.353  -9.655   0.633  0.00  0.00    +0.026 A 
ATOM     34  C   UNL     1       3.668  -8.360   1.130  0.00  0.00    +0.043 A 
ATOM     35  N   UNL     1       4.700  -7.910   1.801  0.00  0.00    -0.380 N 
ATOM     36  C   UNL     1       4.506  -6.478   2.053  0.00  0.00    +0.144 C 
ATOM     37  H   UNL     1       5.466  -8.435   2.081  0.00  0.00    +0.160 HD
ENDBRANCH  27  28
ENDBRANCH   5  27
TORSDOF 5
