REMARK  Name = ZINC06932336
REMARK  6 active torsions:
REMARK  status: ('A' for Active; 'I' for Inactive)
REMARK    1  A    between atoms: C_1  and  N_2
REMARK    2  A    between atoms: C_4  and  N_13
REMARK    3  A    between atoms: N_16  and  C_17
REMARK    4  A    between atoms: C_21  and  C_22
REMARK    5  A    between atoms: C_22  and  O_24
REMARK    6  A    between atoms: O_24  and  C_25
REMARK                            x       y       z     vdW  Elec       q    Type
REMARK                         _______ _______ _______ _____ _____    ______ ____
ROOT
ATOM      1  N   UNL     1       5.502   2.839   0.082  0.00  0.00    -0.267 N 
ATOM      2  C   UNL     1       5.832   2.031  -0.945  0.00  0.00    +0.308 C 
ATOM      3  O   UNL     1       6.572   2.435  -1.821  0.00  0.00    -0.252 OA
ATOM      4  N   UNL     1       5.344   0.777  -1.000  0.00  0.00    -0.268 N 
ATOM      5  H   UNL     1       4.964   2.498   0.814  0.00  0.00    +0.156 HD
ATOM      6  H   UNL     1       4.704   0.475  -0.335  0.00  0.00    +0.156 HD
ENDROOT
BRANCH   1  10
ATOM      7  C   UNL     1       4.379   7.530   0.141  0.00  0.00    +0.152 C 
ATOM      8  N   UNL     1       5.417   6.496   0.122  0.00  0.00    -0.316 N 
ATOM      9  C   UNL     1       5.038   5.181   0.111  0.00  0.00    +0.112 A 
ATOM     10  C   UNL     1       5.935   4.174   0.093  0.00  0.00    +0.059 A 
ATOM     11  C   UNL     1       7.368   4.487   0.091  0.00  0.00    +0.010 A 
ATOM     12  C   UNL     1       8.343   3.490   0.067  0.00  0.00    +0.010 A 
ATOM     13  C   UNL     1       9.664   3.840   0.059  0.00  0.00    +0.001 A 
ATOM     14  C   UNL     1      10.048   5.175   0.070  0.00  0.00    +0.001 A 
ATOM     15  C   UNL     1       9.114   6.174   0.088  0.00  0.00    +0.014 A 
ATOM     16  C   UNL     1       7.758   5.846   0.096  0.00  0.00    +0.048 A 
ATOM     17  C   UNL     1       6.711   6.873   0.115  0.00  0.00    +0.259 A 
ATOM     18  O   UNL     1       7.007   8.054   0.126  0.00  0.00    -0.267 OA
ENDBRANCH   1  10
BRANCH   4  19
ATOM     19  C   UNL     1       5.757  -0.089  -2.012  0.00  0.00    +0.056 A 
ATOM     20  C   UNL     1       6.051   0.368  -3.280  0.00  0.00    +0.032 A 
ATOM     21  C   UNL     1       6.449  -0.516  -4.228  0.00  0.00    +0.048 A 
ATOM     22  S   UNL     1       6.432  -2.035  -3.393  0.00  0.00    -0.088 S 
ATOM     23  C   UNL     1       5.893  -1.460  -1.793  0.00  0.00    +0.117 A 
BRANCH  23  24
ATOM     24  C   UNL     1       5.664  -2.200  -0.610  0.00  0.00    +0.347 C 
ATOM     25  O   UNL     1       5.295  -1.632   0.402  0.00  0.00    -0.244 OA
BRANCH  24  26
ATOM     26  O   UNL     1       5.856  -3.536  -0.602  0.00  0.00    -0.464 OA
ATOM     27  C   UNL     1       5.606  -4.220   0.628  0.00  0.00    +0.280 C 
ENDBRANCH  24  26
ENDBRANCH  23  24
ENDBRANCH   4  19
TORSDOF 4
