REMARK  Name = ZINC05409198
REMARK  5 active torsions:
REMARK  status: ('A' for Active; 'I' for Inactive)
REMARK    1  A    between atoms: C_6  and  C_7
REMARK    2  A    between atoms: C_8  and  C_13
REMARK    3  A    between atoms: C_16  and  C_27
REMARK    4  A    between atoms: C_22  and  N_26
REMARK    5  A    between atoms: C_23  and  C_24
REMARK                            x       y       z     vdW  Elec       q    Type
REMARK                         _______ _______ _______ _____ _____    ______ ____
ROOT
ATOM      1  C   UNL     1       0.570   4.010   1.412  0.00  0.00    +0.105 C 
ATOM      2  C   UNL     1       1.324   3.840   2.705  0.00  0.00    +0.054 A 
ATOM      3  C   UNL     1       0.917   3.223   3.892  0.00  0.00    +0.100 A 
ATOM      4  N   UNL     1       1.910   3.312   4.758  0.00  0.00    -0.171 NA
ATOM      5  N   UNL     1       2.973   3.990   4.141  0.00  0.00    -0.246 N 
ATOM      6  H   UNL     1       3.905   4.170   4.697  0.00  0.00    +0.192 HD
ATOM      7  C   UNL     1       2.594   4.306   2.886  0.00  0.00    +0.223 A 
ATOM      8  O   UNL     1       3.279   4.960   1.915  0.00  0.00    -0.423 OA
ATOM      9  C   UNL     1       2.583   5.392   0.843  0.00  0.00    +0.200 C 
ATOM     10  C   UNL     1       1.325   4.994   0.553  0.00  0.00    +0.098 C 
ENDROOT
BRANCH   1  12
ATOM     11  C   UNL     1       1.284   1.557   0.936  0.00  0.00    +0.097 A 
ATOM     12  C   UNL     1       0.473   2.684   0.702  0.00  0.00    +0.010 A 
ATOM     13  C   UNL     1      -0.406   2.367  -0.273  0.00  0.00    +0.110 A 
ATOM     14  N   UNL     1      -0.170   1.091  -0.648  0.00  0.00    -0.284 N 
ATOM     15  H   UNL     1      -0.777   0.630  -1.441  0.00  0.00    +0.188 HD
ATOM     16  N   UNL     1       0.888   0.598   0.126  0.00  0.00    -0.174 NA
BRANCH  11  22
ATOM     17  C   UNL     1       3.640   1.989   1.628  0.00  0.00    +0.013 A 
ATOM     18  C   UNL     1       4.660   1.905   2.554  0.00  0.00    +0.039 A 
ATOM     19  C   UNL     1       4.439   1.290   3.776  0.00  0.00    +0.123 A 
ATOM     20  C   UNL     1       3.194   0.761   4.075  0.00  0.00    +0.039 A 
ATOM     21  C   UNL     1       2.168   0.846   3.157  0.00  0.00    +0.013 A 
ATOM     22  C   UNL     1       2.385   1.464   1.927  0.00  0.00    +0.003 A 
ATOM     23  F   UNL     1       5.442   1.204   4.678  0.00  0.00    -0.205 F 
ENDBRANCH  11  22
ENDBRANCH   1  12
BRANCH   3  24
ATOM     24  C   UNL     1      -0.398   2.580   4.136  0.00  0.00    +0.005 A 
ATOM     25  C   UNL     1      -1.577   3.150   3.648  0.00  0.00    +0.030 A 
ATOM     26  C   UNL     1      -2.778   2.517   3.893  0.00  0.00    +0.111 A 
ATOM     27  N   UNL     1      -2.823   1.394   4.585  0.00  0.00    -0.263 NA
ATOM     28  C   UNL     1      -1.734   0.826   5.066  0.00  0.00    +0.111 A 
ATOM     29  C   UNL     1      -0.491   1.390   4.863  0.00  0.00    +0.030 A 
ENDBRANCH   3  24
BRANCH   9  30
ATOM     30  N   UNL     1       3.189   6.288  -0.003  0.00  0.00    -0.328 N 
ATOM     31  H   UNL     1       2.651   6.660  -0.887  0.00  0.00    +0.145 HD
ATOM     32  H   UNL     1       4.213   6.633   0.203  0.00  0.00    +0.145 HD
ENDBRANCH   9  30
BRANCH  10  33
ATOM     33  C   UNL     1       0.684   5.525  -0.613  0.00  0.00    +0.101 C 
ATOM     34  N   UNL     1       0.176   5.947  -1.537  0.00  0.00    -0.191 NA
ENDBRANCH  10  33
TORSDOF 5
