REMARK  Name = ZINC20354794
REMARK  8 active torsions:
REMARK  status: ('A' for Active; 'I' for Inactive)
REMARK    1  A    between atoms: C_1  and  C_2
REMARK    2  A    between atoms: N_8  and  C_9
REMARK    3  A    between atoms: C_9  and  C_10
REMARK    4  A    between atoms: C_10  and  C_11
REMARK    5  A    between atoms: C_11  and  N_12
REMARK    6  A    between atoms: C_13  and  C_15
REMARK    7  A    between atoms: C_15  and  C_16
REMARK    8  A    between atoms: C_19  and  N_22
REMARK                            x       y       z     vdW  Elec       q    Type
REMARK                         _______ _______ _______ _____ _____    ______ ____
ROOT
ATOM      1  C   UNL     1       5.457   9.032  -3.802  0.00  0.00    -0.038 A 
ATOM      2  C   UNL     1       6.317   9.503  -2.826  0.00  0.00    +0.006 A 
ATOM      3  C   UNL     1       7.449  10.208  -3.184  0.00  0.00    +0.028 A 
ATOM      4  C   UNL     1       7.718  10.455  -4.524  0.00  0.00    +0.067 A 
ATOM      5  C   UNL     1       6.849   9.986  -5.501  0.00  0.00    +0.028 A 
ATOM      6  C   UNL     1       5.721   9.276  -5.137  0.00  0.00    +0.006 A 
ENDROOT
BRANCH   4   7
ATOM      7  N   UNL     1       8.860  11.174  -4.889  0.00  0.00    -0.226 NA
ATOM      8  C   UNL     1       9.316  12.197  -4.088  0.00  0.00    +0.155 C 
ATOM      9  N   UNL     1      10.400  12.888  -4.245  0.00  0.00    -0.318 N 
ATOM     10  C   UNL     1      10.789  13.932  -3.316  0.00  0.00    +0.108 C 
ATOM     11  C   UNL     1      12.204  13.621  -2.772  0.00  0.00    +0.189 C 
ATOM     12  S   UNL     1      12.106  14.271  -1.052  0.00  0.00    -0.028 S 
ATOM     13  O   UNL     1      12.310  15.677  -1.044  0.00  0.00    -0.174 OA
ATOM     14  O   UNL     1      12.886  13.441  -0.203  0.00  0.00    -0.174 OA
ATOM     15  C   UNL     1      10.315  13.911  -0.783  0.00  0.00    +0.182 C 
ATOM     16  C   UNL     1       9.755  14.140  -2.200  0.00  0.00    +0.097 C 
ATOM     17  S   UNL     1       8.530  12.847  -2.626  0.00  0.00    -0.084 S 
ATOM     18  H   UNL     1      11.034  12.662  -5.115  0.00  0.00    +0.148 HD
ENDBRANCH   4   7
BRANCH   1  19
ATOM     19  C   UNL     1       4.226   8.257  -3.408  0.00  0.00    +0.130 C 
BRANCH  19  21
ATOM     20  N   UNL     1       3.600   5.896  -3.019  0.00  0.00    -0.315 N 
ATOM     21  C   UNL     1       4.554   6.787  -3.352  0.00  0.00    +0.217 C 
ATOM     22  O   UNL     1       5.678   6.407  -3.607  0.00  0.00    -0.275 OA
ATOM     23  H   UNL     1       2.582   6.241  -2.788  0.00  0.00    +0.149 HD
BRANCH  20  24
ATOM     24  C   UNL     1       3.919   4.467  -2.965  0.00  0.00    +0.102 C 
BRANCH  24  25
ATOM     25  C   UNL     1       2.669   3.680  -2.566  0.00  0.00    +0.000 C 
BRANCH  25  26
ATOM     26  C   UNL     1       3.003   2.188  -2.509  0.00  0.00    -0.077 C 
BRANCH  26  33
ATOM     27  C   UNL     1       2.388  -0.213  -3.841  0.00  0.00    -0.013 C 
ATOM     28  C   UNL     1       1.980  -0.003  -2.381  0.00  0.00    -0.072 C 
ATOM     29  C   UNL     1       0.666  -0.737  -2.108  0.00  0.00    -0.016 C 
ATOM     30  C   UNL     1       0.251  -0.507  -0.653  0.00  0.00    -0.003 C 
ATOM     31  C   UNL     1       0.120   0.997  -0.399  0.00  0.00    -0.019 C 
ATOM     32  C   UNL     1       1.450   1.682  -0.722  0.00  0.00    -0.078 C 
ATOM     33  N   UNL     1       1.803   1.432  -2.125  0.00  0.00    +0.381 N 
ATOM     34  H   UNL     1       0.967   1.783  -2.748  0.00  0.00    -0.081 HD
ENDBRANCH  26  33
ENDBRANCH  25  26
ENDBRANCH  24  25
ENDBRANCH  20  24
ENDBRANCH  19  21
ENDBRANCH   1  19
TORSDOF 7
