REMARK  Name = ZINC63625811
REMARK  11 active torsions:
REMARK  status: ('A' for Active; 'I' for Inactive)
REMARK    1  A    between atoms: C_1  and  C_2
REMARK    2  A    between atoms: C_3  and  C_36
REMARK    3  A    between atoms: C_4  and  C_35
REMARK    4  A    between atoms: C_6  and  C_8
REMARK    5  A    between atoms: C_13  and  C_16
REMARK    6  A    between atoms: C_16  and  C_17
REMARK    7  A    between atoms: N_19  and  C_20
REMARK    8  A    between atoms: C_20  and  C_21
REMARK    9  A    between atoms: C_21  and  C_22
REMARK   10  A    between atoms: C_22  and  N_23
REMARK   11  A    between atoms: C_26  and  N_29
REMARK                            x       y       z     vdW  Elec       q    Type
REMARK                         _______ _______ _______ _____ _____    ______ ____
ROOT
ATOM      1  C   UNL     1      -1.727   2.382   7.598  0.00  0.00    +0.213 C 
ATOM      2  O   UNL     1      -2.789   2.597   7.053  0.00  0.00    -0.276 OA
ATOM      3  N   UNL     1      -1.598   2.580   8.925  0.00  0.00    -0.315 N 
ATOM      4  H   UNL     1      -0.748   2.408   9.360  0.00  0.00    +0.149 HD
ENDROOT
BRANCH   1   5
ATOM      5  C   UNL     1      -0.551   1.895   6.791  0.00  0.00    +0.099 C 
BRANCH   5  11
ATOM      6  C   UNL     1      -1.206  -0.710   2.047  0.00  0.00    +0.244 C 
ATOM      7  O   UNL     1      -2.140  -1.478   1.958  0.00  0.00    -0.273 OA
ATOM      8  N   UNL     1      -1.269   0.333   2.898  0.00  0.00    -0.299 N 
ATOM      9  C   UNL     1      -0.148   1.276   3.011  0.00  0.00    +0.108 C 
ATOM     10  C   UNL     1       0.261   1.381   4.484  0.00  0.00    +0.023 C 
ATOM     11  C   UNL     1      -0.963   1.755   5.324  0.00  0.00    +0.001 C 
ATOM     12  C   UNL     1      -2.026   0.662   5.194  0.00  0.00    +0.023 C 
ATOM     13  C   UNL     1      -2.463   0.552   3.725  0.00  0.00    +0.108 C 
BRANCH   6  19
ATOM     14  C   UNL     1      -0.018   1.503   0.010  0.00  0.00    +0.042 C 
ATOM     15  C   UNL     1       0.002  -0.004   0.002  0.00  0.00    -0.035 C 
ATOM     16  C   UNL     1       0.009  -0.800  -1.066  0.00  0.00    -0.028 C 
ATOM     17  C   UNL     1       0.029  -2.198  -0.632  0.00  0.00    +0.037 C 
ATOM     18  N   UNL     1       0.036  -2.284   0.657  0.00  0.00    -0.271 NA
ATOM     19  C   UNL     1       0.026  -0.921   1.205  0.00  0.00    +0.217 C 
ATOM     20  C   UNL     1       0.041  -3.381  -1.566  0.00  0.00    +0.065 C 
ATOM     21  C   UNL     1      -0.004  -0.334  -2.499  0.00  0.00    +0.045 C 
ENDBRANCH   6  19
ENDBRANCH   5  11
ENDBRANCH   1   5
BRANCH   3  22
ATOM     22  C   UNL     1      -2.740   3.054   9.710  0.00  0.00    +0.102 C 
BRANCH  22  23
ATOM     23  C   UNL     1      -2.329   3.193  11.177  0.00  0.00    +0.000 C 
BRANCH  23  24
ATOM     24  C   UNL     1      -3.522   3.689  11.996  0.00  0.00    -0.077 C 
BRANCH  24  25
ATOM     25  N   UNL     1      -3.127   3.823  13.405  0.00  0.00    +0.380 N 
ATOM     26  C   UNL     1      -2.795   2.499  13.946  0.00  0.00    -0.077 C 
ATOM     27  C   UNL     1      -2.305   2.643  15.389  0.00  0.00    +0.000 C 
ATOM     28  C   UNL     1      -3.410   3.280  16.236  0.00  0.00    +0.053 C 
ATOM     29  C   UNL     1      -3.800   4.627  15.619  0.00  0.00    +0.000 C 
ATOM     30  C   UNL     1      -4.234   4.410  14.168  0.00  0.00    -0.077 C 
ATOM     31  H   UNL     1      -2.318   4.423  13.470  0.00  0.00    -0.082 HD
BRANCH  28  32
ATOM     32  N   UNL     1      -2.920   3.491  17.605  0.00  0.00    -0.300 NA
ATOM     33  C   UNL     1      -2.434   2.234  18.189  0.00  0.00    +0.084 C 
ATOM     34  C   UNL     1      -1.800   2.515  19.553  0.00  0.00    +0.015 C 
ATOM     35  C   UNL     1      -2.842   3.158  20.472  0.00  0.00    +0.002 C 
ATOM     36  C   UNL     1      -3.366   4.440  19.819  0.00  0.00    +0.015 C 
ATOM     37  C   UNL     1      -3.955   4.103  18.447  0.00  0.00    +0.084 C 
ENDBRANCH  28  32
ENDBRANCH  24  25
ENDBRANCH  23  24
ENDBRANCH  22  23
ENDBRANCH   3  22
TORSDOF 8
