REMARK  Name = ZINC38688643
REMARK  13 active torsions:
REMARK  status: ('A' for Active; 'I' for Inactive)
REMARK    1  A    between atoms: C_1  and  C_2
REMARK    2  A    between atoms: C_2  and  C_3
REMARK    3  A    between atoms: C_9  and  C_39
REMARK    4  A    between atoms: C_10  and  C_12
REMARK    5  A    between atoms: C_12  and  O_14
REMARK    6  A    between atoms: O_14  and  C_15
REMARK    7  A    between atoms: C_22  and  N_38
REMARK    8  A    between atoms: C_23  and  C_36
REMARK    9  A    between atoms: C_24  and  C_26
REMARK   10  A    between atoms: C_30  and  O_34
REMARK   11  A    between atoms: C_31  and  O_32
REMARK   12  A    between atoms: O_32  and  C_33
REMARK   13  A    between atoms: O_34  and  C_35
REMARK                            x       y       z     vdW  Elec       q    Type
REMARK                         _______ _______ _______ _____ _____    ______ ____
ROOT
ATOM      1  C   UNL     1       6.244  -3.148  -8.104  0.00  0.00    +0.136 A 
ATOM      2  C   UNL     1       7.156  -3.095  -7.059  0.00  0.00    +0.047 A 
ATOM      3  C   UNL     1       8.458  -3.507  -7.258  0.00  0.00    +0.012 A 
ATOM      4  C   UNL     1       8.860  -3.975  -8.497  0.00  0.00    +0.008 A 
ATOM      5  C   UNL     1       7.953  -4.030  -9.544  0.00  0.00    +0.138 A 
ATOM      6  C   UNL     1       6.641  -3.621  -9.344  0.00  0.00    +0.093 A 
ATOM      7  O   UNL     1       8.328  -4.486 -10.765  0.00  0.00    -0.441 OA
ATOM      8  C   UNL     1       9.629  -4.525 -11.096  0.00  0.00    +0.199 C 
ATOM      9  C   UNL     1      10.607  -4.496 -10.160  0.00  0.00    +0.098 C 
ATOM     10  C   UNL     1      10.285  -4.420  -8.694  0.00  0.00    +0.102 C 
ENDROOT
BRANCH  10  11
ATOM     11  C   UNL     1      10.473  -5.779  -8.070  0.00  0.00    +0.011 A 
ATOM     12  C   UNL     1       9.665  -6.834  -8.453  0.00  0.00    +0.008 A 
ATOM     13  C   UNL     1       9.835  -8.081  -7.883  0.00  0.00    +0.004 A 
ATOM     14  C   UNL     1      10.815  -8.280  -6.927  0.00  0.00    +0.049 A 
ATOM     15  C   UNL     1      11.628  -7.228  -6.540  0.00  0.00    +0.162 A 
ATOM     16  C   UNL     1      11.460  -5.973  -7.118  0.00  0.00    +0.166 A 
BRANCH  16  17
ATOM     17  O   UNL     1      12.260  -4.938  -6.745  0.00  0.00    -0.491 OA
ATOM     18  C   UNL     1      11.877  -4.211  -5.576  0.00  0.00    +0.277 C 
ENDBRANCH  16  17
BRANCH  15  19
ATOM     19  O   UNL     1      12.592  -7.422  -5.600  0.00  0.00    -0.491 OA
ATOM     20  C   UNL     1      12.710  -8.737  -5.054  0.00  0.00    +0.277 C 
ENDBRANCH  15  19
ENDBRANCH  10  11
BRANCH   8  21
ATOM     21  N   UNL     1       9.977  -4.596 -12.421  0.00  0.00    -0.328 N 
ATOM     22  H   UNL     1       9.288  -4.618 -13.104  0.00  0.00    +0.145 HD
ATOM     23  H   UNL     1      10.913  -4.625 -12.676  0.00  0.00    +0.145 HD
ENDBRANCH   8  21
BRANCH   9  24
ATOM     24  C   UNL     1      11.977  -4.539 -10.576  0.00  0.00    +0.101 C 
ATOM     25  N   UNL     1      13.064  -4.573 -10.905  0.00  0.00    -0.191 NA
ENDBRANCH   9  24
BRANCH   1  26
ATOM     26  O   UNL     1       4.961  -2.743  -7.909  0.00  0.00    -0.420 OA
BRANCH  26  27
ATOM     27  C   UNL     1       4.017  -3.691  -7.737  0.00  0.00    +0.380 C 
ATOM     28  O   UNL     1       4.308  -4.866  -7.846  0.00  0.00    -0.241 OA
BRANCH  27  36
ATOM     29  C   UNL     1      -1.773  -2.591  -6.414  0.00  0.00    -0.047 A 
ATOM     30  C   UNL     1      -1.334  -1.275  -6.459  0.00  0.00    +0.007 A 
ATOM     31  C   UNL     1      -0.017  -0.981  -6.739  0.00  0.00    +0.047 A 
ATOM     32  C   UNL     1       0.886  -2.010  -6.979  0.00  0.00    +0.136 A 
ATOM     33  C   UNL     1       0.436  -3.343  -6.931  0.00  0.00    +0.024 A 
ATOM     34  C   UNL     1      -0.902  -3.620  -6.641  0.00  0.00    +0.015 A 
ATOM     35  C   UNL     1       1.607  -4.168  -7.222  0.00  0.00    +0.010 A 
ATOM     36  C   UNL     1       2.638  -3.304  -7.417  0.00  0.00    +0.216 A 
ATOM     37  O   UNL     1       2.201  -2.035  -7.271  0.00  0.00    -0.448 OA
ATOM     38  C   UNL     1       1.661  -5.673  -7.292  0.00  0.00    +0.048 C 
BRANCH  29  40
ATOM     39  C   UNL     1      -3.397  -3.037  -4.593  0.00  0.00    +0.009 C 
ATOM     40  C   UNL     1      -3.218  -2.888  -6.106  0.00  0.00    +0.032 C 
ENDBRANCH  29  40
ENDBRANCH  27  36
ENDBRANCH  26  27
ENDBRANCH   1  26
TORSDOF 9
