REMARK  Name = ZINC23827494
REMARK  7 active torsions:
REMARK  status: ('A' for Active; 'I' for Inactive)
REMARK    1  A    between atoms: C_1  and  C_2
REMARK    2  A    between atoms: C_2  and  C_4
REMARK    3  A    between atoms: C_2  and  N_17
REMARK    4  A    between atoms: N_6  and  C_7
REMARK    5  A    between atoms: C_9  and  N_14
REMARK    6  A    between atoms: N_20  and  S_23
REMARK    7  A    between atoms: S_23  and  C_26
REMARK                            x       y       z     vdW  Elec       q    Type
REMARK                         _______ _______ _______ _____ _____    ______ ____
ROOT
ATOM      1  C   UNL     1       2.396   0.555  -5.291  0.00  0.00    -0.004 C 
ATOM      2  C   UNL     1       3.655  -0.222  -5.681  0.00  0.00    +0.017 C 
ENDROOT
BRANCH   2   3
ATOM      3  N   UNL     1       4.364  -0.647  -4.467  0.00  0.00    +0.389 N 
ATOM      4  C   UNL     1       4.511   0.470  -3.525  0.00  0.00    -0.060 C 
ATOM      5  C   UNL     1       5.407   0.037  -2.360  0.00  0.00    +0.091 C 
ATOM      6  N   UNL     1       4.857  -1.198  -1.780  0.00  0.00    -0.180 NA
ATOM      7  C   UNL     1       4.560  -2.319  -2.685  0.00  0.00    +0.091 C 
ATOM      8  C   UNL     1       3.691  -1.791  -3.838  0.00  0.00    -0.060 C 
ATOM      9  H   UNL     1       5.373  -0.973  -4.760  0.00  0.00    -0.081 HD
BRANCH   6  10
ATOM     10  S   UNL     1       4.585  -1.325  -0.152  0.00  0.00    +0.067 S 
ATOM     11  O   UNL     1       5.449  -0.390   0.478  0.00  0.00    -0.152 OA
ATOM     12  O   UNL     1       4.608  -2.712   0.157  0.00  0.00    -0.152 OA
BRANCH  10  13
ATOM     13  C   UNL     1       2.939  -0.770   0.146  0.00  0.00    +0.144 A 
ATOM     14  C   UNL     1       1.787  -1.482   0.155  0.00  0.00    +0.038 A 
ATOM     15  C   UNL     1       0.596  -0.829   0.416  0.00  0.00    +0.030 A 
ATOM     16  C   UNL     1       0.618   0.506   0.655  0.00  0.00    +0.080 A 
ATOM     17  S   UNL     1       2.358   0.878   0.515  0.00  0.00    -0.057 S 
ATOM     18 CL   UNL     1      -0.704   1.576   1.001  0.00  0.00    -0.076 Cl
ENDBRANCH  10  13
ENDBRANCH   6  10
ENDBRANCH   2   3
BRANCH   2  19
ATOM     19  C   UNL     1       4.556   0.662  -6.506  0.00  0.00    +0.203 C 
ATOM     20  O   UNL     1       5.569   1.118  -6.019  0.00  0.00    -0.277 OA
ATOM     21  N   UNL     1       4.235   0.946  -7.784  0.00  0.00    -0.286 N 
ATOM     22  H   UNL     1       3.283   0.590  -8.204  0.00  0.00    +0.155 HD
BRANCH  21  23
ATOM     23  C   UNL     1       5.114   1.693  -8.576  0.00  0.00    +0.054 A 
ATOM     24  C   UNL     1       5.971   2.613  -7.987  0.00  0.00    +0.057 A 
ATOM     25  C   UNL     1       6.838   3.349  -8.772  0.00  0.00    +0.128 A 
ATOM     26  C   UNL     1       6.854   3.169 -10.143  0.00  0.00    +0.034 A 
ATOM     27  C   UNL     1       6.002   2.254 -10.734  0.00  0.00    +0.024 A 
ATOM     28  C   UNL     1       5.136   1.511  -9.954  0.00  0.00    +0.062 A 
ATOM     29 CL   UNL     1       4.071   0.357 -10.695  0.00  0.00    -0.082 Cl
BRANCH  25  30
ATOM     30  N   UNL     1       7.751   4.330  -8.144  0.00  0.00    +0.056 N 
ATOM     31  O   UNL     1       7.738   4.488  -6.936  0.00  0.00    -0.126 OA
ATOM     32  O   UNL     1       8.516   4.979  -8.835  0.00  0.00    -0.126 OA
ENDBRANCH  25  30
ENDBRANCH  21  23
ENDBRANCH   2  19
TORSDOF 6
