REMARK  Name = ZINC13778953
REMARK  3 active torsions:
REMARK  status: ('A' for Active; 'I' for Inactive)
REMARK    1  A    between atoms: C_16  and  N_18
REMARK    2  A    between atoms: C_24  and  C_26
REMARK    3  A    between atoms: C_26  and  C_27
REMARK                            x       y       z     vdW  Elec       q    Type
REMARK                         _______ _______ _______ _____ _____    ______ ____
ROOT
ATOM      1  C   UNL     1       3.515   1.080 -12.313  0.00  0.00    +0.020 A 
ATOM      2  C   UNL     1       3.116   0.444 -11.165  0.00  0.00    +0.007 A 
ATOM      3  C   UNL     1       1.807  -0.062 -11.015  0.00  0.00    -0.021 A 
ATOM      4  C   UNL     1       0.910   0.131 -11.976  0.00  0.00    -0.041 A 
ATOM      5  C   UNL     1       1.330   0.741 -13.181  0.00  0.00    +0.024 A 
ATOM      6  C   UNL     1       2.607   1.212 -13.350  0.00  0.00    +0.041 A 
ATOM      7 CL   UNL     1       3.079   1.962 -14.842  0.00  0.00    -0.084 Cl
ATOM      8  C   UNL     1      -0.577  -0.144 -12.044  0.00  0.00    +0.040 C 
ATOM      9  C   UNL     1      -0.991  -1.491 -11.537  0.00  0.00    +0.041 C 
ATOM     10  C   UNL     1      -0.682  -1.742 -10.077  0.00  0.00    -0.023 A 
ATOM     11  C   UNL     1      -1.798  -2.345  -9.446  0.00  0.00    +0.022 A 
ATOM     12  C   UNL     1      -1.719  -2.746  -8.132  0.00  0.00    +0.036 A 
ATOM     13  C   UNL     1      -0.522  -2.557  -7.463  0.00  0.00    +0.126 A 
ATOM     14  N   UNL     1       0.470  -1.966  -8.075  0.00  0.00    -0.257 NA
ATOM     15  C   UNL     1       0.405  -1.517  -9.348  0.00  0.00    +0.066 A 
ATOM     16  C   UNL     1       1.626  -0.783  -9.738  0.00  0.00    +0.137 C 
ATOM     17 BR   UNL     1      -3.204  -3.533  -7.264  0.00  0.00    -0.049 Br
ENDROOT
BRANCH  16  18
ATOM     18  N   UNL     1       1.874   0.198  -8.672  0.00  0.00    -0.287 NA
ATOM     19  C   UNL     1       0.663   0.976  -8.380  0.00  0.00    +0.104 C 
ATOM     20  C   UNL     1       1.007   2.102  -7.400  0.00  0.00    +0.123 C 
ATOM     21  N   UNL     1       1.666   1.513  -6.225  0.00  0.00    -0.299 N 
ATOM     22  C   UNL     1       2.810   0.615  -6.445  0.00  0.00    +0.123 C 
ATOM     23  C   UNL     1       2.392  -0.457  -7.463  0.00  0.00    +0.104 C 
ATOM     24  C   UNL     1       1.238   1.794  -4.978  0.00  0.00    +0.216 C 
ATOM     25  O   UNL     1       0.296   2.540  -4.814  0.00  0.00    -0.276 OA
BRANCH  24  26
ATOM     26  C   UNL     1       1.928   1.179  -3.788  0.00  0.00    +0.099 C 
BRANCH  26  27
ATOM     27  C   UNL     1       1.250   1.657  -2.502  0.00  0.00    -0.006 C 
ATOM     28  C   UNL     1       2.026   1.135  -1.290  0.00  0.00    -0.015 C 
ATOM     29  C   UNL     1       1.310   1.566  -0.008  0.00  0.00    -0.082 C 
ATOM     30  N   UNL     1      -0.057   1.030  -0.005  0.00  0.00    +0.379 N 
ATOM     31  C   UNL     1      -0.836   1.555  -1.133  0.00  0.00    -0.082 C 
ATOM     32  C   UNL     1      -0.184   1.123  -2.449  0.00  0.00    -0.015 C 
ATOM     33  H   UNL     1      -0.021  -0.067  -0.083  0.00  0.00    -0.086 HD
ATOM     34  H   UNL     1      -0.560   1.314   0.931  0.00  0.00    -0.086 HD
ENDBRANCH  26  27
ENDBRANCH  24  26
ENDBRANCH  16  18
TORSDOF 3
