REMARK  Name = ZINC39676542
REMARK  9 active torsions:
REMARK  status: ('A' for Active; 'I' for Inactive)
REMARK    1  A    between atoms: C_1  and  O_2
REMARK    2  A    between atoms: O_2  and  C_3
REMARK    3  A    between atoms: C_6  and  C_9
REMARK    4  A    between atoms: C_9  and  C_10
REMARK    5  A    between atoms: C_9  and  N_18
REMARK    6  A    between atoms: C_13  and  O_16
REMARK    7  A    between atoms: O_16  and  C_17
REMARK    8  A    between atoms: C_19  and  C_21
REMARK    9  A    between atoms: C_32  and  C_34
REMARK                            x       y       z     vdW  Elec       q    Type
REMARK                         _______ _______ _______ _____ _____    ______ ____
ROOT
ATOM      1  N   UNL     1       3.716  -3.544   1.185  0.00  0.00    -0.304 N 
ATOM      2  C   UNL     1       4.509  -3.924   2.206  0.00  0.00    +0.219 C 
ATOM      3  O   UNL     1       4.461  -3.331   3.264  0.00  0.00    -0.275 OA
ATOM      4  H   UNL     1       3.754  -4.018   0.339  0.00  0.00    +0.150 HD
ENDROOT
BRANCH   2   5
ATOM      5  C   UNL     1       5.455  -5.084   2.035  0.00  0.00    +0.100 C 
ATOM      6  C   UNL     1       5.640  -5.830   3.375  0.00  0.00    +0.121 C 
ATOM      7  N   UNL     1       7.068  -6.224   3.390  0.00  0.00    -0.296 N 
ATOM      8  C   UNL     1       7.778  -5.061   2.808  0.00  0.00    +0.115 C 
ATOM      9  C   UNL     1       6.860  -4.580   1.666  0.00  0.00    -0.004 C 
ATOM     10  C   UNL     1       6.871  -3.056   1.587  0.00  0.00    -0.010 C 
ATOM     11  C   UNL     1       8.263  -2.582   1.162  0.00  0.00    -0.082 C 
ATOM     12  N   UNL     1       8.603  -3.162  -0.143  0.00  0.00    +0.379 N 
ATOM     13  C   UNL     1       8.682  -4.624  -0.036  0.00  0.00    -0.082 C 
ATOM     14  C   UNL     1       7.307  -5.185   0.339  0.00  0.00    -0.010 C 
ATOM     15  C   UNL     1       7.601  -7.380   3.833  0.00  0.00    +0.249 C 
ATOM     16  O   UNL     1       8.808  -7.525   3.853  0.00  0.00    -0.270 OA
ATOM     17  H   UNL     1       7.893  -2.913  -0.815  0.00  0.00    -0.086 HD
ATOM     18  H   UNL     1       9.494  -2.800  -0.449  0.00  0.00    -0.086 HD
BRANCH  15  19
ATOM     19  C   UNL     1       6.720  -8.472   4.294  0.00  0.00    +0.072 A 
ATOM     20  C   UNL     1       5.574  -8.181   5.038  0.00  0.00    +0.016 A 
ATOM     21  C   UNL     1       4.755  -9.205   5.465  0.00  0.00    +0.001 A 
ATOM     22  C   UNL     1       5.064 -10.519   5.159  0.00  0.00    +0.003 A 
ATOM     23  C   UNL     1       6.196 -10.817   4.423  0.00  0.00    +0.039 A 
ATOM     24  C   UNL     1       7.024  -9.800   3.983  0.00  0.00    +0.135 A 
ATOM     25  F   UNL     1       8.127 -10.091   3.259  0.00  0.00    -0.205 F 
ENDBRANCH  15  19
ENDBRANCH   2   5
BRANCH   1  26
ATOM     26  C   UNL     1       2.796  -2.416   1.352  0.00  0.00    +0.134 C 
BRANCH  26  30
ATOM     27  C   UNL     1       4.868   1.238   0.564  0.00  0.00    +0.120 A 
ATOM     28  C   UNL     1       3.957   1.167   1.608  0.00  0.00    +0.046 A 
ATOM     29  C   UNL     1       3.289  -0.015   1.861  0.00  0.00    +0.009 A 
ATOM     30  C   UNL     1       3.527  -1.127   1.074  0.00  0.00    -0.023 A 
ATOM     31  C   UNL     1       4.434  -1.059   0.033  0.00  0.00    +0.009 A 
ATOM     32  C   UNL     1       5.101   0.123  -0.228  0.00  0.00    +0.046 A 
BRANCH  27  34
ATOM     33  C   UNL     1       5.237   3.508   1.169  0.00  0.00    +0.277 C 
ATOM     34  O   UNL     1       5.527   2.400   0.313  0.00  0.00    -0.495 OA
ENDBRANCH  27  34
ENDBRANCH  26  30
BRANCH  26  35
ATOM     35  C   UNL     1       1.646  -2.558   0.389  0.00  0.00    -0.023 A 
ATOM     36  C   UNL     1       1.875  -3.011  -0.897  0.00  0.00    +0.009 A 
ATOM     37  C   UNL     1       0.822  -3.143  -1.782  0.00  0.00    +0.046 A 
ATOM     38  C   UNL     1      -0.466  -2.821  -1.378  0.00  0.00    +0.120 A 
ATOM     39  C   UNL     1      -0.693  -2.367  -0.087  0.00  0.00    +0.046 A 
ATOM     40  C   UNL     1       0.363  -2.242   0.795  0.00  0.00    +0.009 A 
BRANCH  38  41
ATOM     41  O   UNL     1      -1.504  -2.949  -2.247  0.00  0.00    -0.495 OA
ATOM     42  C   UNL     1      -2.802  -2.599  -1.763  0.00  0.00    +0.277 C 
ENDBRANCH  38  41
ENDBRANCH  26  35
ENDBRANCH   1  26
TORSDOF 7
