REMARK  Name = ZINC17003893
REMARK  11 active torsions:
REMARK  status: ('A' for Active; 'I' for Inactive)
REMARK    1  A    between atoms: C_1  and  N_68
REMARK    2  A    between atoms: C_8  and  O_34
REMARK    3  A    between atoms: C_10  and  C_12
REMARK    4  A    between atoms: C_17  and  O_32
REMARK    5  A    between atoms: C_18  and  O_30
REMARK    6  A    between atoms: C_20  and  C_22
REMARK    7  A    between atoms: C_20  and  O_29
REMARK    8  A    between atoms: C_22  and  C_23
REMARK    9  A    between atoms: O_30  and  C_31
REMARK   10  A    between atoms: O_32  and  C_33
REMARK   11  A    between atoms: O_34  and  C_35
REMARK                            x       y       z     vdW  Elec       q    Type
REMARK                         _______ _______ _______ _____ _____    ______ ____
ROOT
ATOM      1  C   UNL     1      -4.228   1.148   3.284  0.00  0.00    +0.143 C 
ATOM      2  C   UNL     1      -4.826  -0.223   3.074  0.00  0.00    -0.008 A 
ATOM      3  C   UNL     1      -5.952  -0.839   3.580  0.00  0.00    +0.010 A 
ATOM      4  C   UNL     1      -6.263  -2.133   3.205  0.00  0.00    +0.050 A 
ATOM      5  C   UNL     1      -5.444  -2.814   2.319  0.00  0.00    +0.162 A 
ATOM      6  C   UNL     1      -4.308  -2.193   1.807  0.00  0.00    +0.170 A 
ATOM      7  C   UNL     1      -4.003  -0.899   2.186  0.00  0.00    +0.062 A 
ATOM      8  C   UNL     1      -2.872   0.035   1.823  0.00  0.00    +0.202 C 
ATOM      9  O   UNL     1      -3.315   1.354   2.190  0.00  0.00    -0.338 OA
ENDROOT
BRANCH   1  19
ATOM     10  C   UNL     1      -5.221   2.393   0.850  0.00  0.00    -0.095 C 
ATOM     11  C   UNL     1      -7.247   2.998   2.034  0.00  0.00    -0.074 C 
ATOM     12  C   UNL     1      -8.273   2.426   3.014  0.00  0.00    +0.017 C 
ATOM     13  C   UNL     1      -7.609   2.115   4.331  0.00  0.00    -0.040 A 
ATOM     14  C   UNL     1      -8.411   1.928   5.446  0.00  0.00    +0.053 A 
ATOM     15  C   UNL     1      -7.848   1.633   6.676  0.00  0.00    +0.170 A 
ATOM     16  C   UNL     1      -6.466   1.524   6.793  0.00  0.00    +0.208 A 
ATOM     17  C   UNL     1      -5.666   1.714   5.676  0.00  0.00    +0.167 A 
ATOM     18  C   UNL     1      -6.239   2.011   4.443  0.00  0.00    -0.009 A 
ATOM     19  C   UNL     1      -5.327   2.212   3.260  0.00  0.00    -0.000 C 
ATOM     20  O   UNL     1      -6.160   1.230   8.091  0.00  0.00    -0.449 OA
ATOM     21  C   UNL     1      -7.338   1.562   8.849  0.00  0.00    +0.467 C 
ATOM     22  O   UNL     1      -8.410   1.407   7.900  0.00  0.00    -0.452 OA
ATOM     23  N   UNL     1      -6.090   2.081   2.008  0.00  0.00    +0.385 N 
ATOM     24  H   UNL     1      -6.428   1.116   1.921  0.00  0.00    -0.081 HD
BRANCH  17  25
ATOM     25  O   UNL     1      -4.315   1.608   5.786  0.00  0.00    -0.491 OA
ATOM     26  C   UNL     1      -3.607   2.769   6.226  0.00  0.00    +0.277 C 
ENDBRANCH  17  25
ENDBRANCH   1  19
BRANCH   8  27
ATOM     27  O   UNL     1      -1.693  -0.311   2.553  0.00  0.00    -0.361 OA
ATOM     28  H   UNL     1      -0.936   0.263   2.373  0.00  0.00    +0.213 HD
ENDBRANCH   8  27
BRANCH   6  29
ATOM     29  O   UNL     1      -3.501  -2.858   0.937  0.00  0.00    -0.491 OA
ATOM     30  C   UNL     1      -2.432  -3.622   1.498  0.00  0.00    +0.277 C 
ENDBRANCH   6  29
BRANCH   5  31
ATOM     31  O   UNL     1      -5.750  -4.087   1.949  0.00  0.00    -0.491 OA
ATOM     32  C   UNL     1      -6.931  -4.660   2.514  0.00  0.00    +0.277 C 
ENDBRANCH   5  31
BRANCH   8  33
ATOM     33  C   UNL     1      -2.598  -0.030   0.319  0.00  0.00    +0.105 C 
BRANCH  33  34
ATOM     34  C   UNL     1      -1.512   0.953  -0.037  0.00  0.00    -0.042 A 
ATOM     35  C   UNL     1      -0.192   0.544  -0.061  0.00  0.00    +0.004 A 
ATOM     36  C   UNL     1       0.804   1.444  -0.393  0.00  0.00    +0.000 A 
ATOM     37  C   UNL     1       0.479   2.754  -0.694  0.00  0.00    +0.000 A 
ATOM     38  C   UNL     1      -0.841   3.163  -0.664  0.00  0.00    +0.000 A 
ATOM     39  C   UNL     1      -1.836   2.263  -0.334  0.00  0.00    +0.004 A 
ENDBRANCH  33  34
ENDBRANCH   8  33
TORSDOF 7
