REMARK  Name = ZINC01211195
REMARK  7 active torsions:
REMARK  status: ('A' for Active; 'I' for Inactive)
REMARK    1  A    between atoms: C_1  and  C_2
REMARK    2  A    between atoms: C_2  and  C_3
REMARK    3  A    between atoms: C_15  and  C_17
REMARK    4  A    between atoms: C_21  and  N_23
REMARK    5  A    between atoms: C_29  and  C_32
REMARK    6  A    between atoms: C_35  and  O_38
REMARK    7  A    between atoms: O_38  and  C_39
REMARK                            x       y       z     vdW  Elec       q    Type
REMARK                         _______ _______ _______ _____ _____    ______ ____
ROOT
ATOM      1  C   UNL     1       6.177   8.529  -1.504  0.00  0.00    +0.220 C 
ATOM      2  O   UNL     1       5.956   9.340  -0.630  0.00  0.00    -0.275 OA
ATOM      3  N   UNL     1       6.060   7.212  -1.247  0.00  0.00    -0.258 N 
ATOM      4  C   UNL     1       6.316   6.288  -2.259  0.00  0.00    +0.058 A 
ATOM      5  C   UNL     1       7.593   6.119  -2.774  0.00  0.00    +0.025 A 
ATOM      6  C   UNL     1       7.820   5.136  -3.721  0.00  0.00    +0.002 A 
ATOM      7  C   UNL     1       6.785   4.327  -4.154  0.00  0.00    +0.002 A 
ATOM      8  C   UNL     1       5.505   4.508  -3.660  0.00  0.00    +0.025 A 
ATOM      9  C   UNL     1       5.274   5.503  -2.727  0.00  0.00    +0.053 A 
ATOM     10  N   UNL     1       4.005   5.775  -2.226  0.00  0.00    -0.316 N 
ATOM     11  C   UNL     1       3.635   5.626  -0.927  0.00  0.00    +0.017 C 
ATOM     12  C   UNL     1       4.338   6.063   0.130  0.00  0.00    +0.037 C 
ATOM     13  C   UNL     1       5.670   6.776   0.076  0.00  0.00    +0.147 C 
ATOM     14  C   UNL     1       3.855   5.855   1.444  0.00  0.00    +0.163 C 
ATOM     15  O   UNL     1       4.498   6.287   2.381  0.00  0.00    -0.292 OA
ATOM     16  C   UNL     1       2.577   5.122   1.721  0.00  0.00    +0.088 C 
ATOM     17  C   UNL     1       2.329   4.127   0.581  0.00  0.00    +0.032 C 
ATOM     18  C   UNL     1       2.306   4.917  -0.727  0.00  0.00    +0.059 C 
ATOM     19  H   UNL     1       3.335   6.095  -2.849  0.00  0.00    +0.152 HD
ENDROOT
BRANCH  13  20
ATOM     20  C   UNL     1       6.731   5.847   0.607  0.00  0.00    -0.020 A 
ATOM     21  C   UNL     1       7.427   6.176   1.755  0.00  0.00    +0.006 A 
ATOM     22  C   UNL     1       8.401   5.324   2.242  0.00  0.00    +0.003 A 
ATOM     23  C   UNL     1       8.678   4.143   1.581  0.00  0.00    +0.033 A 
ATOM     24  C   UNL     1       7.982   3.812   0.433  0.00  0.00    +0.127 A 
ATOM     25  C   UNL     1       7.005   4.663  -0.051  0.00  0.00    +0.038 A 
BRANCH  24  26
ATOM     26  N   UNL     1       8.279   2.547  -0.274  0.00  0.00    +0.056 N 
ATOM     27  O   UNL     1       9.137   1.796   0.154  0.00  0.00    -0.126 OA
ATOM     28  O   UNL     1       7.665   2.256  -1.285  0.00  0.00    -0.126 OA
ENDBRANCH  24  26
ENDBRANCH  13  20
BRANCH  17  29
ATOM     29  C   UNL     1       1.005   3.437   0.784  0.00  0.00    -0.043 A 
ATOM     30  C   UNL     1       0.957   2.062   0.921  0.00  0.00    +0.007 A 
ATOM     31  C   UNL     1      -0.255   1.426   1.107  0.00  0.00    +0.046 A 
ATOM     32  C   UNL     1      -1.426   2.169   1.151  0.00  0.00    +0.120 A 
ATOM     33  C   UNL     1      -1.375   3.549   1.018  0.00  0.00    +0.046 A 
ATOM     34  C   UNL     1      -0.161   4.179   0.832  0.00  0.00    +0.007 A 
BRANCH  32  35
ATOM     35  O   UNL     1      -2.621   1.545   1.328  0.00  0.00    -0.495 OA
ATOM     36  C   UNL     1      -3.785   2.373   1.363  0.00  0.00    +0.277 C 
ENDBRANCH  32  35
ENDBRANCH  17  29
BRANCH   1  38
ATOM     37  C   UNL     1       6.641  10.524  -2.903  0.00  0.00    +0.013 C 
ATOM     38  C   UNL     1       6.583   8.995  -2.879  0.00  0.00    +0.093 C 
ENDBRANCH   1  38
TORSDOF 5
