REMARK  Name = ZINC06350273
REMARK  7 active torsions:
REMARK  status: ('A' for Active; 'I' for Inactive)
REMARK    1  A    between atoms: C_1  and  C_2
REMARK    2  A    between atoms: C_2  and  O_3
REMARK    3  A    between atoms: O_3  and  C_4
REMARK    4  A    between atoms: C_4  and  C_6
REMARK    5  A    between atoms: C_7  and  N_18
REMARK    6  A    between atoms: C_16  and  C_17
REMARK    7  A    between atoms: C_19  and  C_21
REMARK                            x       y       z     vdW  Elec       q    Type
REMARK                         _______ _______ _______ _____ _____    ______ ____
ROOT
ATOM      1  C   UNL     1      -1.466   5.226   2.879  0.00  0.00    +0.114 C 
ATOM      2  C   UNL     1      -1.391   3.866   2.613  0.00  0.00    +0.110 C 
ATOM      3  N   UNL     1      -1.976   3.008   3.497  0.00  0.00    -0.300 N 
ATOM      4  C   UNL     1      -1.567   2.845   4.823  0.00  0.00    +0.056 A 
ATOM      5  C   UNL     1      -1.421   1.530   5.273  0.00  0.00    +0.025 A 
ATOM      6  C   UNL     1      -1.018   1.267   6.565  0.00  0.00    +0.002 A 
ATOM      7  C   UNL     1      -0.754   2.312   7.431  0.00  0.00    +0.002 A 
ATOM      8  C   UNL     1      -0.897   3.614   6.999  0.00  0.00    +0.027 A 
ATOM      9  C   UNL     1      -1.306   3.889   5.693  0.00  0.00    +0.061 A 
ATOM     10  N   UNL     1      -1.425   5.244   5.351  0.00  0.00    -0.356 N 
ATOM     11  C   UNL     1      -2.033   5.663   4.173  0.00  0.00    +0.030 C 
ATOM     12  C   UNL     1      -3.112   6.450   4.210  0.00  0.00    +0.064 C 
ATOM     13  H   UNL     1      -2.827   2.387   3.179  0.00  0.00    +0.153 HD
ATOM     14  H   UNL     1      -1.016   5.986   6.054  0.00  0.00    +0.166 HD
ENDROOT
BRANCH   2  15
ATOM     15  N   UNL     1      -0.751   3.399   1.490  0.00  0.00    -0.273 N 
ATOM     16  C   UNL     1      -0.789   2.086   1.190  0.00  0.00    +0.222 C 
ATOM     17  O   UNL     1      -1.389   1.316   1.910  0.00  0.00    -0.275 OA
ATOM     18  H   UNL     1      -0.207   4.097   0.836  0.00  0.00    +0.156 HD
BRANCH  16  19
ATOM     19  C   UNL     1      -0.088   1.573  -0.042  0.00  0.00    +0.083 C 
ATOM     20  C   UNL     1       1.445   1.748   0.093  0.00  0.00    +0.021 C 
ATOM     21  C   UNL     1       1.991   0.286   0.022  0.00  0.00    +0.013 C 
ATOM     22  C   UNL     1       0.855  -0.479   0.794  0.00  0.00    +0.016 C 
ATOM     23  C   UNL     1      -0.273   0.028  -0.177  0.00  0.00    +0.024 C 
ATOM     24  C   UNL     1       0.373  -0.308  -1.526  0.00  0.00    -0.027 C 
ATOM     25  C   UNL     1       1.678  -0.160  -1.412  0.00  0.00    -0.027 C 
ENDBRANCH  16  19
ENDBRANCH   2  15
BRANCH   1  26
ATOM     26  C   UNL     1      -1.012   6.173   1.933  0.00  0.00    +0.344 C 
ATOM     27  O   UNL     1      -0.661   5.807   0.827  0.00  0.00    -0.245 OA
BRANCH  26  28
ATOM     28  O   UNL     1      -0.969   7.483   2.257  0.00  0.00    -0.461 OA
BRANCH  28  30
ATOM     29  C   UNL     1      -0.520   9.813   1.798  0.00  0.00    +0.048 C 
ATOM     30  C   UNL     1      -0.499   8.384   1.252  0.00  0.00    +0.229 C 
ENDBRANCH  28  30
ENDBRANCH  26  28
ENDBRANCH   1  26
TORSDOF 5
