REMARK  Name = ZINC50346824
REMARK  6 active torsions:
REMARK  status: ('A' for Active; 'I' for Inactive)
REMARK    1  A    between atoms: C_1  and  C_2
REMARK    2  A    between atoms: C_5  and  N_9
REMARK    3  A    between atoms: C_12  and  C_15
REMARK    4  A    between atoms: C_15  and  C_16
REMARK    5  A    between atoms: C_15  and  C_17
REMARK    6  A    between atoms: C_15  and  C_18
REMARK                            x       y       z     vdW  Elec       q    Type
REMARK                         _______ _______ _______ _____ _____    ______ ____
ROOT
ATOM      1  C   UNL     1      -0.013   1.086   0.008  0.00  0.00    +0.085 C 
ATOM      2  C   UNL     1      -0.742   1.585  -1.213  0.00  0.00    +0.102 C 
ATOM      3  N   UNL     1      -1.256   0.800  -2.106  0.00  0.00    -0.245 NA
ATOM      4  C   UNL     1      -1.871   1.672  -3.123  0.00  0.00    +0.238 C 
ATOM      5  C   UNL     1      -1.584   3.066  -2.598  0.00  0.00    +0.111 C 
ATOM      6  N   UNL     1      -0.927   2.882  -1.480  0.00  0.00    -0.333 N 
ATOM      7  N   UNL     1      -1.938   4.250  -3.163  0.00  0.00    -0.345 N 
ATOM      8  H   UNL     1      -2.431   4.261  -3.998  0.00  0.00    +0.143 HD
ATOM      9  H   UNL     1      -1.696   5.085  -2.731  0.00  0.00    +0.143 HD
ATOM     10  H   UNL     1      -0.609   3.602  -0.913  0.00  0.00    +0.168 HD
ENDROOT
BRANCH   4  11
ATOM     11  N   UNL     1      -1.240   1.467  -4.434  0.00  0.00    -0.275 NA
ATOM     12  C   UNL     1       0.205   1.721  -4.367  0.00  0.00    +0.087 C 
ATOM     13  C   UNL     1       0.803   1.641  -5.774  0.00  0.00    +0.019 C 
ATOM     14  C   UNL     1       0.537   0.251  -6.358  0.00  0.00    -0.003 C 
ATOM     15  C   UNL     1      -0.972  -0.008  -6.371  0.00  0.00    +0.019 C 
ATOM     16  C   UNL     1      -1.519   0.120  -4.947  0.00  0.00    +0.087 C 
BRANCH  14  17
ATOM     17  C   UNL     1       1.080   0.184  -7.787  0.00  0.00    -0.035 C 
ATOM     18  C   UNL     1       2.586   0.451  -7.773  0.00  0.00    +0.011 C 
ATOM     19  C   UNL     1       0.813  -1.205  -8.369  0.00  0.00    +0.011 C 
ATOM     20  C   UNL     1       0.382   1.240  -8.647  0.00  0.00    +0.011 C 
ENDBRANCH  14  17
ENDBRANCH   4  11
TORSDOF 2
