REMARK  Name = ZINC58175759
REMARK  10 active torsions:
REMARK  status: ('A' for Active; 'I' for Inactive)
REMARK    1  A    between atoms: C_1  and  C_2
REMARK    2  A    between atoms: C_7  and  N_12
REMARK    3  A    between atoms: C_9  and  C_11
REMARK    4  A    between atoms: N_12  and  C_13
REMARK    5  A    between atoms: N_12  and  C_23
REMARK    6  A    between atoms: C_13  and  C_14
REMARK    7  A    between atoms: C_23  and  C_24
REMARK    8  A    between atoms: N_26  and  C_27
REMARK    9  A    between atoms: C_30  and  S_33
REMARK   10  A    between atoms: S_33  and  N_36
REMARK                            x       y       z     vdW  Elec       q    Type
REMARK                         _______ _______ _______ _____ _____    ______ ____
ROOT
ATOM      1  N   UNL     1       1.480  -2.476   2.263  0.00  0.00    +0.390 N 
ATOM      2  H   UNL     1       2.291  -2.015   1.878  0.00  0.00    -0.080 HD
ENDROOT
BRANCH   1   8
ATOM      3  C   UNL     1      -0.248  -1.391  -2.244  0.00  0.00    +0.008 C 
ATOM      4  C   UNL     1      -0.604  -1.526  -0.762  0.00  0.00    -0.013 C 
ATOM      5  C   UNL     1      -1.692  -2.587  -0.593  0.00  0.00    +0.003 C 
ATOM      6  C   UNL     1      -2.048  -2.722   0.889  0.00  0.00    -0.001 C 
ATOM      7  C   UNL     1      -0.803  -3.138   1.676  0.00  0.00    -0.015 C 
ATOM      8  C   UNL     1       0.285  -2.076   1.507  0.00  0.00    -0.064 C 
ATOM      9  C   UNL     1       0.641  -1.942   0.025  0.00  0.00    -0.025 C 
ATOM     10  C   UNL     1       1.730  -0.880  -0.144  0.00  0.00    +0.006 C 
ENDBRANCH   1   8
BRANCH   1  11
ATOM     11  C   UNL     1       1.321  -2.090   3.671  0.00  0.00    -0.042 C 
BRANCH  11  12
ATOM     12  C   UNL     1       1.308  -0.587   3.782  0.00  0.00    -0.060 A 
ATOM     13  C   UNL     1       2.500   0.112   3.826  0.00  0.00    +0.005 A 
ATOM     14  C   UNL     1       2.493   1.490   3.927  0.00  0.00    +0.050 A 
ATOM     15  C   UNL     1       1.290   2.176   3.984  0.00  0.00    +0.166 A 
ATOM     16  C   UNL     1       0.089   1.472   3.939  0.00  0.00    +0.166 A 
ATOM     17  C   UNL     1       0.104   0.091   3.833  0.00  0.00    +0.051 A 
ATOM     18  O   UNL     1      -0.942   2.364   4.011  0.00  0.00    -0.453 OA
ATOM     19  C   UNL     1      -0.361   3.583   4.510  0.00  0.00    +0.466 C 
ATOM     20  O   UNL     1       1.012   3.508   4.083  0.00  0.00    -0.453 OA
ENDBRANCH  11  12
ENDBRANCH   1  11
BRANCH   1  21
ATOM     21  C   UNL     1       1.654  -3.932   2.171  0.00  0.00    +0.020 C 
BRANCH  21  22
ATOM     22  C   UNL     1       2.201  -4.288   0.813  0.00  0.00    +0.201 C 
ATOM     23  O   UNL     1       2.611  -3.415   0.077  0.00  0.00    -0.278 OA
ATOM     24  N   UNL     1       2.233  -5.575   0.416  0.00  0.00    -0.287 N 
ATOM     25  H   UNL     1       1.837  -6.264   0.971  0.00  0.00    +0.155 HD
BRANCH  24  26
ATOM     26  C   UNL     1       2.840  -5.918  -0.798  0.00  0.00    +0.033 A 
ATOM     27  C   UNL     1       3.954  -5.218  -1.241  0.00  0.00    +0.025 A 
ATOM     28  C   UNL     1       4.550  -5.559  -2.440  0.00  0.00    +0.030 A 
ATOM     29  C   UNL     1       4.038  -6.595  -3.198  0.00  0.00    +0.105 A 
ATOM     30  C   UNL     1       2.928  -7.294  -2.760  0.00  0.00    +0.030 A 
ATOM     31  C   UNL     1       2.331  -6.962  -1.559  0.00  0.00    +0.025 A 
BRANCH  29  32
ATOM     32  S   UNL     1       4.801  -7.027  -4.726  0.00  0.00    +0.056 S 
ATOM     33  O   UNL     1       3.807  -7.673  -5.509  0.00  0.00    -0.153 OA
ATOM     34  O   UNL     1       5.492  -5.869  -5.176  0.00  0.00    -0.153 OA
BRANCH  32  35
ATOM     35  N   UNL     1       5.955  -8.166  -4.393  0.00  0.00    -0.204 NA
ATOM     36  H   UNL     1       6.094  -8.464  -3.480  0.00  0.00    +0.144 HD
ATOM     37  H   UNL     1       6.493  -8.537  -5.110  0.00  0.00    +0.144 HD
ENDBRANCH  32  35
ENDBRANCH  29  32
ENDBRANCH  24  26
ENDBRANCH  21  22
ENDBRANCH   1  21
TORSDOF 8
