REMARK  Name = ZINC00739835
REMARK  9 active torsions:
REMARK  status: ('A' for Active; 'I' for Inactive)
REMARK    1  A    between atoms: C_1  and  C_2
REMARK    2  A    between atoms: C_2  and  C_3
REMARK    3  A    between atoms: C_3  and  C_5
REMARK    4  A    between atoms: C_3  and  N_17
REMARK    5  A    between atoms: N_17  and  C_18
REMARK    6  A    between atoms: C_18  and  C_19
REMARK    7  A    between atoms: C_19  and  C_20
REMARK    8  A    between atoms: C_19  and  C_21
REMARK    9  A    between atoms: N_24  and  C_25
REMARK                            x       y       z     vdW  Elec       q    Type
REMARK                         _______ _______ _______ _____ _____    ______ ____
ROOT
ATOM      1  N   UNL     1       1.526  -4.592  -0.112  0.00  0.00    -0.275 N 
ATOM      2  C   UNL     1       2.048  -5.189  -1.202  0.00  0.00    +0.307 C 
ATOM      3  O   UNL     1       1.324  -5.512  -2.124  0.00  0.00    -0.252 OA
ATOM      4  N   UNL     1       3.373  -5.428  -1.270  0.00  0.00    -0.268 N 
ATOM      5  H   UNL     1       3.942  -5.220  -0.512  0.00  0.00    +0.156 HD
ENDROOT
BRANCH   4   6
ATOM      6  C   UNL     1       3.927  -5.977  -2.433  0.00  0.00    +0.053 A 
ATOM      7  C   UNL     1       3.141  -6.741  -3.284  0.00  0.00    +0.026 A 
ATOM      8  C   UNL     1       3.689  -7.282  -4.431  0.00  0.00    +0.022 A 
ATOM      9  C   UNL     1       5.022  -7.061  -4.732  0.00  0.00    +0.042 A 
ATOM     10  C   UNL     1       5.809  -6.300  -3.886  0.00  0.00    +0.041 A 
ATOM     11  C   UNL     1       5.263  -5.752  -2.740  0.00  0.00    +0.064 A 
ATOM     12 CL   UNL     1       6.248  -4.791  -1.682  0.00  0.00    -0.082 Cl
ATOM     13 CL   UNL     1       5.708  -7.742  -6.174  0.00  0.00    -0.083 Cl
ENDBRANCH   4   6
BRANCH   1  14
ATOM     14  C   UNL     1       0.086  -4.333  -0.039  0.00  0.00    +0.143 C 
BRANCH  14  15
ATOM     15  C   UNL     1      -0.170  -2.860  -0.235  0.00  0.00    +0.131 A 
ATOM     16  N   UNL     1      -1.415  -2.382   0.022  0.00  0.00    -0.309 N 
ATOM     17  H   UNL     1      -2.131  -3.008   0.333  0.00  0.00    +0.170 HD
ATOM     18  C   UNL     1      -1.696  -1.068  -0.138  0.00  0.00    +0.259 A 
ATOM     19  O   UNL     1      -2.807  -0.626   0.089  0.00  0.00    -0.267 OA
ATOM     20  C   UNL     1      -0.606  -0.195  -0.597  0.00  0.00    +0.065 A 
ATOM     21  C   UNL     1      -0.789   1.173  -0.793  0.00  0.00    +0.015 A 
ATOM     22  C   UNL     1       0.267   1.945  -1.224  0.00  0.00    +0.001 A 
ATOM     23  C   UNL     1       1.509   1.372  -1.463  0.00  0.00    +0.002 A 
ATOM     24  C   UNL     1       1.712   0.023  -1.275  0.00  0.00    +0.028 A 
ATOM     25  C   UNL     1       0.656  -0.781  -0.839  0.00  0.00    +0.078 A 
ATOM     26  N   UNL     1       0.812  -2.114  -0.641  0.00  0.00    -0.232 NA
ENDBRANCH  14  15
BRANCH  14  28
ATOM     27  C   UNL     1      -0.219  -6.266   1.514  0.00  0.00    +0.006 C 
ATOM     28  C   UNL     1      -0.441  -4.763   1.331  0.00  0.00    +0.027 C 
ENDBRANCH  14  28
ENDBRANCH   1  14
BRANCH   1  29
ATOM     29  C   UNL     1       2.397  -4.204   0.999  0.00  0.00    +0.113 C 
BRANCH  29  30
ATOM     30  C   UNL     1       2.926  -2.788   0.761  0.00  0.00    +0.000 C 
ATOM     31  C   UNL     1       3.881  -2.403   1.893  0.00  0.00    +0.009 C 
ATOM     32  C   UNL     1       3.671  -2.739  -0.574  0.00  0.00    +0.009 C 
ENDBRANCH  29  30
ENDBRANCH   1  29
TORSDOF 6
