REMARK  Name = ZINC38704914
REMARK  13 active torsions:
REMARK  status: ('A' for Active; 'I' for Inactive)
REMARK    1  A    between atoms: C_1  and  C_2
REMARK    2  A    between atoms: C_4  and  C_34
REMARK    3  A    between atoms: C_5  and  C_9
REMARK    4  A    between atoms: C_6  and  O_8
REMARK    5  A    between atoms: N_17  and  C_30
REMARK    6  A    between atoms: C_18  and  C_20
REMARK    7  A    between atoms: C_23  and  C_26
REMARK    8  A    between atoms: C_26  and  C_27
REMARK    9  A    between atoms: C_26  and  C_28
REMARK   10  A    between atoms: C_26  and  C_29
REMARK   11  A    between atoms: C_30  and  C_31
REMARK   12  A    between atoms: C_31  and  O_32
REMARK   13  A    between atoms: O_32  and  C_33
REMARK                            x       y       z     vdW  Elec       q    Type
REMARK                         _______ _______ _______ _____ _____    ______ ____
ROOT
ATOM      1  C   UNL     1      -0.821  -3.703   0.408  0.00  0.00    +0.102 A 
ATOM      2  C   UNL     1      -0.654  -4.582   1.483  0.00  0.00    +0.035 A 
ATOM      3  C   UNL     1      -0.504  -5.837   0.924  0.00  0.00    +0.126 A 
ATOM      4  N   UNL     1      -0.585  -5.661  -0.428  0.00  0.00    -0.272 N 
ATOM      5  H   UNL     1      -0.514  -6.370  -1.087  0.00  0.00    +0.189 HD
ATOM      6  N   UNL     1      -0.774  -4.418  -0.698  0.00  0.00    -0.173 NA
ATOM      7  C   UNL     1      -0.324  -6.811   2.005  0.00  0.00    +0.266 C 
ATOM      8  O   UNL     1      -0.165  -8.006   1.844  0.00  0.00    -0.268 OA
ATOM      9  N   UNL     1      -0.360  -6.196   3.201  0.00  0.00    -0.283 N 
ATOM     10  C   UNL     1      -0.567  -4.760   2.974  0.00  0.00    +0.141 C 
ENDROOT
BRANCH   1  15
ATOM     11  C   UNL     1      -1.593   1.998   0.748  0.00  0.00    +0.044 C 
ATOM     12  C   UNL     1      -1.393   0.507   0.661  0.00  0.00    -0.047 A 
ATOM     13  C   UNL     1      -0.430  -0.011  -0.187  0.00  0.00    +0.007 A 
ATOM     14  C   UNL     1      -0.241  -1.375  -0.273  0.00  0.00    -0.037 A 
ATOM     15  C   UNL     1      -1.020  -2.235   0.497  0.00  0.00    +0.047 A 
ATOM     16  C   UNL     1      -1.992  -1.709   1.353  0.00  0.00    +0.127 A 
ATOM     17  C   UNL     1      -2.168  -0.337   1.433  0.00  0.00    +0.049 A 
ATOM     18  C   UNL     1       0.809  -1.934  -1.198  0.00  0.00    +0.044 C 
BRANCH  16  19
ATOM     19  O   UNL     1      -2.758  -2.540   2.107  0.00  0.00    -0.506 OA
ATOM     20  H   UNL     1      -2.432  -2.664   3.010  0.00  0.00    +0.292 HD
ENDBRANCH  16  19
ENDBRANCH   1  15
BRANCH  10  21
ATOM     21  C   UNL     1       0.596  -3.974   3.523  0.00  0.00    -0.022 A 
ATOM     22  C   UNL     1       0.389  -3.042   4.524  0.00  0.00    +0.006 A 
ATOM     23  C   UNL     1       1.456  -2.322   5.027  0.00  0.00    +0.004 A 
ATOM     24  C   UNL     1       2.729  -2.533   4.531  0.00  0.00    -0.042 A 
ATOM     25  C   UNL     1       2.935  -3.465   3.532  0.00  0.00    +0.004 A 
ATOM     26  C   UNL     1       1.869  -4.189   3.031  0.00  0.00    +0.006 A 
BRANCH  24  27
ATOM     27  C   UNL     1       3.891  -1.746   5.080  0.00  0.00    -0.013 C 
ATOM     28  C   UNL     1       4.029  -2.018   6.579  0.00  0.00    +0.015 C 
ATOM     29  C   UNL     1       5.176  -2.169   4.365  0.00  0.00    +0.015 C 
ATOM     30  C   UNL     1       3.649  -0.253   4.852  0.00  0.00    +0.015 C 
ENDBRANCH  24  27
ENDBRANCH  10  21
BRANCH   9  31
ATOM     31  C   UNL     1      -0.216  -6.847   4.506  0.00  0.00    +0.137 C 
BRANCH  31  32
ATOM     32  C   UNL     1       1.269  -7.038   4.820  0.00  0.00    +0.178 C 
BRANCH  32  33
ATOM     33  O   UNL     1       1.872  -5.766   5.062  0.00  0.00    -0.381 OA
ATOM     34  C   UNL     1       3.222  -5.840   5.522  0.00  0.00    +0.194 C 
ENDBRANCH  32  33
ENDBRANCH  31  32
ENDBRANCH   9  31
TORSDOF 7
