REMARK  Name = ZINC42651967
REMARK  3 active torsions:
REMARK  status: ('A' for Active; 'I' for Inactive)
REMARK    1  A    between atoms: C_3  and  C_9
REMARK    2  A    between atoms: C_15  and  S_22
REMARK    3  A    between atoms: S_22  and  N_25
REMARK                            x       y       z     vdW  Elec       q    Type
REMARK                         _______ _______ _______ _____ _____    ______ ____
ROOT
ATOM      1  C   UNL     1       3.671   2.188  -0.021  0.00  0.00    +0.193 C 
ATOM      2  N   UNL     1       3.448   3.511  -0.601  0.00  0.00    -0.322 N 
ATOM      3  C   UNL     1       3.172   3.719  -1.949  0.00  0.00    +0.057 A 
ATOM      4  C   UNL     1       2.535   4.899  -2.331  0.00  0.00    +0.047 A 
ATOM      5  C   UNL     1       2.263   5.142  -3.662  0.00  0.00    +0.069 A 
ATOM      6  C   UNL     1       2.622   4.217  -4.627  0.00  0.00    +0.125 A 
ATOM      7  C   UNL     1       3.248   3.041  -4.255  0.00  0.00    +0.060 A 
ATOM      8  C   UNL     1       3.514   2.792  -2.925  0.00  0.00    +0.128 A 
ATOM      9  S   UNL     1       4.278   1.270  -2.451  0.00  0.00    +0.062 S 
ATOM     10  O   UNL     1       5.502   1.179  -3.168  0.00  0.00    -0.153 OA
ATOM     11  O   UNL     1       3.275   0.265  -2.511  0.00  0.00    -0.153 OA
ATOM     12  N   UNL     1       4.671   1.472  -0.839  0.00  0.00    -0.166 NA
ATOM     13 CL   UNL     1       1.468   6.613  -4.127  0.00  0.00    -0.081 Cl
ATOM     14  H   UNL     1       3.494   4.283  -0.016  0.00  0.00    +0.148 HD
ATOM     15  H   UNL     1       5.503   1.144  -0.464  0.00  0.00    +0.150 HD
ENDROOT
BRANCH   1  18
ATOM     16  C   UNL     1      -0.017   1.380   0.010  0.00  0.00    +0.039 A 
ATOM     17  C   UNL     1       1.171   2.088   0.002  0.00  0.00    +0.012 A 
ATOM     18  C   UNL     1       2.377   1.415  -0.013  0.00  0.00    +0.024 A 
ATOM     19  C   UNL     1       2.399   0.030  -0.021  0.00  0.00    +0.132 A 
ATOM     20  C   UNL     1       1.210  -0.679  -0.014  0.00  0.00    +0.077 A 
ATOM     21  C   UNL     1       0.002  -0.004   0.002  0.00  0.00    +0.126 A 
ATOM     22  F   UNL     1      -1.158  -0.696   0.010  0.00  0.00    -0.205 F 
ATOM     23  F   UNL     1       3.579  -0.627  -0.037  0.00  0.00    -0.205 F 
ENDBRANCH   1  18
BRANCH   6  24
ATOM     24  S   UNL     1       2.280   4.536  -6.326  0.00  0.00    +0.057 S 
ATOM     25  O   UNL     1       2.746   5.852  -6.594  0.00  0.00    -0.153 OA
ATOM     26  O   UNL     1       2.737   3.404  -7.052  0.00  0.00    -0.153 OA
BRANCH  24  27
ATOM     27  N   UNL     1       0.633   4.574  -6.496  0.00  0.00    -0.203 NA
ATOM     28  H   UNL     1       0.063   4.431  -5.724  0.00  0.00    +0.144 HD
ATOM     29  H   UNL     1       0.239   4.738  -7.367  0.00  0.00    +0.144 HD
ENDBRANCH  24  27
ENDBRANCH   6  24
TORSDOF 3
