REMARK  Name = ZINC24338969
REMARK  10 active torsions:
REMARK  status: ('A' for Active; 'I' for Inactive)
REMARK    1  A    between atoms: C_1  and  C_2
REMARK    2  A    between atoms: C_5  and  C_38
REMARK    3  A    between atoms: C_10  and  C_12
REMARK    4  A    between atoms: C_12  and  N_13
REMARK    5  A    between atoms: N_16  and  C_19
REMARK    6  A    between atoms: C_19  and  C_21
REMARK    7  A    between atoms: C_19  and  C_22
REMARK    8  A    between atoms: N_24  and  C_25
REMARK    9  A    between atoms: C_30  and  S_31
REMARK   10  A    between atoms: S_31  and  C_32
REMARK                            x       y       z     vdW  Elec       q    Type
REMARK                         _______ _______ _______ _____ _____    ______ ____
ROOT
ATOM      1  C   UNL     1      -0.007  -0.010  -0.010  0.00  0.00    +0.017 C 
ATOM      2  C   UNL     1       0.763  -0.181  -1.321  0.00  0.00    -0.004 C 
ENDROOT
BRANCH   1   6
ATOM      3  N   UNL     1      -2.897  -2.914  -1.042  0.00  0.00    -0.298 NA
ATOM      4  C   UNL     1      -3.243  -1.499  -1.235  0.00  0.00    +0.066 C 
ATOM      5  C   UNL     1      -1.961  -0.665  -1.283  0.00  0.00    -0.062 C 
ATOM      6  N   UNL     1      -1.209  -0.855  -0.034  0.00  0.00    +0.389 N 
ATOM      7  C   UNL     1      -0.863  -2.270   0.159  0.00  0.00    -0.062 C 
ATOM      8  C   UNL     1      -2.145  -3.104   0.206  0.00  0.00    +0.066 C 
ATOM      9  H   UNL     1      -1.855  -0.546   0.801  0.00  0.00    -0.081 HD
BRANCH   3  10
ATOM     10  C   UNL     1      -4.099  -3.759  -1.067  0.00  0.00    +0.180 C 
BRANCH  10  18
ATOM     11  C   UNL     1      -8.258  -6.264  -2.242  0.00  0.00    +0.009 C 
ATOM     12  C   UNL     1      -6.748  -6.505  -2.317  0.00  0.00    +0.004 C 
ATOM     13  C   UNL     1      -6.468  -8.008  -2.268  0.00  0.00    +0.009 C 
ATOM     14  C   UNL     1      -4.961  -8.252  -2.376  0.00  0.00    +0.004 C 
ATOM     15  C   UNL     1      -4.255  -7.590  -1.188  0.00  0.00    +0.111 C 
ATOM     16  N   UNL     1      -4.635  -6.172  -1.143  0.00  0.00    -0.300 N 
ATOM     17  C   UNL     1      -6.062  -5.823  -1.123  0.00  0.00    +0.111 C 
ATOM     18  C   UNL     1      -3.693  -5.209  -1.114  0.00  0.00    +0.230 C 
ATOM     19  O   UNL     1      -2.518  -5.510  -1.125  0.00  0.00    -0.274 OA
ATOM     20  C   UNL     1      -4.684  -9.757  -2.361  0.00  0.00    +0.009 C 
ENDBRANCH  10  18
ENDBRANCH   3  10
ENDBRANCH   1   6
BRANCH   1  21
ATOM     21  C   UNL     1      -0.410   1.433   0.151  0.00  0.00    +0.203 C 
ATOM     22  O   UNL     1      -1.582   1.743   0.114  0.00  0.00    -0.277 OA
ATOM     23  N   UNL     1       0.531   2.379   0.338  0.00  0.00    -0.286 N 
ATOM     24  H   UNL     1       1.597   2.110   0.294  0.00  0.00    +0.155 HD
BRANCH  23  25
ATOM     25  C   UNL     1       0.153   3.704   0.588  0.00  0.00    +0.047 A 
ATOM     26  C   UNL     1      -0.989   4.224  -0.001  0.00  0.00    +0.024 A 
ATOM     27  C   UNL     1      -1.364   5.531   0.252  0.00  0.00    +0.002 A 
ATOM     28  C   UNL     1      -0.596   6.327   1.083  0.00  0.00    +0.001 A 
ATOM     29  C   UNL     1       0.547   5.819   1.670  0.00  0.00    +0.017 A 
ATOM     30  C   UNL     1       0.928   4.507   1.426  0.00  0.00    +0.034 A 
BRANCH  30  31
ATOM     31  S   UNL     1       2.385   3.856   2.173  0.00  0.00    -0.088 S 
BRANCH  31  32
ATOM     32  C   UNL     1       2.934   5.151   3.235  0.00  0.00    +0.013 A 
ATOM     33  C   UNL     1       3.738   6.168   2.736  0.00  0.00    +0.015 A 
ATOM     34  C   UNL     1       4.162   7.183   3.570  0.00  0.00    +0.001 A 
ATOM     35  C   UNL     1       3.796   7.183   4.904  0.00  0.00    +0.000 A 
ATOM     36  C   UNL     1       3.000   6.169   5.406  0.00  0.00    +0.001 A 
ATOM     37  C   UNL     1       2.568   5.154   4.576  0.00  0.00    +0.015 A 
ENDBRANCH  31  32
ENDBRANCH  30  31
ENDBRANCH  23  25
ENDBRANCH   1  21
TORSDOF 7
