REMARK  Name = ZINC08623084
REMARK  8 active torsions:
REMARK  status: ('A' for Active; 'I' for Inactive)
REMARK    1  A    between atoms: C_1  and  C_2
REMARK    2  A    between atoms: C_2  and  O_3
REMARK    3  A    between atoms: O_3  and  C_4
REMARK    4  A    between atoms: N_6  and  C_7
REMARK    5  A    between atoms: C_11  and  C_18
REMARK    6  A    between atoms: C_18  and  N_19
REMARK    7  A    between atoms: C_22  and  C_26
REMARK    8  A    between atoms: C_22  and  C_27
REMARK                            x       y       z     vdW  Elec       q    Type
REMARK                         _______ _______ _______ _____ _____    ______ ____
ROOT
ATOM      1  C   UNL     1      -4.975   0.587   7.138  0.00  0.00    +0.040 A 
ATOM      2  C   UNL     1      -4.685  -0.164   5.999  0.00  0.00    +0.024 A 
ATOM      3  C   UNL     1      -3.409  -0.226   5.519  0.00  0.00    +0.014 A 
ATOM      4  C   UNL     1      -2.384   0.466   6.175  0.00  0.00    +0.022 A 
ATOM      5  C   UNL     1      -1.006   0.416   5.682  0.00  0.00    -0.012 A 
ATOM      6  C   UNL     1      -0.055   1.105   6.365  0.00  0.00    +0.098 A 
ATOM      7  C   UNL     1      -0.413   1.850   7.507  0.00  0.00    +0.338 A 
ATOM      8  O   UNL     1       0.449   2.468   8.107  0.00  0.00    -0.245 OA
ATOM      9  O   UNL     1      -1.678   1.892   7.954  0.00  0.00    -0.422 OA
ATOM     10  C   UNL     1      -2.670   1.225   7.325  0.00  0.00    +0.141 A 
ATOM     11  C   UNL     1      -3.971   1.279   7.800  0.00  0.00    +0.070 A 
ENDROOT
BRANCH   1  14
ATOM     12  C   UNL     1      -6.752   1.777   8.174  0.00  0.00    +0.405 C 
ATOM     13  O   UNL     1      -6.009   2.725   8.335  0.00  0.00    -0.226 OA
ATOM     14  N   UNL     1      -6.284   0.642   7.617  0.00  0.00    -0.251 N 
ATOM     15  H   UNL     1      -6.859  -0.137   7.549  0.00  0.00    +0.158 HD
BRANCH  12  16
ATOM     16  O   UNL     1      -8.041   1.860   8.552  0.00  0.00    -0.450 OA
BRANCH  16  18
ATOM     17  C   UNL     1      -9.958   3.018   9.508  0.00  0.00    +0.048 C 
ATOM     18  C   UNL     1      -8.475   3.112   9.145  0.00  0.00    +0.230 C 
ENDBRANCH  16  18
ENDBRANCH  12  16
ENDBRANCH   1  14
BRANCH   5  19
ATOM     19  C   UNL     1      -0.652  -0.384   4.455  0.00  0.00    +0.154 C 
BRANCH  19  20
ATOM     20  N   UNL     1       0.800  -0.364   4.262  0.00  0.00    -0.220 N 
ATOM     21  C   UNL     1       1.656  -1.214   4.865  0.00  0.00    +0.251 C 
ATOM     22  O   UNL     1       1.380  -2.104   5.640  0.00  0.00    -0.272 OA
ATOM     23  C   UNL     1       3.035  -0.824   4.372  0.00  0.00    +0.135 C 
ATOM     24  N   UNL     1       2.772   0.306   3.464  0.00  0.00    -0.281 N 
ATOM     25  C   UNL     1       1.441   0.499   3.466  0.00  0.00    +0.310 C 
ATOM     26  O   UNL     1       0.883   1.361   2.816  0.00  0.00    -0.252 OA
ATOM     27  C   UNL     1       3.684  -1.984   3.614  0.00  0.00    +0.047 C 
ATOM     28  H   UNL     1       3.431   0.812   2.962  0.00  0.00    +0.152 HD
BRANCH  23  29
ATOM     29  C   UNL     1       3.907  -0.392   5.523  0.00  0.00    -0.015 A 
ATOM     30  C   UNL     1       3.734  -0.959   6.771  0.00  0.00    +0.007 A 
ATOM     31  C   UNL     1       4.537  -0.567   7.826  0.00  0.00    +0.020 A 
ATOM     32  C   UNL     1       5.506   0.402   7.634  0.00  0.00    +0.041 A 
ATOM     33  C   UNL     1       5.675   0.974   6.386  0.00  0.00    +0.020 A 
ATOM     34  C   UNL     1       4.875   0.577   5.330  0.00  0.00    +0.007 A 
ATOM     35 CL   UNL     1       6.511   0.900   8.960  0.00  0.00    -0.084 Cl
ENDBRANCH  23  29
ENDBRANCH  19  20
ENDBRANCH   5  19
TORSDOF 6
