REMARK  Name = ZINC10538686
REMARK  9 active torsions:
REMARK  status: ('A' for Active; 'I' for Inactive)
REMARK    1  A    between atoms: C_1  and  C_2
REMARK    2  A    between atoms: C_2  and  O_3
REMARK    3  A    between atoms: O_3  and  C_4
REMARK    4  A    between atoms: C_4  and  C_6
REMARK    5  A    between atoms: C_7  and  C_8
REMARK    6  A    between atoms: C_11  and  N_14
REMARK    7  A    between atoms: C_15  and  C_17
REMARK    8  A    between atoms: C_17  and  N_18
REMARK    9  A    between atoms: C_22  and  C_23
REMARK                            x       y       z     vdW  Elec       q    Type
REMARK                         _______ _______ _______ _____ _____    ______ ____
ROOT
ATOM      1  N   UNL     1      -4.931   3.827   0.048  0.00  0.00    -0.284 N 
ATOM      2  C   UNL     1      -4.951   5.170   0.157  0.00  0.00    +0.235 C 
ATOM      3  O   UNL     1      -3.911   5.794   0.156  0.00  0.00    -0.274 OA
ATOM      4  H   UNL     1      -5.763   3.334  -0.028  0.00  0.00    +0.155 HD
ENDROOT
BRANCH   1   8
ATOM      5  C   UNL     1      -1.296   1.792   0.035  0.00  0.00    -0.025 A 
ATOM      6  C   UNL     1      -2.369   1.316  -0.727  0.00  0.00    +0.010 A 
ATOM      7  C   UNL     1      -3.570   1.988  -0.716  0.00  0.00    +0.024 A 
ATOM      8  C   UNL     1      -3.714   3.146   0.044  0.00  0.00    +0.033 A 
ATOM      9  C   UNL     1      -2.648   3.626   0.798  0.00  0.00    +0.024 A 
ATOM     10  C   UNL     1      -1.446   2.957   0.797  0.00  0.00    +0.010 A 
BRANCH   5  12
ATOM     11  C   UNL     1       0.127  -0.053  -0.701  0.00  0.00    +0.092 C 
ATOM     12  C   UNL     1      -0.013   1.074   0.031  0.00  0.00    +0.015 C 
BRANCH  11  13
ATOM     13  C   UNL     1       1.363  -0.749  -0.701  0.00  0.00    +0.332 C 
ATOM     14  O   UNL     1       2.296  -0.331  -0.042  0.00  0.00    -0.246 OA
BRANCH  13  15
ATOM     15  O   UNL     1       1.503  -1.874  -1.431  0.00  0.00    -0.462 OA
BRANCH  15  17
ATOM     16  C   UNL     1       2.744  -3.772  -2.269  0.00  0.00    +0.048 C 
ATOM     17  C   UNL     1       2.775  -2.523  -1.385  0.00  0.00    +0.229 C 
ENDBRANCH  15  17
ENDBRANCH  13  15
ENDBRANCH  11  13
ENDBRANCH   5  12
ENDBRANCH   1   8
BRANCH   2  18
ATOM     18  C   UNL     1      -6.266   5.897   0.281  0.00  0.00    +0.213 C 
BRANCH  18  19
ATOM     19  N   UNL     1      -6.020   7.337   0.386  0.00  0.00    -0.219 N 
ATOM     20  C   UNL     1      -5.858   7.886   1.577  0.00  0.00    +0.261 C 
ATOM     21  O   UNL     1      -5.911   7.212   2.590  0.00  0.00    -0.269 OA
ATOM     22  C   UNL     1      -5.615   9.291   1.641  0.00  0.00    +0.080 C 
ATOM     23  C   UNL     1      -5.414  10.088   2.729  0.00  0.00    +0.035 C 
ATOM     24  S   UNL     1      -5.654   9.723  -0.093  0.00  0.00    -0.026 S 
ATOM     25  C   UNL     1      -5.967   8.087  -0.738  0.00  0.00    +0.286 C 
ATOM     26  O   UNL     1      -6.099   7.736  -1.895  0.00  0.00    -0.262 OA
BRANCH  23  27
ATOM     27  C   UNL     1      -5.195  11.474   2.559  0.00  0.00    +0.013 A 
ATOM     28  C   UNL     1      -4.971  12.451   3.524  0.00  0.00    +0.015 A 
ATOM     29  C   UNL     1      -4.787  13.736   3.077  0.00  0.00    +0.008 A 
ATOM     30  C   UNL     1      -4.829  13.988   1.742  0.00  0.00    +0.046 A 
ATOM     31  S   UNL     1      -5.124  12.425   1.052  0.00  0.00    -0.097 S 
ENDBRANCH  23  27
ENDBRANCH  18  19
ENDBRANCH   2  18
TORSDOF 8
