REMARK  Name = ZINC39888037
REMARK  5 active torsions:
REMARK  status: ('A' for Active; 'I' for Inactive)
REMARK    1  A    between atoms: C_4  and  C_7
REMARK    2  A    between atoms: C_10  and  C_12
REMARK    3  A    between atoms: N_13  and  N_14
REMARK    4  A    between atoms: C_19  and  C_22
REMARK    5  A    between atoms: C_22  and  C_23
REMARK                            x       y       z     vdW  Elec       q    Type
REMARK                         _______ _______ _______ _____ _____    ______ ____
ROOT
ATOM      1  N   UNL     1       9.012   0.562  -0.072  0.00  0.00    -0.127 NA
ATOM      2  C   UNL     1       9.491   1.789  -0.064  0.00  0.00    +0.183 C 
ATOM      3  N   UNL     1       8.791   2.976  -0.041  0.00  0.00    -0.263 N 
ATOM      4  C   UNL     1       9.391   4.154  -0.035  0.00  0.00    +0.232 C 
ATOM      5  O   UNL     1       8.768   5.194  -0.014  0.00  0.00    -0.274 OA
ATOM      6  C   UNL     1      10.911   4.123  -0.055  0.00  0.00    +0.144 C 
ATOM      7  S   UNL     1      11.201   2.305  -0.074  0.00  0.00    -0.075 S 
ATOM      8  H   UNL     1       7.821   2.946  -0.028  0.00  0.00    +0.157 HD
ENDROOT
BRANCH   1  10
ATOM      9  C   UNL     1       7.261  -0.853  -0.070  0.00  0.00    +0.181 C 
ATOM     10  N   UNL     1       7.737   0.367  -0.063  0.00  0.00    -0.152 NA
BRANCH   9  14
ATOM     11  C   UNL     1       3.694  -0.682  -0.038  0.00  0.00    +0.136 A 
ATOM     12  C   UNL     1       3.850  -2.037  -0.052  0.00  0.00    +0.050 A 
ATOM     13  C   UNL     1       5.227  -2.293  -0.067  0.00  0.00    +0.051 A 
ATOM     14  C   UNL     1       5.860  -1.067  -0.060  0.00  0.00    +0.148 A 
ATOM     15  O   UNL     1       4.912  -0.107  -0.048  0.00  0.00    -0.454 OA
BRANCH  11  19
ATOM     16  C   UNL     1      -0.017   1.380   0.010  0.00  0.00    +0.000 A 
ATOM     17  C   UNL     1       1.168   2.095   0.002  0.00  0.00    +0.001 A 
ATOM     18  C   UNL     1       2.377   1.431  -0.013  0.00  0.00    +0.011 A 
ATOM     19  C   UNL     1       2.404   0.034  -0.021  0.00  0.00    +0.017 A 
ATOM     20  C   UNL     1       1.204  -0.681  -0.013  0.00  0.00    +0.011 A 
ATOM     21  C   UNL     1       0.002  -0.004   0.002  0.00  0.00    +0.001 A 
ENDBRANCH  11  19
ENDBRANCH   9  14
ENDBRANCH   1  10
BRANCH   6  22
ATOM     22  C   UNL     1      11.496   4.761   1.206  0.00  0.00    +0.059 C 
BRANCH  22  23
ATOM     23  C   UNL     1      12.997   4.820   1.089  0.00  0.00    -0.046 A 
ATOM     24  C   UNL     1      13.767   3.764   1.539  0.00  0.00    +0.005 A 
ATOM     25  C   UNL     1      15.144   3.818   1.432  0.00  0.00    +0.015 A 
ATOM     26  C   UNL     1      15.752   4.928   0.874  0.00  0.00    +0.018 A 
ATOM     27  C   UNL     1      14.981   5.984   0.423  0.00  0.00    +0.015 A 
ATOM     28  C   UNL     1      13.603   5.928   0.526  0.00  0.00    +0.005 A 
ATOM     29 BR   UNL     1      17.635   5.002   0.727  0.00  0.00    -0.050 Br
ENDBRANCH  22  23
ENDBRANCH   6  22
TORSDOF 5
