REMARK  Name = ZINC24886535
REMARK  10 active torsions:
REMARK  status: ('A' for Active; 'I' for Inactive)
REMARK    1  A    between atoms: C_1  and  C_2
REMARK    2  A    between atoms: N_7  and  C_9
REMARK    3  A    between atoms: C_9  and  C_10
REMARK    4  A    between atoms: N_15  and  C_16
REMARK    5  A    between atoms: C_16  and  C_18
REMARK    6  A    between atoms: C_18  and  C_20
REMARK    7  A    between atoms: C_18  and  N_23
REMARK    8  A    between atoms: C_20  and  C_21
REMARK    9  A    between atoms: C_20  and  C_22
REMARK   10  A    between atoms: C_24  and  C_26
REMARK                            x       y       z     vdW  Elec       q    Type
REMARK                         _______ _______ _______ _____ _____    ______ ____
ROOT
ATOM      1  C   UNL     1      -0.214  -8.246   2.466  0.00  0.00    +0.259 C 
ATOM      2  O   UNL     1       0.941  -8.621   2.398  0.00  0.00    -0.272 OA
ENDROOT
BRANCH   1   8
ATOM      3  C   UNL     1       1.562  -3.968   2.382  0.00  0.00    +0.008 A 
ATOM      4  C   UNL     1       2.715  -4.642   2.312  0.00  0.00    +0.067 A 
ATOM      5  S   UNL     1       2.156  -6.335   2.338  0.00  0.00    -0.061 S 
ATOM      6  C   UNL     1       0.501  -6.055   2.435  0.00  0.00    +0.163 A 
ATOM      7  N   UNL     1       0.416  -4.697   2.450  0.00  0.00    -0.341 N 
ATOM      8  N   UNL     1      -0.489  -6.948   2.488  0.00  0.00    -0.155 NA
ATOM      9  H   UNL     1      -0.446  -4.257   2.506  0.00  0.00    +0.167 HD
BRANCH   3  10
ATOM     10  C   UNL     1       1.534  -2.461   2.390  0.00  0.00    -0.024 C 
BRANCH  10  16
ATOM     11  C   UNL     1       1.826  -2.276  -2.493  0.00  0.00    +0.005 C 
ATOM     12  C   UNL     1       0.973  -1.905  -1.279  0.00  0.00    -0.031 C 
ATOM     13  C   UNL     1       0.756  -0.389  -1.251  0.00  0.00    -0.001 C 
ATOM     14  C   UNL     1      -0.032  -0.019   0.009  0.00  0.00    -0.018 C 
ATOM     15  C   UNL     1       0.724  -0.519   1.242  0.00  0.00    -0.078 C 
ATOM     16  N   UNL     1       0.876  -1.977   1.169  0.00  0.00    +0.384 N 
ATOM     17  C   UNL     1       1.691  -2.336   0.002  0.00  0.00    -0.075 C 
ATOM     18  H   UNL     1      -0.033  -2.405   1.086  0.00  0.00    -0.081 HD
ENDBRANCH  10  16
ENDBRANCH   3  10
ENDBRANCH   1   8
BRANCH   1  19
ATOM     19  C   UNL     1      -1.333  -9.254   2.526  0.00  0.00    +0.164 C 
BRANCH  19  20
ATOM     20  N   UNL     1      -0.772 -10.607   2.488  0.00  0.00    -0.300 N 
ATOM     21  C   UNL     1      -1.518 -11.633   2.032  0.00  0.00    +0.246 C 
ATOM     22  O   UNL     1      -2.656 -11.435   1.653  0.00  0.00    -0.270 OA
ATOM     23  H   UNL     1       0.136 -10.765   2.791  0.00  0.00    +0.150 HD
BRANCH  21  24
ATOM     24  C   UNL     1      -0.954 -12.997   1.994  0.00  0.00    +0.055 A 
ATOM     25  C   UNL     1       0.351 -13.229   2.434  0.00  0.00    +0.016 A 
ATOM     26  C   UNL     1       0.873 -14.504   2.396  0.00  0.00    +0.021 A 
ATOM     27  C   UNL     1       0.106 -15.556   1.922  0.00  0.00    +0.042 A 
ATOM     28  C   UNL     1      -1.188 -15.335   1.483  0.00  0.00    +0.040 A 
ATOM     29  C   UNL     1      -1.725 -14.063   1.522  0.00  0.00    +0.054 A 
ATOM     30 CL   UNL     1      -3.350 -13.787   0.979  0.00  0.00    -0.083 Cl
ATOM     31 CL   UNL     1       0.771 -17.159   1.877  0.00  0.00    -0.083 Cl
ENDBRANCH  21  24
ENDBRANCH  19  20
BRANCH  19  32
ATOM     32  C   UNL     1      -2.121  -9.065   3.823  0.00  0.00    +0.012 C 
ATOM     33  C   UNL     1      -1.166  -9.141   5.016  0.00  0.00    +0.009 C 
ATOM     34  C   UNL     1      -2.809  -7.698   3.807  0.00  0.00    +0.009 C 
ENDBRANCH  19  32
ENDBRANCH   1  19
TORSDOF 7
