REMARK  Name = ZINC36500958
REMARK  14 active torsions:
REMARK  status: ('A' for Active; 'I' for Inactive)
REMARK    1  A    between atoms: C_1  and  C_2
REMARK    2  A    between atoms: C_2  and  C_3
REMARK    3  A    between atoms: C_2  and  C_4
REMARK    4  A    between atoms: C_2  and  N_5
REMARK    5  A    between atoms: C_6  and  C_8
REMARK    6  A    between atoms: C_8  and  C_10
REMARK    7  A    between atoms: C_8  and  N_19
REMARK    8  A    between atoms: C_11  and  O_18
REMARK    9  A    between atoms: C_13  and  O_17
REMARK   10  A    between atoms: C_15  and  O_16
REMARK   11  A    between atoms: N_19  and  C_20
REMARK   12  A    between atoms: C_20  and  C_21
REMARK   13  A    between atoms: C_26  and  C_28
REMARK   14  A    between atoms: C_28  and  C_29
REMARK                            x       y       z     vdW  Elec       q    Type
REMARK                         _______ _______ _______ _____ _____    ______ ____
ROOT
ATOM      1  C   UNL     1       2.652  -0.591  -2.692  0.00  0.00    +0.200 C 
ENDROOT
BRANCH   1   2
ATOM      2  C   UNL     1       1.838  -0.187  -3.894  0.00  0.00    +0.065 A 
ATOM      3  C   UNL     1       0.983  -1.100  -4.491  0.00  0.00    +0.129 A 
ATOM      4  C   UNL     1       0.234  -0.728  -5.597  0.00  0.00    +0.091 A 
ATOM      5  C   UNL     1       0.340   0.558  -6.106  0.00  0.00    +0.124 A 
ATOM      6  C   UNL     1       1.195   1.471  -5.508  0.00  0.00    +0.091 A 
ATOM      7  C   UNL     1       1.941   1.101  -4.399  0.00  0.00    +0.129 A 
BRANCH   7   8
ATOM      8  O   UNL     1       2.775   1.998  -3.811  0.00  0.00    -0.506 OA
ATOM      9  H   UNL     1       3.672   1.996  -4.172  0.00  0.00    +0.292 HD
ENDBRANCH   7   8
BRANCH   5  10
ATOM     10  O   UNL     1      -0.393   0.922  -7.191  0.00  0.00    -0.507 OA
ATOM     11  H   UNL     1      -1.260   1.292  -6.973  0.00  0.00    +0.292 HD
ENDBRANCH   5  10
BRANCH   3  12
ATOM     12  O   UNL     1       0.879  -2.360  -3.993  0.00  0.00    -0.506 OA
ATOM     13  H   UNL     1       0.245  -2.445  -3.267  0.00  0.00    +0.292 HD
ENDBRANCH   3  12
ENDBRANCH   1   2
BRANCH   1  15
ATOM     14  N   UNL     1       0.824   0.439  -1.381  0.00  0.00    -0.309 N 
ATOM     15  C   UNL     1       2.131   0.121  -1.470  0.00  0.00    +0.239 C 
ATOM     16  O   UNL     1       2.887   0.407  -0.566  0.00  0.00    -0.273 OA
ATOM     17  H   UNL     1       0.220   0.210  -2.104  0.00  0.00    +0.149 HD
BRANCH  14  19
ATOM     18  C   UNL     1       1.036   2.473  -0.039  0.00  0.00    +0.031 C 
ATOM     19  C   UNL     1       0.318   1.131  -0.194  0.00  0.00    +0.026 C 
ATOM     20  C   UNL     1       0.573   0.270   1.045  0.00  0.00    +0.031 C 
ATOM     21  C   UNL     1      -1.186   1.371  -0.346  0.00  0.00    +0.031 C 
ENDBRANCH  14  19
ENDBRANCH   1  15
BRANCH   1  22
ATOM     22  N   UNL     1       4.055  -0.227  -2.907  0.00  0.00    -0.278 N 
ATOM     23  C   UNL     1       4.761  -0.818  -3.892  0.00  0.00    +0.221 C 
ATOM     24  O   UNL     1       4.234  -1.650  -4.600  0.00  0.00    -0.275 OA
BRANCH  22  25
ATOM     25  C   UNL     1       4.691   0.778  -2.052  0.00  0.00    +0.183 C 
BRANCH  25  26
ATOM     26  C   UNL     1       5.464   0.089  -0.957  0.00  0.00    +0.122 A 
ATOM     27  C   UNL     1       6.782  -0.181  -0.975  0.00  0.00    +0.046 A 
ATOM     28  C   UNL     1       7.083  -0.830   0.245  0.00  0.00    +0.041 A 
ATOM     29  C   UNL     1       5.932  -0.917   0.935  0.00  0.00    +0.195 A 
ATOM     30  O   UNL     1       4.956  -0.353   0.205  0.00  0.00    -0.466 OA
ENDBRANCH  25  26
ENDBRANCH  22  25
BRANCH  23  31
ATOM     31  C   UNL     1       6.204  -0.444  -4.114  0.00  0.00    +0.132 C 
BRANCH  31  32
ATOM     32  C   UNL     1       6.758  -1.242  -5.266  0.00  0.00    -0.019 A 
ATOM     33  C   UNL     1       7.438  -2.421  -5.026  0.00  0.00    +0.005 A 
ATOM     34  C   UNL     1       7.947  -3.153  -6.082  0.00  0.00    +0.002 A 
ATOM     35  C   UNL     1       7.777  -2.707  -7.380  0.00  0.00    +0.021 A 
ATOM     36  C   UNL     1       7.096  -1.527  -7.621  0.00  0.00    +0.060 A 
ATOM     37  C   UNL     1       6.581  -0.797  -6.563  0.00  0.00    +0.063 A 
ATOM     38 CL   UNL     1       5.721   0.680  -6.865  0.00  0.00    -0.082 Cl
ATOM     39 CL   UNL     1       6.882  -0.966  -9.250  0.00  0.00    -0.082 Cl
ENDBRANCH  31  32
ENDBRANCH  23  31
ENDBRANCH   1  22
TORSDOF 11
