REMARK  Name = ZINC36591194
REMARK  12 active torsions:
REMARK  status: ('A' for Active; 'I' for Inactive)
REMARK    1  A    between atoms: C_1  and  C_2
REMARK    2  A    between atoms: C_2  and  C_3
REMARK    3  A    between atoms: C_2  and  C_4
REMARK    4  A    between atoms: C_2  and  N_5
REMARK    5  A    between atoms: N_5  and  C_6
REMARK    6  A    between atoms: C_6  and  C_8
REMARK    7  A    between atoms: C_6  and  C_18
REMARK    8  A    between atoms: C_10  and  N_15
REMARK    9  A    between atoms: N_20  and  C_21
REMARK   10  A    between atoms: C_27  and  C_29
REMARK   11  A    between atoms: C_29  and  N_30
REMARK   12  A    between atoms: C_31  and  C_33
REMARK                            x       y       z     vdW  Elec       q    Type
REMARK                         _______ _______ _______ _____ _____    ______ ____
ROOT
ATOM      1  C   UNL     1       2.218  -0.505  -1.169  0.00  0.00    +0.194 C 
ENDROOT
BRANCH   1   2
ATOM      2  C   UNL     1       2.861  -1.636  -0.408  0.00  0.00    +0.002 A 
ATOM      3  C   UNL     1       3.468  -1.392   0.810  0.00  0.00    +0.040 A 
ATOM      4  C   UNL     1       4.058  -2.429   1.508  0.00  0.00    +0.127 A 
ATOM      5  C   UNL     1       4.042  -3.710   0.989  0.00  0.00    +0.034 A 
ATOM      6  C   UNL     1       3.436  -3.955  -0.229  0.00  0.00    +0.022 A 
ATOM      7  C   UNL     1       2.839  -2.919  -0.925  0.00  0.00    +0.047 A 
ATOM      8 CL   UNL     1       2.071  -3.227  -2.451  0.00  0.00    -0.083 Cl
BRANCH   4   9
ATOM      9  N   UNL     1       4.708  -2.168   2.812  0.00  0.00    +0.056 N 
ATOM     10  O   UNL     1       4.723  -1.047   3.266  0.00  0.00    -0.126 OA
ATOM     11  O   UNL     1       5.225  -3.074   3.422  0.00  0.00    -0.126 OA
ENDBRANCH   4   9
ENDBRANCH   1   2
BRANCH   1  12
ATOM     12  C   UNL     1       2.651   0.810  -0.575  0.00  0.00    +0.238 C 
ATOM     13  O   UNL     1       1.847   1.504   0.012  0.00  0.00    -0.273 OA
ATOM     14  N   UNL     1       3.930   1.216  -0.695  0.00  0.00    -0.311 N 
ATOM     15  H   UNL     1       4.556   0.697  -1.224  0.00  0.00    +0.149 HD
BRANCH  14  16
ATOM     16  C   UNL     1       4.377   2.439  -0.025  0.00  0.00    +0.073 C 
ATOM     17  C   UNL     1       4.066   3.648  -0.910  0.00  0.00    +0.022 C 
ATOM     18  C   UNL     1       4.532   4.926  -0.210  0.00  0.00    +0.002 C 
ATOM     19  C   UNL     1       6.040   4.851   0.037  0.00  0.00    +0.000 C 
ATOM     20  C   UNL     1       6.352   3.642   0.922  0.00  0.00    +0.002 C 
ATOM     21  C   UNL     1       5.885   2.364   0.223  0.00  0.00    +0.022 C 
ENDBRANCH  14  16
ENDBRANCH   1  12
BRANCH   1  22
ATOM     22  N   UNL     1       0.760  -0.625  -1.081  0.00  0.00    -0.280 N 
ATOM     23  C   UNL     1       0.168  -0.786   0.119  0.00  0.00    +0.234 C 
ATOM     24  O   UNL     1       0.826  -0.710   1.135  0.00  0.00    -0.274 OA
BRANCH  22  26
ATOM     25  C   UNL     1       0.863  -0.493  -3.521  0.00  0.00    +0.031 C 
ATOM     26  C   UNL     1      -0.053  -0.569  -2.298  0.00  0.00    +0.030 C 
ATOM     27  C   UNL     1      -0.951   0.670  -2.255  0.00  0.00    +0.031 C 
ATOM     28  C   UNL     1      -0.922  -1.825  -2.389  0.00  0.00    +0.031 C 
ENDBRANCH  22  26
BRANCH  23  29
ATOM     29  C   UNL     1      -1.311  -1.061   0.198  0.00  0.00    +0.200 C 
BRANCH  29  30
ATOM     30  N   UNL     1      -1.742  -1.016   1.597  0.00  0.00    -0.303 N 
ATOM     31  C   UNL     1      -3.034  -1.234   1.912  0.00  0.00    +0.244 C 
ATOM     32  O   UNL     1      -3.842  -1.468   1.035  0.00  0.00    -0.270 OA
ATOM     33  H   UNL     1      -1.097  -0.830   2.298  0.00  0.00    +0.150 HD
BRANCH  31  34
ATOM     34  C   UNL     1      -3.469  -1.189   3.324  0.00  0.00    +0.037 A 
ATOM     35  C   UNL     1      -2.545  -0.915   4.334  0.00  0.00    +0.013 A 
ATOM     36  C   UNL     1      -2.957  -0.874   5.650  0.00  0.00    +0.001 A 
ATOM     37  C   UNL     1      -4.284  -1.104   5.970  0.00  0.00    +0.000 A 
ATOM     38  C   UNL     1      -5.205  -1.376   4.974  0.00  0.00    +0.001 A 
ATOM     39  C   UNL     1      -4.807  -1.414   3.654  0.00  0.00    +0.013 A 
ENDBRANCH  31  34
ENDBRANCH  29  30
ENDBRANCH  23  29
ENDBRANCH   1  22
TORSDOF 9
