REMARK  Name = ZINC63386322
REMARK  9 active torsions:
REMARK  status: ('A' for Active; 'I' for Inactive)
REMARK    1  A    between atoms: C_1  and  C_2
REMARK    2  A    between atoms: C_13  and  C_15
REMARK    3  A    between atoms: C_15  and  C_16
REMARK    4  A    between atoms: N_18  and  C_19
REMARK    5  A    between atoms: C_19  and  C_21
REMARK    6  A    between atoms: C_19  and  C_22
REMARK    7  A    between atoms: C_22  and  C_23
REMARK    8  A    between atoms: C_33  and  C_36
REMARK    9  A    between atoms: C_33  and  C_37
REMARK                            x       y       z     vdW  Elec       q    Type
REMARK                         _______ _______ _______ _____ _____    ______ ____
ROOT
ATOM      1  C   UNL     1      -0.019   1.526   0.010  0.00  0.00    +0.013 C 
ATOM      2  C   UNL     1       0.002  -0.004   0.002  0.00  0.00    +0.034 C 
ATOM      3  C   UNL     1      -1.413  -0.524   0.009  0.00  0.00    -0.001 A 
ATOM      4  C   UNL     1      -2.362   0.130  -0.759  0.00  0.00    +0.014 A 
ATOM      5  C   UNL     1      -3.672  -0.312  -0.792  0.00  0.00    -0.005 A 
ATOM      6  C   UNL     1      -4.043  -1.423  -0.053  0.00  0.00    +0.128 A 
ATOM      7  C   UNL     1      -3.095  -2.079   0.721  0.00  0.00    +0.092 A 
ATOM      8  C   UNL     1      -1.781  -1.629   0.756  0.00  0.00    +0.139 A 
ATOM      9  O   UNL     1      -0.891  -2.293   1.543  0.00  0.00    -0.425 OA
ATOM     10  C   UNL     1       0.413  -1.978   1.409  0.00  0.00    +0.316 C 
ATOM     11  O   UNL     1       1.274  -2.826   1.424  0.00  0.00    -0.250 OA
ATOM     12  C   UNL     1       0.747  -0.510   1.241  0.00  0.00    +0.114 C 
ATOM     13  O   UNL     1      -5.314  -1.901  -0.067  0.00  0.00    -0.486 OA
ATOM     14  C   UNL     1      -6.347  -1.038  -0.546  0.00  0.00    +0.105 C 
ATOM     15  C   UNL     1      -5.898  -0.445  -1.888  0.00  0.00    +0.052 C 
ATOM     16  C   UNL     1      -4.672   0.436  -1.638  0.00  0.00    +0.042 C 
ATOM     17  C   UNL     1      -6.585   0.089   0.461  0.00  0.00    +0.055 C 
ATOM     18  C   UNL     1      -7.637  -1.837  -0.741  0.00  0.00    +0.055 C 
ENDROOT
BRANCH  12  19
ATOM     19  C   UNL     1       0.291   0.272   2.475  0.00  0.00    +0.111 C 
BRANCH  19  20
ATOM     20  C   UNL     1       1.114  -0.146   3.667  0.00  0.00    +0.214 C 
ATOM     21  O   UNL     1       1.980  -0.986   3.541  0.00  0.00    -0.276 OA
ATOM     22  N   UNL     1       0.888   0.414   4.872  0.00  0.00    -0.312 N 
ATOM     23  H   UNL     1       0.196   1.086   4.972  0.00  0.00    +0.149 HD
BRANCH  22  24
ATOM     24  C   UNL     1       1.689   0.008   6.029  0.00  0.00    +0.074 C 
ATOM     25  C   UNL     1       2.987   0.816   6.061  0.00  0.00    +0.028 C 
BRANCH  24  26
ATOM     26  C   UNL     1       0.897   0.266   7.313  0.00  0.00    +0.055 C 
BRANCH  26  27
ATOM     27  C   UNL     1      -0.321  -0.622   7.338  0.00  0.00    -0.040 C 
ATOM     28  C   UNL     1      -0.437  -1.826   7.944  0.00  0.00    -0.001 A 
ATOM     29  C   UNL     1       0.501  -2.639   8.729  0.00  0.00    +0.010 A 
ATOM     30  C   UNL     1       0.087  -3.830   9.216  0.00  0.00    +0.001 A 
ATOM     31  C   UNL     1      -1.212  -4.308   8.991  0.00  0.00    +0.002 A 
ATOM     32  C   UNL     1      -2.129  -3.619   8.280  0.00  0.00    +0.026 A 
ATOM     33  C   UNL     1      -1.802  -2.353   7.721  0.00  0.00    +0.043 A 
ATOM     34  N   UNL     1      -2.503  -1.507   7.005  0.00  0.00    -0.380 N 
ATOM     35  C   UNL     1      -1.662  -0.345   6.698  0.00  0.00    +0.144 C 
ATOM     36  H   UNL     1      -3.425  -1.628   6.728  0.00  0.00    +0.160 HD
ENDBRANCH  26  27
ENDBRANCH  24  26
ENDBRANCH  22  24
ENDBRANCH  19  20
ENDBRANCH  12  19
TORSDOF 5
