REMARK  Name = ZINC52806649
REMARK  6 active torsions:
REMARK  status: ('A' for Active; 'I' for Inactive)
REMARK    1  A    between atoms: C_1  and  O_2
REMARK    2  A    between atoms: O_2  and  C_3
REMARK    3  A    between atoms: C_5  and  C_15
REMARK    4  A    between atoms: C_8  and  O_9
REMARK    5  A    between atoms: O_9  and  C_10
REMARK    6  A    between atoms: C_10  and  C_11
REMARK                            x       y       z     vdW  Elec       q    Type
REMARK                         _______ _______ _______ _____ _____    ______ ____
ROOT
ATOM      1  C   UNL     1      -1.201  -0.638   0.010  0.00  0.00    +0.163 A 
ATOM      2  C   UNL     1      -2.374   0.100   0.019  0.00  0.00    +0.056 A 
ATOM      3  C   UNL     1      -3.597  -0.545   0.028  0.00  0.00    -0.004 A 
ATOM      4  C   UNL     1      -3.653  -1.927   0.027  0.00  0.00    +0.031 A 
ATOM      5  C   UNL     1      -2.486  -2.669   0.018  0.00  0.00    +0.087 A 
ATOM      6  C   UNL     1      -1.257  -2.028   0.003  0.00  0.00    +0.181 A 
ATOM      7 CL   UNL     1      -2.560  -4.404   0.018  0.00  0.00    -0.080 Cl
ENDROOT
BRANCH   3   8
ATOM      8  C   UNL     1      -4.871   0.259   0.038  0.00  0.00    +0.190 C 
ATOM      9  N   UNL     1      -5.920  -0.501   0.731  0.00  0.00    -0.322 N 
ATOM     10  C   UNL     1      -5.881  -0.571   2.118  0.00  0.00    +0.041 A 
ATOM     11  C   UNL     1      -6.379  -1.662   2.811  0.00  0.00    +0.024 A 
ATOM     12  C   UNL     1      -6.313  -1.683   4.191  0.00  0.00    +0.002 A 
ATOM     13  C   UNL     1      -5.754  -0.623   4.886  0.00  0.00    +0.001 A 
ATOM     14  C   UNL     1      -5.254   0.472   4.211  0.00  0.00    +0.015 A 
ATOM     15  C   UNL     1      -5.315   0.507   2.821  0.00  0.00    +0.058 A 
ATOM     16  C   UNL     1      -4.805   1.656   2.050  0.00  0.00    +0.247 C 
ATOM     17  O   UNL     1      -4.539   2.702   2.610  0.00  0.00    -0.270 OA
ATOM     18  N   UNL     1      -4.636   1.531   0.721  0.00  0.00    -0.289 N 
ATOM     19  H   UNL     1      -6.623  -0.943   0.231  0.00  0.00    +0.148 HD
ATOM     20  H   UNL     1      -4.351   2.302   0.206  0.00  0.00    +0.151 HD
ENDBRANCH   3   8
BRANCH   1  22
ATOM     21  C   UNL     1      -0.017   1.425   0.010  0.00  0.00    +0.277 C 
ATOM     22  O   UNL     1       0.002  -0.004   0.002  0.00  0.00    -0.491 OA
ENDBRANCH   1  22
BRANCH   6  23
ATOM     23  O   UNL     1      -0.108  -2.756  -0.012  0.00  0.00    -0.478 OA
BRANCH  23  24
ATOM     24  C   UNL     1       0.453  -3.110   1.254  0.00  0.00    +0.324 C 
BRANCH  24  25
ATOM     25  C   UNL     1       1.713  -3.909   1.040  0.00  0.00    +0.248 C 
ATOM     26  O   UNL     1       2.093  -4.151  -0.086  0.00  0.00    -0.272 OA
ATOM     27  N   UNL     1       2.417  -4.354   2.099  0.00  0.00    -0.327 N 
ATOM     28  H   UNL     1       2.112  -4.160   2.999  0.00  0.00    +0.145 HD
ATOM     29  H   UNL     1       3.228  -4.868   1.961  0.00  0.00    +0.145 HD
ENDBRANCH  24  25
ENDBRANCH  23  24
ENDBRANCH   6  23
TORSDOF 5
