REMARK  Name = ZINC39862355
REMARK  9 active torsions:
REMARK  status: ('A' for Active; 'I' for Inactive)
REMARK    1  A    between atoms: C_1  and  N_2
REMARK    2  A    between atoms: C_6  and  C_7
REMARK    3  A    between atoms: C_9  and  O_17
REMARK    4  A    between atoms: C_10  and  O_15
REMARK    5  A    between atoms: C_11  and  O_13
REMARK    6  A    between atoms: O_13  and  C_14
REMARK    7  A    between atoms: O_15  and  C_16
REMARK    8  A    between atoms: O_17  and  C_18
REMARK    9  A    between atoms: N_21  and  C_22
REMARK                            x       y       z     vdW  Elec       q    Type
REMARK                         _______ _______ _______ _____ _____    ______ ____
ROOT
ATOM      1  C   UNL     1      -0.319   0.110  -5.928  0.00  0.00    +0.140 C 
ATOM      2  N   UNL     1      -0.442  -1.186  -5.257  0.00  0.00    -0.249 N 
ATOM      3  C   UNL     1      -0.093  -1.301  -3.987  0.00  0.00    +0.259 C 
ATOM      4  O   UNL     1       0.331  -0.351  -3.355  0.00  0.00    -0.269 OA
ATOM      5  C   UNL     1      -0.243  -2.632  -3.370  0.00  0.00    +0.078 C 
ATOM      6  C   UNL     1       0.034  -3.030  -2.102  0.00  0.00    +0.028 C 
ATOM      7  S   UNL     1      -0.887  -3.580  -4.741  0.00  0.00    -0.049 S 
ATOM      8  C   UNL     1      -0.926  -2.271  -5.953  0.00  0.00    +0.170 C 
ATOM      9  N   UNL     1      -1.319  -2.328  -7.208  0.00  0.00    -0.206 NA
ENDROOT
BRANCH   6  10
ATOM     10  C   UNL     1      -0.039  -4.453  -1.746  0.00  0.00    -0.017 A 
ATOM     11  C   UNL     1      -0.130  -4.837  -0.403  0.00  0.00    +0.057 A 
ATOM     12  C   UNL     1      -0.199  -6.177  -0.072  0.00  0.00    +0.166 A 
ATOM     13  C   UNL     1      -0.177  -7.145  -1.073  0.00  0.00    +0.204 A 
ATOM     14  C   UNL     1      -0.086  -6.767  -2.411  0.00  0.00    +0.166 A 
ATOM     15  C   UNL     1      -0.024  -5.429  -2.750  0.00  0.00    +0.057 A 
BRANCH  14  16
ATOM     16  O   UNL     1      -0.066  -7.716  -3.385  0.00  0.00    -0.491 OA
ATOM     17  C   UNL     1       0.029  -7.258  -4.735  0.00  0.00    +0.277 C 
ENDBRANCH  14  16
BRANCH  13  18
ATOM     18  O   UNL     1      -0.245  -8.462  -0.744  0.00  0.00    -0.488 OA
ATOM     19  C   UNL     1      -1.547  -9.044  -0.660  0.00  0.00    +0.277 C 
ENDBRANCH  13  18
BRANCH  12  20
ATOM     20  O   UNL     1      -0.287  -6.551   1.232  0.00  0.00    -0.491 OA
ATOM     21  C   UNL     1      -0.303  -5.506   2.207  0.00  0.00    +0.277 C 
ENDBRANCH  12  20
ENDBRANCH   6  10
BRANCH   9  22
ATOM     22  C   UNL     1      -1.772  -3.505  -7.727  0.00  0.00    +0.155 A 
ATOM     23  C   UNL     1      -2.184  -3.563  -9.063  0.00  0.00    +0.048 A 
ATOM     24  C   UNL     1      -2.640  -4.762  -9.573  0.00  0.00    +0.005 A 
ATOM     25  C   UNL     1      -2.672  -5.871  -8.735  0.00  0.00    +0.020 A 
ATOM     26  C   UNL     1      -2.251  -5.746  -7.426  0.00  0.00    +0.113 A 
ATOM     27  N   UNL     1      -1.814  -4.592  -6.962  0.00  0.00    -0.236 NA
ENDBRANCH   9  22
TORSDOF 5
