REMARK  Name = ZINC14551073
REMARK  6 active torsions:
REMARK  status: ('A' for Active; 'I' for Inactive)
REMARK    1  A    between atoms: C_1  and  C_2
REMARK    2  A    between atoms: C_2  and  C_3
REMARK    3  A    between atoms: C_2  and  C_4
REMARK    4  A    between atoms: N_6  and  C_7
REMARK    5  A    between atoms: C_20  and  C_23
REMARK    6  A    between atoms: C_26  and  N_29
REMARK                            x       y       z     vdW  Elec       q    Type
REMARK                         _______ _______ _______ _____ _____    ______ ____
ROOT
ATOM      1  C   UNL     1       3.611   1.505  -0.934  0.00  0.00    +0.034 A 
ATOM      2  C   UNL     1       4.035   2.507  -0.072  0.00  0.00    +0.025 A 
ATOM      3  C   UNL     1       3.144   3.057   0.827  0.00  0.00    +0.025 A 
ATOM      4  C   UNL     1       1.829   2.608   0.868  0.00  0.00    +0.031 A 
ATOM      5  C   UNL     1       1.398   1.607   0.011  0.00  0.00    -0.018 A 
ATOM      6  C   UNL     1       2.300   1.059  -0.891  0.00  0.00    +0.029 A 
ATOM      7  C   UNL     1      -0.006   1.093   0.024  0.00  0.00    +0.049 C 
ATOM      8  C   UNL     1      -0.791   1.603  -1.161  0.00  0.00    -0.023 C 
ATOM      9  C   UNL     1      -2.018   1.853  -0.839  0.00  0.00    -0.030 C 
ATOM     10  C   UNL     1      -2.249   1.536   0.626  0.00  0.00    +0.033 C 
ATOM     11  C   UNL     1      -0.818   1.587   1.236  0.00  0.00    +0.029 C 
ATOM     12  C   UNL     1      -0.501   3.041   1.536  0.00  0.00    +0.105 C 
ATOM     13  N   UNL     1       0.938   3.183   1.784  0.00  0.00    -0.336 N 
ATOM     14  H   UNL     1       1.264   3.662   2.561  0.00  0.00    +0.147 HD
ENDROOT
BRANCH  12  15
ATOM     15  C   UNL     1      -0.895   3.885   0.351  0.00  0.00    -0.027 A 
ATOM     16  C   UNL     1      -0.065   3.959  -0.751  0.00  0.00    +0.008 A 
ATOM     17  C   UNL     1      -0.428   4.729  -1.840  0.00  0.00    +0.033 A 
ATOM     18  C   UNL     1      -1.618   5.433  -1.822  0.00  0.00    +0.126 A 
ATOM     19  C   UNL     1      -2.446   5.364  -0.717  0.00  0.00    +0.033 A 
ATOM     20  C   UNL     1      -2.084   4.589   0.369  0.00  0.00    +0.008 A 
BRANCH  18  21
ATOM     21  N   UNL     1      -2.005   6.261  -2.986  0.00  0.00    +0.056 N 
ATOM     22  O   UNL     1      -3.053   6.882  -2.970  0.00  0.00    -0.126 OA
ATOM     23  O   UNL     1      -1.276   6.323  -3.960  0.00  0.00    -0.126 OA
ENDBRANCH  18  21
ENDBRANCH  12  15
BRANCH   1  26
ATOM     24  C   UNL     1       5.461   1.710  -2.419  0.00  0.00    +0.220 C 
ATOM     25  O   UNL     1       5.591   2.867  -2.077  0.00  0.00    -0.275 OA
ATOM     26  N   UNL     1       4.511   0.942  -1.850  0.00  0.00    -0.285 N 
ATOM     27  H   UNL     1       4.449   0.001  -2.074  0.00  0.00    +0.155 HD
BRANCH  24  29
ATOM     28  C   UNL     1       7.343   2.205  -3.956  0.00  0.00    +0.017 C 
ATOM     29  C   UNL     1       6.361   1.132  -3.480  0.00  0.00    +0.069 C 
ATOM     30  C   UNL     1       7.140  -0.050  -2.899  0.00  0.00    +0.017 C 
ENDBRANCH  24  29
ENDBRANCH   1  26
TORSDOF 4
