REMARK  Name = ZINC13043746
REMARK  7 active torsions:
REMARK  status: ('A' for Active; 'I' for Inactive)
REMARK    1  A    between atoms: C_1  and  C_2
REMARK    2  A    between atoms: C_5  and  N_9
REMARK    3  A    between atoms: C_10  and  C_12
REMARK    4  A    between atoms: C_12  and  C_14
REMARK    5  A    between atoms: C_12  and  O_15
REMARK    6  A    between atoms: O_15  and  C_16
REMARK    7  A    between atoms: C_19  and  C_23
REMARK                            x       y       z     vdW  Elec       q    Type
REMARK                         _______ _______ _______ _____ _____    ______ ____
ROOT
ATOM      1  C   UNL     1       1.245   2.028   0.016  0.00  0.00    +0.256 C 
ATOM      2  C   UNL     1       1.709   2.268   1.454  0.00  0.00    +0.062 C 
ENDROOT
BRANCH   1   4
ATOM      3  N   UNL     1       2.203   4.107  -0.919  0.00  0.00    -0.282 N 
ATOM      4  C   UNL     1       1.111   3.349  -0.696  0.00  0.00    +0.258 C 
ATOM      5  O   UNL     1       0.021   3.730  -1.068  0.00  0.00    -0.271 OA
ATOM      6  H   UNL     1       3.063   3.835  -0.565  0.00  0.00    +0.155 HD
BRANCH   3  11
ATOM      7  C   UNL     1       1.761   8.896  -3.931  0.00  0.00    +0.044 C 
ATOM      8  C   UNL     1       1.879   7.624  -3.132  0.00  0.00    -0.049 A 
ATOM      9  C   UNL     1       0.842   7.230  -2.306  0.00  0.00    +0.005 A 
ATOM     10  C   UNL     1       0.946   6.065  -1.571  0.00  0.00    +0.025 A 
ATOM     11  C   UNL     1       2.094   5.288  -1.662  0.00  0.00    +0.048 A 
ATOM     12  C   UNL     1       3.136   5.690  -2.489  0.00  0.00    +0.039 A 
ATOM     13  C   UNL     1       3.023   6.854  -3.225  0.00  0.00    +0.020 A 
ATOM     14 BR   UNL     1       4.705   4.641  -2.610  0.00  0.00    -0.048 Br
ENDBRANCH   3  11
ENDBRANCH   1   4
BRANCH   1  15
ATOM     15  O   UNL     1      -0.021   1.363   0.029  0.00  0.00    -0.477 OA
BRANCH  15  16
ATOM     16  C   UNL     1      -0.004   0.006   0.032  0.00  0.00    +0.158 A 
ATOM     17  C   UNL     1      -0.012  -0.690  -1.172  0.00  0.00    +0.085 A 
ATOM     18  C   UNL     1       0.010  -2.068  -1.173  0.00  0.00    +0.039 A 
ATOM     19  C   UNL     1       0.030  -2.766   0.038  0.00  0.00    +0.066 A 
ATOM     20  C   UNL     1       0.032  -2.063   1.246  0.00  0.00    +0.039 A 
ATOM     21  C   UNL     1       0.015  -0.685   1.239  0.00  0.00    +0.085 A 
ATOM     22 CL   UNL     1       0.019   0.190   2.738  0.00  0.00    -0.080 Cl
ATOM     23 CL   UNL     1      -0.042   0.177  -2.675  0.00  0.00    -0.080 Cl
BRANCH  19  24
ATOM     24  C   UNL     1       0.048  -4.241   0.041  0.00  0.00    +0.387 C 
ATOM     25  O   UNL     1       0.066  -4.846   1.095  0.00  0.00    -0.241 OA
ATOM     26  O   UNL     1       0.046  -4.917  -1.125  0.00  0.00    -0.241 OA
ENDBRANCH  19  24
ENDBRANCH  15  16
ENDBRANCH   1  15
TORSDOF 5
