REMARK  Name = ZINC39404662
REMARK  4 active torsions:
REMARK  status: ('A' for Active; 'I' for Inactive)
REMARK    1  A    between atoms: C_4  and  S_7
REMARK    2  A    between atoms: S_7  and  N_10
REMARK    3  A    between atoms: N_10  and  C_11
REMARK    4  A    between atoms: C_16  and  C_17
REMARK                            x       y       z     vdW  Elec       q    Type
REMARK                         _______ _______ _______ _____ _____    ______ ____
ROOT
ATOM      1  C   UNL     1       3.551  -1.816   2.386  0.00  0.00    +0.054 A 
ATOM      2  C   UNL     1       2.911  -2.957   1.919  0.00  0.00    +0.025 A 
ATOM      3  C   UNL     1       2.094  -3.684   2.762  0.00  0.00    +0.002 A 
ATOM      4  C   UNL     1       1.913  -3.277   4.072  0.00  0.00    +0.000 A 
ATOM      5  C   UNL     1       2.548  -2.142   4.540  0.00  0.00    +0.008 A 
ATOM      6  C   UNL     1       3.371  -1.413   3.703  0.00  0.00    +0.006 A 
ENDROOT
BRANCH   6   7
ATOM      7  C   UNL     1       4.068  -0.180   4.217  0.00  0.00    +0.199 C 
ATOM      8  C   UNL     1       5.520  -0.532   4.446  0.00  0.00    +0.244 C 
ATOM      9  O   UNL     1       6.202  -0.957   3.535  0.00  0.00    -0.273 OA
ATOM     10  N   UNL     1       6.043  -0.371   5.664  0.00  0.00    -0.282 N 
ATOM     11  C   UNL     1       5.322   0.089   6.672  0.00  0.00    +0.057 A 
ATOM     12  C   UNL     1       5.908   0.248   7.949  0.00  0.00    +0.025 A 
ATOM     13  C   UNL     1       5.175   0.718   8.985  0.00  0.00    +0.002 A 
ATOM     14  C   UNL     1       3.820   1.069   8.861  0.00  0.00    +0.002 A 
ATOM     15  C   UNL     1       3.163   0.957   7.685  0.00  0.00    +0.027 A 
ATOM     16  C   UNL     1       3.892   0.452   6.509  0.00  0.00    +0.058 A 
ATOM     17  N   UNL     1       3.294   0.329   5.360  0.00  0.00    -0.369 N 
ATOM     18  H   UNL     1       6.974  -0.598   5.812  0.00  0.00    +0.155 HD
ATOM     19  H   UNL     1       2.360   0.568   5.260  0.00  0.00    +0.161 HD
ENDBRANCH   6   7
BRANCH   1  20
ATOM     20  N   UNL     1       4.378  -1.079   1.536  0.00  0.00    -0.216 N 
ATOM     21  H   UNL     1       5.176  -0.653   1.885  0.00  0.00    +0.174 HD
BRANCH  20  22
ATOM     22  S   UNL     1       3.994  -0.931  -0.069  0.00  0.00    +0.072 S 
ATOM     23  O   UNL     1       3.813  -2.250  -0.566  0.00  0.00    -0.150 OA
ATOM     24  O   UNL     1       4.937  -0.028  -0.630  0.00  0.00    -0.150 OA
BRANCH  22  28
ATOM     25  C   UNL     1      -0.043   1.103  -0.301  0.00  0.00    +0.000 A 
ATOM     26  C   UNL     1       1.114   1.861  -0.296  0.00  0.00    +0.002 A 
ATOM     27  C   UNL     1       2.347   1.240  -0.224  0.00  0.00    +0.029 A 
ATOM     28  C   UNL     1       2.423  -0.139  -0.158  0.00  0.00    +0.108 A 
ATOM     29  C   UNL     1       1.267  -0.896  -0.163  0.00  0.00    +0.029 A 
ATOM     30  C   UNL     1       0.034  -0.275  -0.236  0.00  0.00    +0.002 A 
ENDBRANCH  22  28
ENDBRANCH  20  22
ENDBRANCH   1  20
TORSDOF 4
