REMARK  Name = ZINC24270810
REMARK  10 active torsions:
REMARK  status: ('A' for Active; 'I' for Inactive)
REMARK    1  A    between atoms: C_1  and  C_2
REMARK    2  A    between atoms: C_2  and  C_4
REMARK    3  A    between atoms: C_2  and  S_18
REMARK    4  A    between atoms: C_4  and  C_6
REMARK    5  A    between atoms: C_6  and  C_16
REMARK    6  A    between atoms: S_18  and  C_19
REMARK    7  A    between atoms: N_23  and  C_24
REMARK    8  A    between atoms: C_27  and  C_30
REMARK    9  A    between atoms: C_30  and  C_31
REMARK   10  A    between atoms: C_30  and  C_32
REMARK                            x       y       z     vdW  Elec       q    Type
REMARK                         _______ _______ _______ _____ _____    ______ ____
ROOT
ATOM      1  C   UNL     1      -0.019   1.526   0.010  0.00  0.00    +0.028 C 
ATOM      2  C   UNL     1       0.002  -0.004   0.002  0.00  0.00    +0.123 C 
ENDROOT
BRANCH   2   3
ATOM      3  C   UNL     1      -1.412  -0.526   0.013  0.00  0.00    +0.189 C 
ATOM      4  O   UNL     1      -1.940  -0.828   1.065  0.00  0.00    -0.290 OA
BRANCH   3   5
ATOM      5  C   UNL     1      -2.119  -0.663  -1.194  0.00  0.00    +0.131 C 
ATOM      6  C   UNL     1      -3.439  -1.150  -1.183  0.00  0.00    +0.114 C 
ATOM      7  N   UNL     1      -4.135  -1.513  -0.075  0.00  0.00    -0.300 N 
ATOM      8  C   UNL     1      -5.396  -1.939  -0.473  0.00  0.00    +0.054 A 
ATOM      9  C   UNL     1      -6.500  -2.413   0.223  0.00  0.00    +0.025 A 
ATOM     10  C   UNL     1      -7.644  -2.769  -0.462  0.00  0.00    +0.002 A 
ATOM     11  C   UNL     1      -7.697  -2.655  -1.841  0.00  0.00    +0.002 A 
ATOM     12  C   UNL     1      -6.605  -2.185  -2.543  0.00  0.00    +0.025 A 
ATOM     13  C   UNL     1      -5.449  -1.824  -1.864  0.00  0.00    +0.054 A 
ATOM     14  N   UNL     1      -4.220  -1.325  -2.280  0.00  0.00    -0.300 N 
ATOM     15  H   UNL     1      -3.807  -1.481   0.837  0.00  0.00    +0.153 HD
ATOM     16  H   UNL     1      -3.964  -1.137  -3.197  0.00  0.00    +0.153 HD
BRANCH   5  17
ATOM     17  C   UNL     1      -1.497  -0.307  -2.433  0.00  0.00    +0.106 C 
ATOM     18  N   UNL     1      -1.003  -0.025  -3.416  0.00  0.00    -0.191 NA
ENDBRANCH   5  17
ENDBRANCH   3   5
ENDBRANCH   2   3
BRANCH   2  19
ATOM     19  S   UNL     1       0.879  -0.605   1.472  0.00  0.00    -0.073 S 
BRANCH  19  20
ATOM     20  C   UNL     1       2.533  -0.042   1.241  0.00  0.00    +0.215 A 
ATOM     21  N   UNL     1       2.986   0.658   0.223  0.00  0.00    -0.101 NA
ATOM     22  N   UNL     1       4.239   0.903   0.367  0.00  0.00    -0.022 NA
ATOM     23  N   UNL     1       4.673   0.388   1.466  0.00  0.00    -0.038 NA
ATOM     24  N   UNL     1       3.579  -0.244   2.082  0.00  0.00    -0.187 N 
BRANCH  24  25
ATOM     25  C   UNL     1       3.570  -0.935   3.301  0.00  0.00    +0.070 A 
ATOM     26  C   UNL     1       2.451  -0.885   4.121  0.00  0.00    +0.028 A 
ATOM     27  C   UNL     1       2.445  -1.568   5.322  0.00  0.00    +0.006 A 
ATOM     28  C   UNL     1       3.552  -2.300   5.708  0.00  0.00    -0.045 A 
ATOM     29  C   UNL     1       4.668  -2.352   4.894  0.00  0.00    +0.006 A 
ATOM     30  C   UNL     1       4.678  -1.676   3.689  0.00  0.00    +0.028 A 
BRANCH  28  31
ATOM     31  C   UNL     1       3.542  -3.043   7.019  0.00  0.00    +0.013 C 
ATOM     32  C   UNL     1       3.742  -4.537   6.760  0.00  0.00    +0.012 C 
ATOM     33  C   UNL     1       4.675  -2.524   7.908  0.00  0.00    +0.012 C 
ENDBRANCH  28  31
ENDBRANCH  24  25
ENDBRANCH  19  20
ENDBRANCH   2  19
TORSDOF 7
