REMARK  Name = ZINC33058961
REMARK  13 active torsions:
REMARK  status: ('A' for Active; 'I' for Inactive)
REMARK    1  A    between atoms: C_1  and  C_2
REMARK    2  A    between atoms: C_4  and  C_33
REMARK    3  A    between atoms: C_5  and  C_9
REMARK    4  A    between atoms: C_6  and  C_8
REMARK    5  A    between atoms: C_10  and  C_11
REMARK    6  A    between atoms: C_12  and  S_17
REMARK    7  A    between atoms: C_13  and  C_16
REMARK    8  A    between atoms: S_17  and  N_20
REMARK    9  A    between atoms: C_23  and  C_26
REMARK   10  A    between atoms: N_28  and  C_29
REMARK   11  A    between atoms: C_29  and  C_30
REMARK   12  A    between atoms: C_29  and  C_31
REMARK   13  A    between atoms: C_29  and  C_32
REMARK                            x       y       z     vdW  Elec       q    Type
REMARK                         _______ _______ _______ _____ _____    ______ ____
ROOT
ATOM      1  C   UNL     1      -1.915  -0.169  -3.556  0.00  0.00    +0.187 A 
ATOM      2  C   UNL     1      -0.609  -0.592  -3.501  0.00  0.00    +0.174 A 
ATOM      3  C   UNL     1      -0.045  -0.101  -4.695  0.00  0.00    +0.107 A 
ATOM      4  N   UNL     1      -0.994   0.536  -5.322  0.00  0.00    -0.081 NA
ATOM      5  O   UNL     1      -2.036   0.515  -4.710  0.00  0.00    -0.353 OA
ATOM      6  C   UNL     1       1.378  -0.279  -5.158  0.00  0.00    +0.071 C 
ENDROOT
BRANCH   2   7
ATOM      7  S   UNL     1       0.176  -1.534  -2.236  0.00  0.00    +0.066 S 
ATOM      8  O   UNL     1       1.282  -2.187  -2.843  0.00  0.00    -0.153 OA
ATOM      9  O   UNL     1      -0.853  -2.246  -1.562  0.00  0.00    -0.153 OA
BRANCH   7  10
ATOM     10  N   UNL     1       0.803  -0.460  -1.143  0.00  0.00    -0.176 NA
ATOM     11  C   UNL     1       0.002  -0.004   0.002  0.00  0.00    +0.110 C 
ATOM     12  C   UNL     1      -0.019   1.528   0.010  0.00  0.00    +0.030 C 
ATOM     13  C   UNL     1       1.419   2.053  -0.001  0.00  0.00    +0.077 C 
ATOM     14  C   UNL     1       2.124   1.587  -1.276  0.00  0.00    +0.030 C 
ATOM     15  C   UNL     1       2.170   0.056  -1.299  0.00  0.00    +0.110 C 
BRANCH  13  16
ATOM     16  C   UNL     1       1.402   3.560   0.042  0.00  0.00    +0.217 C 
ATOM     17  O   UNL     1       0.346   4.154   0.078  0.00  0.00    -0.275 OA
ATOM     18  N   UNL     1       2.562   4.246   0.041  0.00  0.00    -0.310 N 
ATOM     19  H   UNL     1       3.521   3.707   0.009  0.00  0.00    +0.149 HD
BRANCH  18  20
ATOM     20  C   UNL     1       2.546   5.711   0.082  0.00  0.00    +0.026 C 
ATOM     21  C   UNL     1       1.842   6.177   1.358  0.00  0.00    +0.031 C 
ATOM     22  C   UNL     1       3.983   6.237   0.071  0.00  0.00    +0.031 C 
ATOM     23  C   UNL     1       1.798   6.247  -1.139  0.00  0.00    +0.031 C 
ENDBRANCH  18  20
ENDBRANCH  13  16
ENDBRANCH   7  10
ENDBRANCH   2   7
BRANCH   1  25
ATOM     24  C   UNL     1      -4.204   0.074  -2.757  0.00  0.00    +0.012 C 
ATOM     25  C   UNL     1      -2.962  -0.410  -2.559  0.00  0.00    +0.051 C 
BRANCH  24  30
ATOM     26  C   UNL     1      -8.313  -0.873   1.151  0.00  0.00    +0.044 C 
ATOM     27  C   UNL     1      -7.236  -0.625   0.127  0.00  0.00    -0.050 A 
ATOM     28  C   UNL     1      -7.013   0.658  -0.341  0.00  0.00    +0.007 A 
ATOM     29  C   UNL     1      -6.029   0.893  -1.278  0.00  0.00    -0.043 A 
ATOM     30  C   UNL     1      -5.256  -0.169  -1.756  0.00  0.00    -0.019 A 
ATOM     31  C   UNL     1      -5.491  -1.463  -1.283  0.00  0.00    -0.043 A 
ATOM     32  C   UNL     1      -6.474  -1.681  -0.341  0.00  0.00    +0.007 A 
ATOM     33  C   UNL     1      -4.666  -2.616  -1.795  0.00  0.00    +0.044 C 
ATOM     34  C   UNL     1      -5.789   2.292  -1.787  0.00  0.00    +0.044 C 
ENDBRANCH  24  30
ENDBRANCH   1  25
TORSDOF 6
