REMARK  Name = ZINC64921760
REMARK  7 active torsions:
REMARK  status: ('A' for Active; 'I' for Inactive)
REMARK    1  A    between atoms: C_1  and  C_2
REMARK    2  A    between atoms: C_2  and  C_3
REMARK    3  A    between atoms: C_10  and  S_15
REMARK    4  A    between atoms: S_15  and  N_18
REMARK    5  A    between atoms: C_21  and  C_24
REMARK    6  A    between atoms: N_26  and  C_27
REMARK    7  A    between atoms: C_32  and  C_33
REMARK                            x       y       z     vdW  Elec       q    Type
REMARK                         _______ _______ _______ _____ _____    ______ ____
ROOT
ATOM      1  N   UNL     1       1.033  -3.050   6.305  0.00  0.00    -0.177 NA
ATOM      2  C   UNL     1       1.969  -3.994   5.680  0.00  0.00    +0.110 C 
ATOM      3  C   UNL     1       2.897  -4.557   6.760  0.00  0.00    +0.030 C 
ATOM      4  C   UNL     1       3.572  -3.400   7.501  0.00  0.00    +0.078 C 
ATOM      5  C   UNL     1       2.507  -2.537   8.181  0.00  0.00    +0.030 C 
ATOM      6  C   UNL     1       1.575  -1.947   7.112  0.00  0.00    +0.110 C 
ENDROOT
BRANCH   4   7
ATOM      7  C   UNL     1       4.512  -3.951   8.542  0.00  0.00    +0.220 C 
ATOM      8  O   UNL     1       4.630  -5.151   8.679  0.00  0.00    -0.275 OA
ATOM      9  N   UNL     1       5.221  -3.111   9.322  0.00  0.00    -0.285 N 
ATOM     10  H   UNL     1       5.189  -2.155   9.161  0.00  0.00    +0.155 HD
BRANCH   9  11
ATOM     11  C   UNL     1       6.005  -3.618  10.365  0.00  0.00    +0.036 A 
ATOM     12  C   UNL     1       5.692  -4.844  10.938  0.00  0.00    +0.025 A 
ATOM     13  C   UNL     1       6.467  -5.341  11.967  0.00  0.00    +0.022 A 
ATOM     14  C   UNL     1       7.555  -4.620  12.427  0.00  0.00    +0.041 A 
ATOM     15  C   UNL     1       7.869  -3.399  11.858  0.00  0.00    +0.025 A 
ATOM     16  C   UNL     1       7.101  -2.899  10.824  0.00  0.00    -0.028 A 
ATOM     17  C   UNL     1       7.448  -1.572  10.200  0.00  0.00    +0.046 C 
ATOM     18 CL   UNL     1       8.527  -5.248  13.722  0.00  0.00    -0.084 Cl
ENDBRANCH   9  11
ENDBRANCH   4   7
BRANCH   1  19
ATOM     19  S   UNL     1      -0.601  -3.220   6.100  0.00  0.00    +0.061 S 
ATOM     20  O   UNL     1      -1.219  -2.570   7.202  0.00  0.00    -0.153 OA
ATOM     21  O   UNL     1      -0.831  -4.589   5.796  0.00  0.00    -0.153 OA
BRANCH  19  28
ATOM     22  C   UNL     1      -1.504  -0.525   0.066  0.00  0.00    +0.259 C 
ATOM     23  C   UNL     1      -1.482  -2.026  -0.073  0.00  0.00    +0.258 C 
ATOM     24  O   UNL     1      -1.575  -2.538  -1.169  0.00  0.00    -0.271 OA
ATOM     25  N   UNL     1      -1.358  -2.799   1.027  0.00  0.00    -0.279 N 
ATOM     26  C   UNL     1      -1.379  -2.196   2.292  0.00  0.00    +0.078 A 
ATOM     27  C   UNL     1      -1.030  -2.917   3.422  0.00  0.00    +0.055 A 
ATOM     28  C   UNL     1      -1.044  -2.304   4.661  0.00  0.00    +0.107 A 
ATOM     29  C   UNL     1      -1.404  -0.974   4.775  0.00  0.00    +0.032 A 
ATOM     30  C   UNL     1      -1.758  -0.250   3.651  0.00  0.00    +0.049 A 
ATOM     31  C   UNL     1      -1.753  -0.859   2.408  0.00  0.00    +0.143 A 
ATOM     32  O   UNL     1      -2.129  -0.166   1.300  0.00  0.00    -0.478 OA
ATOM     33  H   UNL     1      -1.256  -3.760   0.943  0.00  0.00    +0.155 HD
BRANCH  22  35
ATOM     34  C   UNL     1      -0.096   1.539   0.061  0.00  0.00    +0.008 C 
ATOM     35  C   UNL     1      -0.070   0.009   0.047  0.00  0.00    +0.051 C 
ENDBRANCH  22  35
ENDBRANCH  19  28
ENDBRANCH   1  19
TORSDOF 5
