REMARK  Name = ZINC15923026
REMARK  8 active torsions:
REMARK  status: ('A' for Active; 'I' for Inactive)
REMARK    1  A    between atoms: C_1  and  C_2
REMARK    2  A    between atoms: C_5  and  N_9
REMARK    3  A    between atoms: C_6  and  O_8
REMARK    4  A    between atoms: C_10  and  C_12
REMARK    5  A    between atoms: C_13  and  C_14
REMARK    6  A    between atoms: C_17  and  C_20
REMARK    7  A    between atoms: C_20  and  O_22
REMARK    8  A    between atoms: O_22  and  C_23
REMARK                            x       y       z     vdW  Elec       q    Type
REMARK                         _______ _______ _______ _____ _____    ______ ____
ROOT
ATOM      1  N   UNL     1       0.058  -4.174  -0.031  0.00  0.00    -0.279 N 
ATOM      2  C   UNL     1      -0.041  -4.840  -1.198  0.00  0.00    +0.241 C 
ATOM      3  O   UNL     1      -0.054  -4.226  -2.249  0.00  0.00    -0.270 OA
ATOM      4  H   UNL     1       0.150  -4.664   0.801  0.00  0.00    +0.155 HD
ENDROOT
BRANCH   1   9
ATOM      5  C   UNL     1      -0.066   1.502   0.016  0.00  0.00    +0.044 C 
ATOM      6  C   UNL     1      -0.032  -0.005   0.006  0.00  0.00    -0.047 A 
ATOM      7  C   UNL     1      -0.622  -0.701  -1.033  0.00  0.00    +0.005 A 
ATOM      8  C   UNL     1      -0.593  -2.082  -1.048  0.00  0.00    +0.027 A 
ATOM      9  C   UNL     1       0.028  -2.774  -0.018  0.00  0.00    +0.076 A 
ATOM     10  C   UNL     1       0.623  -2.072   1.028  0.00  0.00    +0.138 A 
ATOM     11  C   UNL     1       0.595  -0.687   1.032  0.00  0.00    +0.050 A 
BRANCH  10  12
ATOM     12  O   UNL     1       1.233  -2.744   2.040  0.00  0.00    -0.505 OA
ATOM     13  H   UNL     1       2.172  -2.919   1.886  0.00  0.00    +0.292 HD
ENDBRANCH  10  12
ENDBRANCH   1   9
BRANCH   2  14
ATOM     14  C   UNL     1      -0.132  -6.303  -1.203  0.00  0.00    +0.068 C 
ATOM     15  C   UNL     1      -0.230  -6.968  -2.370  0.00  0.00    +0.013 C 
BRANCH  15  16
ATOM     16  C   UNL     1      -0.322  -8.438  -2.374  0.00  0.00    -0.025 A 
ATOM     17  C   UNL     1      -0.312  -9.143  -1.166  0.00  0.00    +0.009 A 
ATOM     18  C   UNL     1      -0.398 -10.517  -1.171  0.00  0.00    +0.015 A 
ATOM     19  C   UNL     1      -0.495 -11.207  -2.382  0.00  0.00    +0.059 A 
ATOM     20  C   UNL     1      -0.504 -10.504  -3.589  0.00  0.00    +0.015 A 
ATOM     21  C   UNL     1      -0.424  -9.129  -3.586  0.00  0.00    +0.009 A 
BRANCH  19  22
ATOM     22  C   UNL     1      -0.586 -12.682  -2.386  0.00  0.00    +0.339 C 
ATOM     23  O   UNL     1      -0.578 -13.294  -1.337  0.00  0.00    -0.245 OA
BRANCH  22  24
ATOM     24  O   UNL     1      -0.679 -13.348  -3.553  0.00  0.00    -0.464 OA
ATOM     25  C   UNL     1      -0.765 -14.772  -3.483  0.00  0.00    +0.280 C 
ENDBRANCH  22  24
ENDBRANCH  19  22
ENDBRANCH  15  16
ENDBRANCH   2  14
TORSDOF 6
