REMARK  Name = ZINC16218665
REMARK  4 active torsions:
REMARK  status: ('A' for Active; 'I' for Inactive)
REMARK    1  A    between atoms: N_9  and  C_25
REMARK    2  A    between atoms: C_10  and  S_12
REMARK    3  A    between atoms: S_12  and  C_13
REMARK    4  A    between atoms: C_13  and  C_14
REMARK                            x       y       z     vdW  Elec       q    Type
REMARK                         _______ _______ _______ _____ _____    ______ ____
ROOT
ATOM      1  C   UNL     1       1.424   3.680   9.313  0.00  0.00    +0.001 A 
ATOM      2  C   UNL     1       0.837   4.528   8.383  0.00  0.00    +0.002 A 
ATOM      3  C   UNL     1       0.184   4.030   7.291  0.00  0.00    +0.028 A 
ATOM      4  C   UNL     1       0.104   2.646   7.104  0.00  0.00    +0.079 A 
ATOM      5  C   UNL     1       0.703   1.786   8.053  0.00  0.00    +0.065 A 
ATOM      6  C   UNL     1       1.363   2.322   9.158  0.00  0.00    +0.015 A 
ATOM      7  C   UNL     1       0.607   0.337   7.835  0.00  0.00    +0.267 A 
ATOM      8  O   UNL     1       1.102  -0.454   8.617  0.00  0.00    -0.267 OA
ATOM      9  N   UNL     1      -0.054  -0.086   6.732  0.00  0.00    -0.253 N 
ATOM     10  C   UNL     1      -0.604   0.817   5.864  0.00  0.00    +0.177 A 
ATOM     11  N   UNL     1      -0.525   2.113   6.037  0.00  0.00    -0.223 NA
ENDROOT
BRANCH   9  12
ATOM     12  C   UNL     1      -0.175  -1.459   6.477  0.00  0.00    +0.087 A 
ATOM     13  C   UNL     1       0.788  -2.114   5.722  0.00  0.00    +0.029 A 
ATOM     14  C   UNL     1       0.669  -3.468   5.476  0.00  0.00    +0.002 A 
ATOM     15  C   UNL     1      -0.414  -4.171   5.973  0.00  0.00    +0.003 A 
ATOM     16  C   UNL     1      -1.379  -3.522   6.722  0.00  0.00    +0.040 A 
ATOM     17  C   UNL     1      -1.263  -2.167   6.976  0.00  0.00    +0.147 A 
ATOM     18  F   UNL     1      -2.206  -1.533   7.706  0.00  0.00    -0.203 F 
ENDBRANCH   9  12
BRANCH  10  19
ATOM     19  S   UNL     1      -1.452   0.209   4.445  0.00  0.00    -0.082 S 
BRANCH  19  20
ATOM     20  C   UNL     1      -1.954   1.773   3.684  0.00  0.00    +0.116 C 
BRANCH  20  21
ATOM     21  C   UNL     1      -2.718   1.493   2.416  0.00  0.00    +0.008 A 
ATOM     22  C   UNL     1      -4.090   1.339   2.457  0.00  0.00    +0.046 A 
ATOM     23  C   UNL     1      -4.793   1.081   1.292  0.00  0.00    +0.124 A 
ATOM     24  C   UNL     1      -4.120   0.975   0.086  0.00  0.00    +0.047 A 
ATOM     25  C   UNL     1      -2.747   1.129   0.043  0.00  0.00    +0.023 A 
ATOM     26  C   UNL     1      -2.043   1.390   1.208  0.00  0.00    +0.133 A 
ATOM     27  O   UNL     1      -0.689   1.550   1.180  0.00  0.00    -0.466 OA
ATOM     28  C   UNL     1      -0.013   1.086   0.008  0.00  0.00    +0.394 C 
ATOM     29  O   UNL     1      -0.712   1.564  -1.147  0.00  0.00    -0.339 OA
ATOM     30  C   UNL     1      -2.025   1.010  -1.276  0.00  0.00    +0.202 C 
ATOM     31  F   UNL     1      -6.135   0.931   1.332  0.00  0.00    -0.205 F 
ENDBRANCH  20  21
ENDBRANCH  19  20
ENDBRANCH  10  19
TORSDOF 4
