REMARK  Name = ZINC09311193
REMARK  7 active torsions:
REMARK  status: ('A' for Active; 'I' for Inactive)
REMARK    1  A    between atoms: C_1  and  C_2
REMARK    2  A    between atoms: C_4  and  C_27
REMARK    3  A    between atoms: C_6  and  N_8
REMARK    4  A    between atoms: C_14  and  C_15
REMARK    5  A    between atoms: C_18  and  O_22
REMARK    6  A    between atoms: O_22  and  C_23
REMARK    7  A    between atoms: C_23  and  C_24
REMARK                            x       y       z     vdW  Elec       q    Type
REMARK                         _______ _______ _______ _____ _____    ______ ____
ROOT
ATOM      1  N   UNL     1       0.177  -3.924   0.709  0.00  0.00    -0.226 NA
ATOM      2  C   UNL     1      -0.107  -2.651   0.551  0.00  0.00    +0.166 C 
ATOM      3  N   UNL     1      -1.345  -2.046   0.524  0.00  0.00    -0.260 N 
ATOM      4  C   UNL     1      -1.453  -0.739   0.354  0.00  0.00    +0.256 C 
ATOM      5  O   UNL     1      -2.538  -0.188   0.329  0.00  0.00    -0.269 OA
ATOM      6  C   UNL     1      -0.199   0.021   0.197  0.00  0.00    +0.078 C 
ATOM      7  C   UNL     1      -0.016   1.353   0.009  0.00  0.00    +0.028 C 
ATOM      8  S   UNL     1       1.016  -1.284   0.310  0.00  0.00    -0.049 S 
ATOM      9  H   UNL     1      -2.145  -2.584   0.632  0.00  0.00    +0.157 HD
ENDROOT
BRANCH   1  15
ATOM     10  C   UNL     1       4.641  -3.767  -1.294  0.00  0.00    +0.044 C 
ATOM     11  C   UNL     1       3.681  -4.283  -0.253  0.00  0.00    -0.048 A 
ATOM     12  C   UNL     1       4.119  -5.181   0.705  0.00  0.00    +0.006 A 
ATOM     13  C   UNL     1       3.245  -5.660   1.664  0.00  0.00    -0.048 A 
ATOM     14  C   UNL     1       1.929  -5.245   1.672  0.00  0.00    +0.031 A 
ATOM     15  C   UNL     1       1.480  -4.340   0.708  0.00  0.00    +0.067 A 
ATOM     16  C   UNL     1       2.367  -3.865  -0.262  0.00  0.00    +0.031 A 
ATOM     17  C   UNL     1       3.731  -6.637   2.704  0.00  0.00    +0.044 C 
ENDBRANCH   1  15
BRANCH   7  18
ATOM     18  C   UNL     1       1.337   1.921   0.044  0.00  0.00    -0.023 A 
ATOM     19  C   UNL     1       2.392   1.190   0.606  0.00  0.00    +0.011 A 
ATOM     20  C   UNL     1       3.660   1.725   0.631  0.00  0.00    +0.047 A 
ATOM     21  C   UNL     1       3.894   2.993   0.111  0.00  0.00    +0.135 A 
ATOM     22  C   UNL     1       2.849   3.726  -0.443  0.00  0.00    +0.060 A 
ATOM     23  C   UNL     1       1.577   3.198  -0.478  0.00  0.00    +0.027 A 
ATOM     24 BR   UNL     1       3.176   5.449  -1.148  0.00  0.00    -0.046 Br
BRANCH  21  25
ATOM     25  O   UNL     1       5.146   3.517   0.143  0.00  0.00    -0.487 OA
BRANCH  25  26
ATOM     26  C   UNL     1       6.172   2.711   0.726  0.00  0.00    +0.256 C 
BRANCH  26  27
ATOM     27  C   UNL     1       7.483   3.452   0.673  0.00  0.00    +0.006 C 
ATOM     28  C   UNL     1       8.264   3.478   1.725  0.00  0.00    +0.007 C 
ENDBRANCH  26  27
ENDBRANCH  25  26
ENDBRANCH  21  25
ENDBRANCH   7  18
TORSDOF 5
