REMARK  Name = ZINC65375547
REMARK  7 active torsions:
REMARK  status: ('A' for Active; 'I' for Inactive)
REMARK    1  A    between atoms: C_1  and  C_2
REMARK    2  A    between atoms: C_5  and  C_8
REMARK    3  A    between atoms: C_8  and  C_14
REMARK    4  A    between atoms: C_14  and  N_15
REMARK    5  A    between atoms: N_15  and  C_16
REMARK    6  A    between atoms: N_15  and  C_17
REMARK    7  A    between atoms: C_17  and  C_18
REMARK                            x       y       z     vdW  Elec       q    Type
REMARK                         _______ _______ _______ _____ _____    ______ ____
ROOT
ATOM      1  C   UNL     1      -0.204  -4.529   0.454  0.00  0.00    -0.005 C 
ATOM      2  C   UNL     1       0.787  -4.503  -0.713  0.00  0.00    -0.008 C 
ATOM      3  C   UNL     1       1.475  -5.865  -0.821  0.00  0.00    -0.082 C 
ATOM      4  N   UNL     1       0.469  -6.909  -1.054  0.00  0.00    +0.379 N 
ATOM      5  C   UNL     1      -0.442  -6.988   0.095  0.00  0.00    -0.082 C 
ATOM      6  C   UNL     1      -1.204  -5.668   0.238  0.00  0.00    -0.008 C 
ATOM      7  H   UNL     1      -0.058  -6.687  -1.885  0.00  0.00    -0.086 HD
ATOM      8  H   UNL     1       0.931  -7.798  -1.177  0.00  0.00    -0.086 HD
ENDROOT
BRANCH   1  13
ATOM      9  C   UNL     1      -3.002   0.464   0.793  0.00  0.00    +0.045 C 
ATOM     10  C   UNL     1      -2.271  -0.848   0.666  0.00  0.00    -0.032 A 
ATOM     11  C   UNL     1      -2.078  -1.426  -0.580  0.00  0.00    +0.006 A 
ATOM     12  C   UNL     1      -1.400  -2.633  -0.649  0.00  0.00    +0.024 A 
ATOM     13  C   UNL     1      -0.942  -3.216   0.517  0.00  0.00    +0.046 A 
ATOM     14  N   UNL     1      -1.144  -2.638   1.685  0.00  0.00    -0.259 NA
ATOM     15  C   UNL     1      -1.779  -1.486   1.788  0.00  0.00    +0.114 A 
ENDBRANCH   1  13
BRANCH   1  16
ATOM     16  C   UNL     1       0.553  -4.754   1.765  0.00  0.00    -0.066 C 
BRANCH  16  17
ATOM     17  N   UNL     1       1.799  -3.976   1.750  0.00  0.00    +0.380 N 
ATOM     18  C   UNL     1       2.590  -4.297   2.946  0.00  0.00    -0.096 C 
ATOM     19  H   UNL     1       2.330  -4.206   0.924  0.00  0.00    -0.082 HD
BRANCH  17  20
ATOM     20  C   UNL     1       1.481  -2.542   1.744  0.00  0.00    -0.046 C 
BRANCH  20  21
ATOM     21  C   UNL     1       2.778  -1.732   1.698  0.00  0.00    +0.139 C 
ATOM     22  C   UNL     1       2.489  -0.272   1.460  0.00  0.00    -0.023 C 
ATOM     23  C   UNL     1       3.088   0.013   0.298  0.00  0.00    +0.064 C 
ATOM     24  C   UNL     1       3.051   1.388  -0.331  0.00  0.00    +0.057 C 
ATOM     25  C   UNL     1       1.918   2.190   0.316  0.00  0.00    +0.006 C 
ATOM     26  C   UNL     1       2.039   2.117   1.841  0.00  0.00    +0.005 C 
ATOM     27  C   UNL     1       1.710   0.692   2.306  0.00  0.00    +0.035 C 
ATOM     28  N   UNL     1       3.699  -1.090  -0.189  0.00  0.00    -0.159 NA
ATOM     29  N   UNL     1       3.584  -2.102   0.518  0.00  0.00    -0.181 NA
ENDBRANCH  20  21
ENDBRANCH  17  20
ENDBRANCH  16  17
ENDBRANCH   1  16
TORSDOF 5
