REMARK  Name = ZINC03350721
REMARK  8 active torsions:
REMARK  status: ('A' for Active; 'I' for Inactive)
REMARK    1  A    between atoms: C_1  and  C_2
REMARK    2  A    between atoms: C_7  and  N_8
REMARK    3  A    between atoms: C_11  and  C_16
REMARK    4  A    between atoms: C_16  and  S_17
REMARK    5  A    between atoms: S_17  and  C_18
REMARK    6  A    between atoms: C_21  and  C_30
REMARK    7  A    between atoms: N_22  and  C_23
REMARK    8  A    between atoms: C_23  and  C_24
REMARK                            x       y       z     vdW  Elec       q    Type
REMARK                         _______ _______ _______ _____ _____    ______ ____
ROOT
ATOM      1  N   UNL     1       0.025  -0.015   2.416  0.00  0.00    -0.283 N 
ATOM      2  C   UNL     1      -0.058  -0.712   3.606  0.00  0.00    +0.224 A 
ATOM      3  N   UNL     1      -0.162  -0.053   4.758  0.00  0.00    -0.198 NA
ATOM      4  C   UNL     1      -0.242  -0.719   5.897  0.00  0.00    +0.146 A 
ATOM      5  N   UNL     1      -0.219  -2.041   5.897  0.00  0.00    -0.199 NA
ATOM      6  C   UNL     1      -0.115  -2.706   4.749  0.00  0.00    +0.217 A 
ATOM      7  N   UNL     1      -0.041  -2.040   3.602  0.00  0.00    -0.181 NA
ATOM      8  N   UNL     1      -0.091  -4.086   4.750  0.00  0.00    -0.327 N 
ATOM      9  H   UNL     1      -0.077   0.949   2.411  0.00  0.00    +0.155 HD
ATOM     10  H   UNL     1      -0.150  -4.571   5.588  0.00  0.00    +0.145 HD
ATOM     11  H   UNL     1      -0.015  -4.570   3.913  0.00  0.00    +0.145 HD
ENDROOT
BRANCH   1  18
ATOM     12  C   UNL     1      -1.030   1.083   0.013  0.00  0.00    +0.045 C 
ATOM     13  C   UNL     1      -0.239  -0.200   0.024  0.00  0.00    -0.029 A 
ATOM     14  C   UNL     1      -0.003  -0.876  -1.157  0.00  0.00    +0.005 A 
ATOM     15  C   UNL     1       0.723  -2.053  -1.149  0.00  0.00    +0.000 A 
ATOM     16  C   UNL     1       1.214  -2.557   0.042  0.00  0.00    +0.002 A 
ATOM     17  C   UNL     1       0.981  -1.886   1.226  0.00  0.00    +0.023 A 
ATOM     18  C   UNL     1       0.258  -0.701   1.220  0.00  0.00    +0.036 A 
ENDBRANCH   1  18
BRANCH   4  19
ATOM     19  C   UNL     1      -0.360   0.031   7.199  0.00  0.00    +0.153 C 
BRANCH  19  20
ATOM     20  S   UNL     1      -2.111   0.302   7.585  0.00  0.00    -0.078 S 
BRANCH  20  21
ATOM     21  C   UNL     1      -2.081   1.177   9.114  0.00  0.00    +0.192 A 
ATOM     22  N   UNL     1      -1.010   1.537   9.784  0.00  0.00    -0.122 NA
ATOM     23  N   UNL     1      -1.347   2.159  10.856  0.00  0.00    -0.128 NA
ATOM     24  C   UNL     1      -2.657   2.236  10.938  0.00  0.00    +0.172 A 
ATOM     25  N   UNL     1      -3.167   1.613   9.820  0.00  0.00    -0.299 N 
BRANCH  24  26
ATOM     26  C   UNL     1      -3.431   2.871  12.016  0.00  0.00    +0.056 A 
ATOM     27  C   UNL     1      -3.007   3.743  12.987  0.00  0.00    +0.019 A 
ATOM     28  C   UNL     1      -3.925   4.212  13.900  0.00  0.00    +0.008 A 
ATOM     29  C   UNL     1      -5.216   3.800  13.813  0.00  0.00    +0.046 A 
ATOM     30  S   UNL     1      -5.169   2.714  12.396  0.00  0.00    -0.094 S 
ENDBRANCH  24  26
BRANCH  25  31
ATOM     31  C   UNL     1      -4.579   1.451   9.464  0.00  0.00    +0.157 C 
BRANCH  31  32
ATOM     32  C   UNL     1      -5.107   0.143  10.057  0.00  0.00    +0.138 C 
ATOM     33  C   UNL     1      -6.622  -0.005   9.768  0.00  0.00    +0.035 C 
ATOM     34  C   UNL     1      -6.786  -1.548   9.838  0.00  0.00    +0.031 C 
ATOM     35  C   UNL     1      -5.439  -2.046   9.270  0.00  0.00    +0.160 C 
ATOM     36  O   UNL     1      -4.489  -0.982   9.412  0.00  0.00    -0.375 OA
ENDBRANCH  31  32
ENDBRANCH  25  31
ENDBRANCH  20  21
ENDBRANCH  19  20
ENDBRANCH   4  19
TORSDOF 7
