REMARK  Name = ZINC41157398
REMARK  5 active torsions:
REMARK  status: ('A' for Active; 'I' for Inactive)
REMARK    1  A    between atoms: C_1  and  O_2
REMARK    2  A    between atoms: O_2  and  C_3
REMARK    3  A    between atoms: C_8  and  C_9
REMARK    4  A    between atoms: N_11  and  C_12
REMARK    5  A    between atoms: C_12  and  C_13
REMARK                            x       y       z     vdW  Elec       q    Type
REMARK                         _______ _______ _______ _____ _____    ______ ____
ROOT
ATOM      1  C   UNL     1      -1.199  -0.612  -2.483  0.00  0.00    +0.249 C 
ATOM      2  O   UNL     1      -0.447  -1.401  -3.023  0.00  0.00    -0.270 OA
ATOM      3  N   UNL     1      -1.453   0.580  -3.060  0.00  0.00    -0.307 N 
ATOM      4  H   UNL     1      -2.053   1.209  -2.630  0.00  0.00    +0.149 HD
ENDROOT
BRANCH   1  10
ATOM      5  C   UNL     1      -1.198  -0.636   0.010  0.00  0.00    +0.152 A 
ATOM      6  C   UNL     1      -1.806  -0.963   1.214  0.00  0.00    +0.083 A 
ATOM      7  C   UNL     1      -3.029  -1.606   1.221  0.00  0.00    +0.025 A 
ATOM      8  C   UNL     1      -3.657  -1.931   0.030  0.00  0.00    +0.022 A 
ATOM      9  C   UNL     1      -3.067  -1.615  -1.176  0.00  0.00    +0.057 A 
ATOM     10  C   UNL     1      -1.833  -0.958  -1.197  0.00  0.00    +0.098 A 
ATOM     11 CL   UNL     1      -3.860  -2.025  -2.665  0.00  0.00    -0.083 Cl
ATOM     12 CL   UNL     1      -1.029  -0.562   2.714  0.00  0.00    -0.080 Cl
BRANCH   5  14
ATOM     13  C   UNL     1      -0.017   1.425   0.010  0.00  0.00    +0.277 C 
ATOM     14  O   UNL     1       0.002  -0.004   0.002  0.00  0.00    -0.493 OA
ENDBRANCH   5  14
ENDBRANCH   1  10
BRANCH   3  15
ATOM     15  C   UNL     1      -0.824   0.924  -4.338  0.00  0.00    +0.145 C 
BRANCH  15  16
ATOM     16  C   UNL     1      -1.269   2.299  -4.763  0.00  0.00    +0.034 A 
ATOM     17  C   UNL     1      -0.503   3.379  -4.469  0.00  0.00    +0.020 A 
ATOM     18  C   UNL     1      -0.964   4.701  -4.897  0.00  0.00    -0.001 A 
ATOM     19  C   UNL     1      -0.216   5.851  -4.624  0.00  0.00    +0.010 A 
ATOM     20  C   UNL     1      -0.674   7.070  -5.037  0.00  0.00    +0.001 A 
ATOM     21  C   UNL     1      -1.875   7.178  -5.725  0.00  0.00    +0.002 A 
ATOM     22  C   UNL     1      -2.628   6.058  -6.005  0.00  0.00    +0.026 A 
ATOM     23  C   UNL     1      -2.182   4.806  -5.595  0.00  0.00    +0.049 A 
ATOM     24  N   UNL     1      -2.914   3.669  -5.862  0.00  0.00    -0.322 N 
ATOM     25  H   UNL     1      -3.753   3.743  -6.343  0.00  0.00    +0.169 HD
ATOM     26  C   UNL     1      -2.480   2.458  -5.470  0.00  0.00    +0.254 A 
ATOM     27  O   UNL     1      -3.152   1.474  -5.728  0.00  0.00    -0.268 OA
ENDBRANCH  15  16
ENDBRANCH   3  15
TORSDOF 4
