REMARK  Name = ZINC01092246
REMARK  7 active torsions:
REMARK  status: ('A' for Active; 'I' for Inactive)
REMARK    1  A    between atoms: C_1  and  O_2
REMARK    2  A    between atoms: O_2  and  C_3
REMARK    3  A    between atoms: C_6  and  N_9
REMARK    4  A    between atoms: N_9  and  N_10
REMARK    5  A    between atoms: C_11  and  C_24
REMARK    6  A    between atoms: C_14  and  C_15
REMARK    7  A    between atoms: C_20  and  O_21
REMARK                            x       y       z     vdW  Elec       q    Type
REMARK                         _______ _______ _______ _____ _____    ______ ____
ROOT
ATOM      1  N   UNL     1       2.321   4.457  -0.560  0.00  0.00    -0.166 N 
ATOM      2  C   UNL     1       1.206   3.656  -0.638  0.00  0.00    +0.153 C 
ATOM      3  N   UNL     1       0.117   4.348  -0.433  0.00  0.00    -0.225 NA
ATOM      4  C   UNL     1       0.447   5.652  -0.213  0.00  0.00    +0.130 C 
ATOM      5  C   UNL     1      -0.418   6.696   0.042  0.00  0.00    +0.044 C 
ATOM      6  C   UNL     1       1.917   5.720  -0.302  0.00  0.00    +0.287 C 
ATOM      7  O   UNL     1       2.619   6.706  -0.168  0.00  0.00    -0.266 OA
ENDROOT
BRANCH   5   8
ATOM      8  C   UNL     1      -1.864   6.488  -0.056  0.00  0.00    +0.019 A 
ATOM      9  C   UNL     1      -2.392   5.190  -0.059  0.00  0.00    +0.011 A 
ATOM     10  C   UNL     1      -3.753   5.004  -0.151  0.00  0.00    +0.001 A 
ATOM     11  C   UNL     1      -4.605   6.094  -0.242  0.00  0.00    +0.004 A 
ATOM     12  C   UNL     1      -4.100   7.380  -0.240  0.00  0.00    +0.046 A 
ATOM     13  C   UNL     1      -2.734   7.591  -0.142  0.00  0.00    +0.124 A 
BRANCH  13  14
ATOM     14  O   UNL     1      -2.237   8.853  -0.134  0.00  0.00    -0.506 OA
ATOM     15  H   UNL     1      -2.031   9.200  -1.012  0.00  0.00    +0.292 HD
ENDBRANCH  13  14
ENDBRANCH   5   8
BRANCH   2  16
ATOM     16  C   UNL     1       1.235   2.204  -0.910  0.00  0.00    +0.017 A 
ATOM     17  C   UNL     1       0.045   1.476  -0.963  0.00  0.00    +0.011 A 
ATOM     18  C   UNL     1       0.080   0.121  -1.218  0.00  0.00    +0.001 A 
ATOM     19  C   UNL     1       1.291  -0.517  -1.420  0.00  0.00    +0.000 A 
ATOM     20  C   UNL     1       2.474   0.198  -1.369  0.00  0.00    +0.001 A 
ATOM     21  C   UNL     1       2.454   1.554  -1.115  0.00  0.00    +0.011 A 
ENDBRANCH   2  16
BRANCH   1  22
ATOM     22  N   UNL     1       3.647   4.036  -0.724  0.00  0.00    -0.256 N 
ATOM     23  H   UNL     1       4.088   3.539  -0.018  0.00  0.00    +0.171 HD
BRANCH  22  27
ATOM     24  C   UNL     1       5.695   4.922  -4.244  0.00  0.00    +0.120 A 
ATOM     25  C   UNL     1       6.327   4.211  -3.235  0.00  0.00    +0.047 A 
ATOM     26  C   UNL     1       5.649   3.917  -2.068  0.00  0.00    +0.028 A 
ATOM     27  C   UNL     1       4.335   4.333  -1.906  0.00  0.00    +0.045 A 
ATOM     28  C   UNL     1       3.701   5.041  -2.919  0.00  0.00    +0.028 A 
ATOM     29  C   UNL     1       4.382   5.339  -4.083  0.00  0.00    +0.047 A 
BRANCH  24  31
ATOM     30  C   UNL     1       5.652   5.947  -6.390  0.00  0.00    +0.277 C 
ATOM     31  O   UNL     1       6.364   5.211  -5.393  0.00  0.00    -0.495 OA
ENDBRANCH  24  31
ENDBRANCH  22  27
ENDBRANCH   1  22
TORSDOF 6
