REMARK  Name = ZINC19940187
REMARK  11 active torsions:
REMARK  status: ('A' for Active; 'I' for Inactive)
REMARK    1  A    between atoms: C_1  and  C_2
REMARK    2  A    between atoms: C_7  and  N_8
REMARK    3  A    between atoms: C_9  and  C_11
REMARK    4  A    between atoms: C_11  and  S_12
REMARK    5  A    between atoms: S_12  and  C_13
REMARK    6  A    between atoms: C_14  and  C_37
REMARK    7  A    between atoms: C_15  and  C_31
REMARK    8  A    between atoms: C_17  and  C_21
REMARK    9  A    between atoms: C_18  and  C_20
REMARK   10  A    between atoms: N_23  and  C_24
REMARK   11  A    between atoms: C_29  and  C_30
REMARK                            x       y       z     vdW  Elec       q    Type
REMARK                         _______ _______ _______ _____ _____    ______ ____
ROOT
ATOM      1  C   UNL     1       7.003   5.633   0.184  0.00  0.00    +0.080 C 
ATOM      2  C   UNL     1       5.814   6.284   0.286  0.00  0.00    +0.069 C 
ATOM      3  C   UNL     1       4.523   5.612  -0.086  0.00  0.00    +0.098 C 
ATOM      4  C   UNL     1       4.701   4.124  -0.175  0.00  0.00    +0.044 C 
ATOM      5  C   UNL     1       5.918   3.562  -0.253  0.00  0.00    +0.014 C 
ATOM      6  N   UNL     1       7.051   4.330  -0.258  0.00  0.00    -0.312 N 
ATOM      7  C   UNL     1       6.039   2.062  -0.343  0.00  0.00    +0.061 C 
ATOM      8  H   UNL     1       8.000   3.905  -0.617  0.00  0.00    +0.152 HD
ENDROOT
BRANCH   3   9
ATOM      9  C   UNL     1       4.059   6.136  -1.421  0.00  0.00    -0.035 A 
ATOM     10  C   UNL     1       4.846   5.961  -2.544  0.00  0.00    +0.004 A 
ATOM     11  C   UNL     1       4.418   6.438  -3.769  0.00  0.00    +0.000 A 
ATOM     12  C   UNL     1       3.207   7.097  -3.869  0.00  0.00    +0.000 A 
ATOM     13  C   UNL     1       2.423   7.277  -2.746  0.00  0.00    +0.000 A 
ATOM     14  C   UNL     1       2.849   6.796  -1.522  0.00  0.00    +0.004 A 
ENDBRANCH   3   9
BRANCH   4  15
ATOM     15  C   UNL     1       3.557   3.291  -0.170  0.00  0.00    +0.247 C 
ATOM     16  O   UNL     1       2.902   3.163   0.849  0.00  0.00    -0.270 OA
ATOM     17  N   UNL     1       3.192   2.639  -1.292  0.00  0.00    -0.281 N 
ATOM     18  H   UNL     1       3.824   2.696  -2.191  0.00  0.00    +0.155 HD
BRANCH  17  19
ATOM     19  C   UNL     1       2.011   1.891  -1.313  0.00  0.00    +0.037 A 
ATOM     20  C   UNL     1       1.596   1.212  -0.174  0.00  0.00    +0.023 A 
ATOM     21  C   UNL     1       0.429   0.474  -0.199  0.00  0.00    +0.002 A 
ATOM     22  C   UNL     1      -0.323   0.406  -1.357  0.00  0.00    +0.000 A 
ATOM     23  C   UNL     1       0.084   1.085  -2.491  0.00  0.00    +0.005 A 
ATOM     24  C   UNL     1       1.250   1.825  -2.473  0.00  0.00    -0.029 A 
ATOM     25  C   UNL     1       1.697   2.559  -3.711  0.00  0.00    +0.045 C 
ENDBRANCH  17  19
ENDBRANCH   4  15
BRANCH   2  26
ATOM     26  C   UNL     1       5.791   7.636   0.758  0.00  0.00    +0.098 C 
ATOM     27  N   UNL     1       5.773   8.708   1.133  0.00  0.00    -0.191 NA
ENDBRANCH   2  26
BRANCH   1  28
ATOM     28  S   UNL     1       8.495   6.463   0.622  0.00  0.00    -0.100 S 
BRANCH  28  29
ATOM     29  C   UNL     1       9.694   5.148   0.293  0.00  0.00    +0.171 C 
BRANCH  29  31
ATOM     30  N   UNL     1      12.143   4.831   0.434  0.00  0.00    -0.285 N 
ATOM     31  C   UNL     1      11.082   5.644   0.605  0.00  0.00    +0.227 C 
ATOM     32  O   UNL     1      11.245   6.776   1.010  0.00  0.00    -0.275 OA
ATOM     33  H   UNL     1      12.003   3.826   0.009  0.00  0.00    +0.155 HD
BRANCH  30  40
ATOM     34  C   UNL     1      14.083   2.866   1.123  0.00  0.00    +0.045 C 
ATOM     35  C   UNL     1      14.400   4.339   1.141  0.00  0.00    -0.029 A 
ATOM     36  C   UNL     1      15.664   4.770   1.495  0.00  0.00    +0.005 A 
ATOM     37  C   UNL     1      15.954   6.121   1.518  0.00  0.00    +0.000 A 
ATOM     38  C   UNL     1      14.981   7.046   1.182  0.00  0.00    +0.002 A 
ATOM     39  C   UNL     1      13.717   6.621   0.822  0.00  0.00    +0.023 A 
ATOM     40  C   UNL     1      13.423   5.264   0.798  0.00  0.00    +0.036 A 
ENDBRANCH  30  40
ENDBRANCH  29  31
ENDBRANCH  28  29
ENDBRANCH   1  28
TORSDOF 8
