REMARK  Name = ZINC19110735
REMARK  11 active torsions:
REMARK  status: ('A' for Active; 'I' for Inactive)
REMARK    1  A    between atoms: C_1  and  C_2
REMARK    2  A    between atoms: C_2  and  O_3
REMARK    3  A    between atoms: O_3  and  C_4
REMARK    4  A    between atoms: C_4  and  C_6
REMARK    5  A    between atoms: C_13  and  C_26
REMARK    6  A    between atoms: C_16  and  C_18
REMARK    7  A    between atoms: C_21  and  S_24
REMARK    8  A    between atoms: S_24  and  C_25
REMARK    9  A    between atoms: N_28  and  C_29
REMARK   10  A    between atoms: C_29  and  C_30
REMARK   11  A    between atoms: C_30  and  O_36
REMARK                            x       y       z     vdW  Elec       q    Type
REMARK                         _______ _______ _______ _____ _____    ______ ____
ROOT
ATOM      1  C   UNL     1       2.454  -1.359   8.877  0.00  0.00    +0.101 C 
ATOM      2  C   UNL     1       2.864   0.039   8.403  0.00  0.00    +0.033 C 
ATOM      3  C   UNL     1       1.638   0.955   8.414  0.00  0.00    +0.107 C 
ATOM      4  N   UNL     1       0.604   0.402   7.530  0.00  0.00    -0.315 N 
ATOM      5  C   UNL     1       0.161  -0.919   7.992  0.00  0.00    +0.107 C 
ATOM      6  C   UNL     1       1.343  -1.892   7.969  0.00  0.00    +0.033 C 
ATOM      7  C   UNL     1      -0.466   1.271   7.414  0.00  0.00    +0.134 A 
ATOM      8  C   UNL     1      -0.883   1.699   6.141  0.00  0.00    +0.077 A 
ATOM      9  C   UNL     1      -1.973   2.575   6.043  0.00  0.00    +0.018 A 
ATOM     10  C   UNL     1      -2.592   2.988   7.205  0.00  0.00    +0.029 A 
ATOM     11  C   UNL     1      -2.120   2.527   8.434  0.00  0.00    +0.073 A 
ATOM     12  N   UNL     1      -1.085   1.697   8.502  0.00  0.00    -0.231 NA
ENDROOT
BRANCH  11  13
ATOM     13  C   UNL     1      -2.783   2.969   9.682  0.00  0.00    +0.000 A 
ATOM     14  C   UNL     1      -3.868   3.845   9.625  0.00  0.00    +0.011 A 
ATOM     15  C   UNL     1      -4.487   4.249  10.786  0.00  0.00    +0.015 A 
ATOM     16  C   UNL     1      -4.025   3.795  12.018  0.00  0.00    +0.008 A 
ATOM     17  C   UNL     1      -2.939   2.926  12.078  0.00  0.00    +0.015 A 
ATOM     18  C   UNL     1      -2.321   2.514  10.918  0.00  0.00    +0.011 A 
BRANCH  16  19
ATOM     19  S   UNL     1      -4.814   4.320  13.503  0.00  0.00    -0.129 S 
ATOM     20  C   UNL     1      -6.141   5.417  12.930  0.00  0.00    +0.090 C 
ENDBRANCH  16  19
ENDBRANCH  11  13
BRANCH   8  21
ATOM     21  C   UNL     1      -0.189   1.230   4.930  0.00  0.00    +0.247 C 
ATOM     22  O   UNL     1       0.815   0.551   5.029  0.00  0.00    -0.270 OA
ATOM     23  N   UNL     1      -0.667   1.553   3.712  0.00  0.00    -0.309 N 
ATOM     24  H   UNL     1      -1.468   2.095   3.633  0.00  0.00    +0.149 HD
BRANCH  23  25
ATOM     25  C   UNL     1       0.023   1.086   2.507  0.00  0.00    +0.139 C 
BRANCH  25  26
ATOM     26  C   UNL     1      -0.719   1.588   1.267  0.00  0.00    +0.081 C 
ATOM     27  C   UNL     1       0.002   1.101   0.009  0.00  0.00    +0.036 C 
ATOM     28  C   UNL     1      -0.741   1.603  -1.231  0.00  0.00    +0.003 C 
ATOM     29  C   UNL     1      -0.773   3.132  -1.222  0.00  0.00    +0.000 C 
ATOM     30  C   UNL     1      -1.494   3.620   0.036  0.00  0.00    +0.003 C 
ATOM     31  C   UNL     1      -0.751   3.118   1.276  0.00  0.00    +0.036 C 
BRANCH  26  32
ATOM     32  O   UNL     1      -2.056   1.084   1.276  0.00  0.00    -0.387 OA
ATOM     33  H   UNL     1      -2.574   1.354   2.047  0.00  0.00    +0.210 HD
ENDBRANCH  26  32
ENDBRANCH  25  26
ENDBRANCH  23  25
ENDBRANCH   8  21
BRANCH   1  34
ATOM     34  C   UNL     1       3.644  -2.281   8.813  0.00  0.00    +0.310 C 
ATOM     35  O   UNL     1       4.711  -1.865   8.428  0.00  0.00    -0.251 OA
BRANCH  34  36
ATOM     36  O   UNL     1       3.519  -3.565   9.184  0.00  0.00    -0.465 OA
BRANCH  36  38
ATOM     37  C   UNL     1       4.372  -5.815   9.557  0.00  0.00    +0.048 C 
ATOM     38  C   UNL     1       4.707  -4.395   9.097  0.00  0.00    +0.229 C 
ENDBRANCH  36  38
ENDBRANCH  34  36
ENDBRANCH   1  34
TORSDOF 9
