REMARK  Name = ZINC27989065
REMARK  6 active torsions:
REMARK  status: ('A' for Active; 'I' for Inactive)
REMARK    1  A    between atoms: C_1  and  C_2
REMARK    2  A    between atoms: C_2  and  C_3
REMARK    3  A    between atoms: C_3  and  N_4
REMARK    4  A    between atoms: C_10  and  C_13
REMARK    5  A    between atoms: C_13  and  C_14
REMARK    6  A    between atoms: N_19  and  C_22
REMARK                            x       y       z     vdW  Elec       q    Type
REMARK                         _______ _______ _______ _____ _____    ______ ____
ROOT
ATOM      1  C   UNL     1       5.052   4.119  -4.503  0.00  0.00    +0.216 C 
ATOM      2  O   UNL     1       6.193   4.498  -4.345  0.00  0.00    -0.276 OA
ATOM      3  N   UNL     1       4.202   4.085  -3.457  0.00  0.00    -0.299 N 
ATOM      4  C   UNL     1       4.638   4.502  -2.116  0.00  0.00    +0.123 C 
ATOM      5  C   UNL     1       4.273   3.397  -1.119  0.00  0.00    +0.104 C 
ATOM      6  N   UNL     1       2.842   3.088  -1.239  0.00  0.00    -0.287 NA
ATOM      7  C   UNL     1       2.521   2.558  -2.571  0.00  0.00    +0.104 C 
ATOM      8  C   UNL     1       2.814   3.628  -3.627  0.00  0.00    +0.123 C 
ENDROOT
BRANCH   6   9
ATOM      9  C   UNL     1       2.415   2.157  -0.185  0.00  0.00    +0.137 C 
ATOM     10  C   UNL     1       0.985   2.438   0.062  0.00  0.00    -0.021 A 
ATOM     11  C   UNL     1       0.735   3.817   0.238  0.00  0.00    +0.007 A 
ATOM     12  C   UNL     1      -0.540   4.309   0.354  0.00  0.00    +0.020 A 
ATOM     13  C   UNL     1      -1.602   3.422   0.303  0.00  0.00    +0.041 A 
ATOM     14  C   UNL     1      -1.344   2.081   0.180  0.00  0.00    +0.024 A 
ATOM     15  C   UNL     1      -0.026   1.575   0.088  0.00  0.00    -0.041 A 
ATOM     16  C   UNL     1      -0.067   0.063   0.052  0.00  0.00    +0.040 C 
ATOM     17  C   UNL     1       0.817  -0.565  -0.981  0.00  0.00    +0.041 C 
ATOM     18  C   UNL     1       2.292  -0.283  -0.806  0.00  0.00    -0.024 A 
ATOM     19  C   UNL     1       2.963   0.835  -0.552  0.00  0.00    +0.066 A 
ATOM     20  N   UNL     1       4.312   0.834  -0.567  0.00  0.00    -0.258 NA
ATOM     21  C   UNL     1       5.034  -0.243  -0.732  0.00  0.00    +0.111 A 
ATOM     22  C   UNL     1       4.406  -1.461  -0.919  0.00  0.00    +0.020 A 
ATOM     23  C   UNL     1       3.031  -1.482  -0.966  0.00  0.00    +0.007 A 
ATOM     24 CL   UNL     1      -3.237   3.999   0.393  0.00  0.00    -0.084 Cl
ENDBRANCH   6   9
BRANCH   1  25
ATOM     25  C   UNL     1       4.584   3.686  -5.868  0.00  0.00    +0.099 C 
BRANCH  25  32
ATOM     26  N   UNL     1       6.588   4.845 -11.562  0.00  0.00    -0.299 N 
ATOM     27  C   UNL     1       7.019   5.426 -10.425  0.00  0.00    +0.302 C 
ATOM     28  O   UNL     1       7.492   6.546 -10.455  0.00  0.00    -0.253 OA
ATOM     29  N   UNL     1       6.926   4.766  -9.253  0.00  0.00    -0.286 N 
ATOM     30  C   UNL     1       6.463   3.372  -9.214  0.00  0.00    +0.109 C 
ATOM     31  C   UNL     1       5.298   3.266  -8.226  0.00  0.00    +0.023 C 
ATOM     32  C   UNL     1       5.734   3.822  -6.868  0.00  0.00    +0.001 C 
ATOM     33  C   UNL     1       6.110   5.298  -7.016  0.00  0.00    +0.023 C 
ATOM     34  C   UNL     1       7.285   5.426  -7.991  0.00  0.00    +0.109 C 
ATOM     35  H   UNL     1       6.084   3.868 -11.523  0.00  0.00    +0.150 HD
BRANCH  26  36
ATOM     36  C   UNL     1       6.791   5.515 -12.849  0.00  0.00    +0.105 C 
BRANCH  36  38
ATOM     37  C   UNL     1       6.425   5.348 -15.315  0.00  0.00    +0.005 C 
ATOM     38  C   UNL     1       6.213   4.649 -13.970  0.00  0.00    +0.015 C 
ENDBRANCH  36  38
ENDBRANCH  26  36
ENDBRANCH  25  32
ENDBRANCH   1  25
TORSDOF 5
