REMARK  Name = ZINC34791229
REMARK  13 active torsions:
REMARK  status: ('A' for Active; 'I' for Inactive)
REMARK    1  A    between atoms: C_1  and  C_2
REMARK    2  A    between atoms: C_2  and  N_3
REMARK    3  A    between atoms: C_6  and  C_11
REMARK    4  A    between atoms: C_15  and  O_17
REMARK    5  A    between atoms: O_17  and  C_18
REMARK    6  A    between atoms: N_26  and  C_28
REMARK    7  A    between atoms: C_28  and  C_30
REMARK    8  A    between atoms: C_28  and  C_34
REMARK    9  A    between atoms: C_30  and  C_31
REMARK   10  A    between atoms: C_31  and  C_32
REMARK   11  A    between atoms: C_31  and  C_33
REMARK   12  A    between atoms: N_36  and  C_37
REMARK   13  A    between atoms: C_37  and  C_38
REMARK                            x       y       z     vdW  Elec       q    Type
REMARK                         _______ _______ _______ _____ _____    ______ ____
ROOT
ATOM      1  N   UNL     1       1.174  -0.613  -1.823  0.00  0.00    -0.257 N 
ATOM      2  C   UNL     1      -0.021  -0.874  -2.431  0.00  0.00    +0.042 C 
ATOM      3  C   UNL     1      -0.135  -0.883  -3.774  0.00  0.00    +0.058 C 
ATOM      4  C   UNL     1       1.109  -0.594  -4.589  0.00  0.00    +0.142 C 
ATOM      5  N   UNL     1       2.349  -0.324  -3.840  0.00  0.00    -0.288 N 
ATOM      6  C   UNL     1       2.303  -0.346  -2.493  0.00  0.00    +0.307 C 
ATOM      7  O   UNL     1       3.320  -0.121  -1.866  0.00  0.00    -0.252 OA
ATOM      8  C   UNL     1      -1.461  -1.177  -4.152  0.00  0.00    +0.247 C 
ATOM      9  O   UNL     1      -1.849  -1.250  -5.304  0.00  0.00    -0.270 OA
ATOM     10  N   UNL     1      -2.243  -1.366  -3.073  0.00  0.00    -0.281 N 
ATOM     11  C   UNL     1      -1.395  -1.190  -1.885  0.00  0.00    +0.160 C 
ATOM     12  H   UNL     1       3.178  -0.132  -4.305  0.00  0.00    +0.151 HD
ENDROOT
BRANCH   4  13
ATOM     13  C   UNL     1       1.360  -1.774  -5.491  0.00  0.00    -0.019 A 
ATOM     14  C   UNL     1       1.965  -2.912  -4.988  0.00  0.00    +0.006 A 
ATOM     15  C   UNL     1       2.196  -3.997  -5.813  0.00  0.00    +0.004 A 
ATOM     16  C   UNL     1       1.822  -3.948  -7.142  0.00  0.00    +0.046 A 
ATOM     17  C   UNL     1       1.215  -2.808  -7.649  0.00  0.00    +0.129 A 
ATOM     18  C   UNL     1       0.979  -1.722  -6.817  0.00  0.00    +0.052 A 
BRANCH  17  19
ATOM     19  O   UNL     1       0.846  -2.757  -8.956  0.00  0.00    -0.456 OA
BRANCH  19  20
ATOM     20  C   UNL     1       1.618  -2.034  -9.809  0.00  0.00    +0.128 A 
ATOM     21  C   UNL     1       2.808  -1.475  -9.365  0.00  0.00    +0.046 A 
ATOM     22  C   UNL     1       3.591  -0.741 -10.234  0.00  0.00    +0.004 A 
ATOM     23  C   UNL     1       3.190  -0.562 -11.545  0.00  0.00    +0.000 A 
ATOM     24  C   UNL     1       2.005  -1.118 -11.990  0.00  0.00    +0.004 A 
ATOM     25  C   UNL     1       1.221  -1.859 -11.127  0.00  0.00    +0.046 A 
ENDBRANCH  19  20
ENDBRANCH  17  19
ENDBRANCH   4  13
BRANCH   1  27
ATOM     26  C   UNL     1       0.917   0.784   0.168  0.00  0.00    +0.025 C 
ATOM     27  C   UNL     1       1.223  -0.620  -0.359  0.00  0.00    +0.111 C 
ENDBRANCH   1  27
BRANCH  10  28
ATOM     28  C   UNL     1      -3.672  -1.688  -3.082  0.00  0.00    +0.163 C 
BRANCH  28  29
ATOM     29  C   UNL     1      -3.874  -3.064  -3.660  0.00  0.00    +0.234 C 
ATOM     30  O   UNL     1      -2.919  -3.713  -4.029  0.00  0.00    -0.274 OA
ATOM     31  N   UNL     1      -5.117  -3.574  -3.768  0.00  0.00    -0.314 N 
ATOM     32  H   UNL     1      -5.882  -3.055  -3.473  0.00  0.00    +0.149 HD
BRANCH  31  33
ATOM     33  C   UNL     1      -5.314  -4.913  -4.330  0.00  0.00    +0.107 C 
BRANCH  33  34
ATOM     34  C   UNL     1      -6.807  -5.248  -4.339  0.00  0.00    +0.006 C 
ATOM     35  C   UNL     1      -7.272  -6.423  -3.475  0.00  0.00    +0.005 C 
ATOM     36  C   UNL     1      -7.232  -6.562  -4.998  0.00  0.00    +0.005 C 
ENDBRANCH  33  34
ENDBRANCH  31  33
ENDBRANCH  28  29
BRANCH  28  37
ATOM     37  C   UNL     1      -4.421  -0.661  -3.935  0.00  0.00    +0.035 C 
BRANCH  37  38
ATOM     38  C   UNL     1      -4.362   0.708  -3.254  0.00  0.00    -0.015 C 
ATOM     39  C   UNL     1      -2.921   1.223  -3.269  0.00  0.00    +0.007 C 
ATOM     40  C   UNL     1      -5.263   1.690  -4.005  0.00  0.00    +0.007 C 
ENDBRANCH  37  38
ENDBRANCH  28  37
ENDBRANCH  10  28
TORSDOF 10
