REMARK  Name = ZINC01932583
REMARK  13 active torsions:
REMARK  status: ('A' for Active; 'I' for Inactive)
REMARK    1  A    between atoms: C_1  and  C_2
REMARK    2  A    between atoms: C_2  and  O_3
REMARK    3  A    between atoms: O_3  and  C_4
REMARK    4  A    between atoms: C_4  and  C_6
REMARK    5  A    between atoms: C_10  and  N_11
REMARK    6  A    between atoms: C_12  and  C_14
REMARK    7  A    between atoms: C_15  and  C_16
REMARK    8  A    between atoms: C_21  and  O_22
REMARK    9  A    between atoms: O_22  and  C_23
REMARK   10  A    between atoms: C_25  and  C_29
REMARK   11  A    between atoms: C_29  and  C_30
REMARK   12  A    between atoms: C_29  and  C_31
REMARK   13  A    between atoms: C_29  and  C_32
REMARK                            x       y       z     vdW  Elec       q    Type
REMARK                         _______ _______ _______ _____ _____    ______ ____
ROOT
ATOM      1  C   UNL     1      -5.119  -4.504   0.002  0.00  0.00    +0.091 A 
ATOM      2  C   UNL     1      -6.488  -4.991   0.006  0.00  0.00    -0.021 A 
ATOM      3  C   UNL     1      -7.439  -4.033   0.017  0.00  0.00    -0.004 A 
ATOM      4  S   UNL     1      -6.544  -2.505   0.027  0.00  0.00    -0.077 S 
ATOM      5  C   UNL     1      -4.927  -3.128   0.009  0.00  0.00    +0.087 A 
ATOM      6  C   UNL     1      -8.924  -4.233   0.025  0.00  0.00    +0.046 C 
ATOM      7  C   UNL     1      -9.212  -5.694   0.397  0.00  0.00    -0.000 C 
ATOM      8  C   UNL     1      -8.318  -6.605  -0.450  0.00  0.00    +0.009 C 
ATOM      9  C   UNL     1      -6.862  -6.468  -0.000  0.00  0.00    +0.037 C 
ENDROOT
BRANCH   5  10
ATOM     10  N   UNL     1      -3.735  -2.426   0.007  0.00  0.00    -0.276 N 
ATOM     11  C   UNL     1      -3.746  -1.078   0.014  0.00  0.00    +0.241 C 
ATOM     12  O   UNL     1      -4.806  -0.479   0.022  0.00  0.00    -0.270 OA
ATOM     13  H   UNL     1      -2.777  -2.967  -0.001  0.00  0.00    +0.156 HD
BRANCH  11  14
ATOM     14  C   UNL     1      -2.487  -0.336   0.012  0.00  0.00    +0.068 C 
ATOM     15  C   UNL     1      -2.499   1.014   0.019  0.00  0.00    +0.016 C 
BRANCH  15  16
ATOM     16  C   UNL     1      -1.233   1.760   0.017  0.00  0.00    +0.017 A 
ATOM     17  C   UNL     1      -0.013   1.076   0.008  0.00  0.00    +0.011 A 
ATOM     18  C   UNL     1       1.170   1.782   0.001  0.00  0.00    +0.001 A 
ATOM     19  C   UNL     1       1.158   3.168   0.007  0.00  0.00    +0.004 A 
ATOM     20  C   UNL     1      -0.040   3.857   0.022  0.00  0.00    +0.046 A 
ATOM     21  C   UNL     1      -1.240   3.164   0.031  0.00  0.00    +0.127 A 
BRANCH  21  22
ATOM     22  O   UNL     1      -2.417   3.840   0.046  0.00  0.00    -0.495 OA
ATOM     23  C   UNL     1      -2.345   5.267   0.053  0.00  0.00    +0.277 C 
ENDBRANCH  21  22
ENDBRANCH  15  16
ENDBRANCH  11  14
ENDBRANCH   5  10
BRANCH   7  24
ATOM     24  C   UNL     1     -10.682  -6.014   0.117  0.00  0.00    -0.035 C 
ATOM     25  C   UNL     1     -10.976  -5.801  -1.369  0.00  0.00    +0.011 C 
ATOM     26  C   UNL     1     -10.967  -7.471   0.489  0.00  0.00    +0.011 C 
ATOM     27  C   UNL     1     -11.573  -5.092   0.951  0.00  0.00    +0.011 C 
ENDBRANCH   7  24
BRANCH   1  28
ATOM     28  C   UNL     1      -3.984  -5.429  -0.008  0.00  0.00    +0.342 C 
ATOM     29  O   UNL     1      -3.507  -5.819   1.041  0.00  0.00    -0.245 OA
BRANCH  28  30
ATOM     30  O   UNL     1      -3.467  -5.849  -1.181  0.00  0.00    -0.461 OA
BRANCH  30  32
ATOM     31  C   UNL     1      -1.896  -7.128  -2.533  0.00  0.00    +0.048 C 
ATOM     32  C   UNL     1      -2.342  -6.766  -1.115  0.00  0.00    +0.229 C 
ENDBRANCH  30  32
ENDBRANCH  28  30
ENDBRANCH   1  28
TORSDOF 8
