REMARK  Name = ZINC09433238
REMARK  8 active torsions:
REMARK  status: ('A' for Active; 'I' for Inactive)
REMARK    1  A    between atoms: C_1  and  C_2
REMARK    2  A    between atoms: C_7  and  N_8
REMARK    3  A    between atoms: C_9  and  C_11
REMARK    4  A    between atoms: N_21  and  C_29
REMARK    5  A    between atoms: C_22  and  C_24
REMARK    6  A    between atoms: C_29  and  C_30
REMARK    7  A    between atoms: C_30  and  C_31
REMARK    8  A    between atoms: C_30  and  C_32
REMARK                            x       y       z     vdW  Elec       q    Type
REMARK                         _______ _______ _______ _____ _____    ______ ____
ROOT
ATOM      1  C   UNL     1       1.208   7.069   0.615  0.00  0.00    +0.131 C 
ATOM      2  C   UNL     1       0.682   7.577   1.931  0.00  0.00    -0.021 A 
ATOM      3  C   UNL     1      -0.667   7.513   2.220  0.00  0.00    +0.005 A 
ATOM      4  C   UNL     1      -1.133   7.965   3.442  0.00  0.00    +0.000 A 
ATOM      5  C   UNL     1      -0.255   8.477   4.381  0.00  0.00    +0.001 A 
ATOM      6  C   UNL     1       1.095   8.550   4.101  0.00  0.00    +0.013 A 
ATOM      7  C   UNL     1       1.566   8.116   2.865  0.00  0.00    +0.041 A 
ATOM      8  C   UNL     1       3.004   8.188   2.528  0.00  0.00    +0.247 C 
ATOM      9  O   UNL     1       3.827   8.409   3.394  0.00  0.00    -0.270 OA
ATOM     10  N   UNL     1       3.392   8.008   1.251  0.00  0.00    -0.289 N 
ATOM     11  C   UNL     1       2.409   7.901   0.174  0.00  0.00    +0.129 C 
ENDROOT
BRANCH  11  12
ATOM     12  C   UNL     1       3.053   7.248  -1.021  0.00  0.00    +0.011 A 
ATOM     13  C   UNL     1       3.157   7.708  -2.292  0.00  0.00    +0.013 A 
ATOM     14  C   UNL     1       3.802   6.930  -3.236  0.00  0.00    +0.008 A 
ATOM     15  C   UNL     1       4.302   5.726  -2.865  0.00  0.00    +0.045 A 
ATOM     16  S   UNL     1       3.870   5.665  -1.133  0.00  0.00    -0.100 S 
ENDBRANCH  11  12
BRANCH   1  18
ATOM     17  N   UNL     1       0.900   4.651   0.189  0.00  0.00    -0.285 N 
ATOM     18  C   UNL     1       1.626   5.629   0.766  0.00  0.00    +0.227 C 
ATOM     19  O   UNL     1       2.617   5.350   1.408  0.00  0.00    -0.275 OA
ATOM     20  H   UNL     1       0.139   4.877  -0.369  0.00  0.00    +0.155 HD
BRANCH  17  27
ATOM     21  C   UNL     1      -1.163   2.698   0.034  0.00  0.00    +0.045 C 
ATOM     22  C   UNL     1       0.267   2.325   0.328  0.00  0.00    -0.029 A 
ATOM     23  C   UNL     1       0.610   1.001   0.525  0.00  0.00    +0.005 A 
ATOM     24  C   UNL     1       1.921   0.659   0.800  0.00  0.00    +0.000 A 
ATOM     25  C   UNL     1       2.895   1.638   0.868  0.00  0.00    +0.002 A 
ATOM     26  C   UNL     1       2.559   2.963   0.666  0.00  0.00    +0.023 A 
ATOM     27  C   UNL     1       1.242   3.311   0.395  0.00  0.00    +0.036 A 
ENDBRANCH  17  27
ENDBRANCH   1  18
BRANCH  10  28
ATOM     28  C   UNL     1       4.820   7.919   0.936  0.00  0.00    +0.111 C 
BRANCH  28  29
ATOM     29  C   UNL     1       5.406   9.328   0.823  0.00  0.00    +0.000 C 
ATOM     30  C   UNL     1       6.920   9.235   0.618  0.00  0.00    +0.009 C 
ATOM     31  C   UNL     1       4.774  10.050  -0.368  0.00  0.00    +0.009 C 
ENDBRANCH  28  29
ENDBRANCH  10  28
TORSDOF 5
