REMARK  Name = ZINC08894126
REMARK  5 active torsions:
REMARK  status: ('A' for Active; 'I' for Inactive)
REMARK    1  A    between atoms: C_3  and  C_10
REMARK    2  A    between atoms: C_5  and  N_7
REMARK    3  A    between atoms: N_15  and  C_16
REMARK    4  A    between atoms: C_16  and  N_18
REMARK    5  A    between atoms: C_19  and  C_21
REMARK                            x       y       z     vdW  Elec       q    Type
REMARK                         _______ _______ _______ _____ _____    ______ ____
ROOT
ATOM      1  C   UNL     1       2.520   3.921  -0.001  0.00  0.00    +0.163 C 
ATOM      2  S   UNL     1       3.883   2.886  -0.019  0.00  0.00    -0.016 S 
ENDROOT
BRANCH   1   8
ATOM      3  C   UNL     1       0.002  -0.004   0.002  0.00  0.00    +0.055 A 
ATOM      4  C   UNL     1       1.202  -0.658  -0.013  0.00  0.00    +0.074 A 
ATOM      5  S   UNL     1       2.334   0.726  -0.016  0.00  0.00    -0.060 S 
ATOM      6  C   UNL     1       1.103   2.021   0.002  0.00  0.00    +0.162 A 
ATOM      7  N   UNL     1      -0.016   1.321   0.009  0.00  0.00    -0.335 N 
ATOM      8  N   UNL     1       1.277   3.399   0.008  0.00  0.00    -0.169 NA
ATOM      9  H   UNL     1      -0.976   1.858   0.021  0.00  0.00    +0.168 HD
BRANCH   3  12
ATOM     10  C   UNL     1      -2.431  -2.868   0.116  0.00  0.00    +0.003 A 
ATOM     11  C   UNL     1      -1.246  -2.160   0.108  0.00  0.00    +0.010 A 
ATOM     12  C   UNL     1      -1.268  -0.770   0.011  0.00  0.00    +0.001 A 
ATOM     13  C   UNL     1      -2.489  -0.102  -0.074  0.00  0.00    +0.042 A 
ATOM     14  C   UNL     1      -3.667  -0.820  -0.070  0.00  0.00    +0.127 A 
ATOM     15  C   UNL     1      -3.639  -2.200   0.027  0.00  0.00    +0.033 A 
BRANCH  14  16
ATOM     16  N   UNL     1      -4.963  -0.112  -0.165  0.00  0.00    +0.056 N 
ATOM     17  O   UNL     1      -6.004  -0.744  -0.158  0.00  0.00    -0.126 OA
ATOM     18  O   UNL     1      -4.989   1.103  -0.251  0.00  0.00    -0.126 OA
ENDBRANCH  14  16
ENDBRANCH   3  12
ENDBRANCH   1   8
BRANCH   1  19
ATOM     19  N   UNL     1       2.689   5.258   0.005  0.00  0.00    -0.262 N 
ATOM     20  C   UNL     1       3.931   5.780  -0.004  0.00  0.00    +0.258 C 
ATOM     21  O   UNL     1       4.900   5.045  -0.018  0.00  0.00    -0.269 OA
ATOM     22  H   UNL     1       1.812   5.923   0.016  0.00  0.00    +0.157 HD
BRANCH  20  23
ATOM     23  C   UNL     1       4.115   7.236   0.002  0.00  0.00    +0.094 A 
ATOM     24  C   UNL     1       5.278   7.944  -0.000  0.00  0.00    +0.068 A 
ATOM     25  C   UNL     1       5.242   9.351   0.002  0.00  0.00    +0.008 A 
ATOM     26  C   UNL     1       6.334  10.257  -0.005  0.00  0.00    +0.012 A 
ATOM     27  C   UNL     1       6.124  11.598   0.004  0.00  0.00    +0.021 A 
ATOM     28  C   UNL     1       4.840  12.135   0.020  0.00  0.00    +0.042 A 
ATOM     29  C   UNL     1       3.749  11.288   0.027  0.00  0.00    +0.035 A 
ATOM     30  C   UNL     1       3.948   9.924   0.018  0.00  0.00    +0.023 A 
ATOM     31  S   UNL     1       2.870   8.514   0.021  0.00  0.00    -0.082 S 
ATOM     32 CL   UNL     1       4.612  13.856   0.030  0.00  0.00    -0.084 Cl
ATOM     33 CL   UNL     1       6.802   7.113  -0.010  0.00  0.00    -0.082 Cl
ENDBRANCH  20  23
ENDBRANCH   1  19
TORSDOF 5
