REMARK  Name = ZINC06926677
REMARK  6 active torsions:
REMARK  status: ('A' for Active; 'I' for Inactive)
REMARK    1  A    between atoms: C_3  and  C_6
REMARK    2  A    between atoms: C_9  and  S_11
REMARK    3  A    between atoms: S_11  and  C_12
REMARK    4  A    between atoms: C_12  and  C_13
REMARK    5  A    between atoms: N_15  and  C_16
REMARK    6  A    between atoms: C_17  and  C_24
REMARK                            x       y       z     vdW  Elec       q    Type
REMARK                         _______ _______ _______ _____ _____    ______ ____
ROOT
ATOM      1  C   UNL     1       8.641   0.602  -0.073  0.00  0.00    +0.228 C 
ATOM      2  O   UNL     1       9.102   1.724  -0.072  0.00  0.00    -0.275 OA
ATOM      3  N   UNL     1       9.464  -0.465  -0.086  0.00  0.00    -0.279 N 
ATOM      4  H   UNL     1       9.095  -1.362  -0.088  0.00  0.00    +0.155 HD
ENDROOT
BRANCH   3   5
ATOM      5  C   UNL     1      10.838  -0.281  -0.098  0.00  0.00    +0.084 A 
ATOM      6  C   UNL     1      11.835  -1.242  -0.106  0.00  0.00    +0.068 A 
ATOM      7  C   UNL     1      13.222  -0.779  -0.121  0.00  0.00    -0.023 A 
ATOM      8  C   UNL     1      13.378   0.557  -0.116  0.00  0.00    -0.004 A 
ATOM      9  S   UNL     1      11.724   1.205  -0.097  0.00  0.00    -0.077 S 
ATOM     10  C   UNL     1      14.829   0.956  -0.130  0.00  0.00    +0.043 C 
ATOM     11  C   UNL     1      15.578  -0.317  -0.581  0.00  0.00    +0.010 C 
ATOM     12  C   UNL     1      14.606  -1.428  -0.135  0.00  0.00    +0.037 C 
BRANCH   6  13
ATOM     13  C   UNL     1      11.511  -2.672  -0.103  0.00  0.00    +0.244 C 
ATOM     14  O   UNL     1      11.369  -3.266  -1.156  0.00  0.00    -0.270 OA
ATOM     15  N   UNL     1      11.372  -3.329   1.065  0.00  0.00    -0.325 N 
ATOM     16  H   UNL     1      11.485  -2.856   1.904  0.00  0.00    +0.145 HD
ATOM     17  H   UNL     1      11.158  -4.275   1.067  0.00  0.00    +0.145 HD
ENDBRANCH   6  13
ENDBRANCH   3   5
BRANCH   1  18
ATOM     18  C   UNL     1       7.147   0.402  -0.061  0.00  0.00    +0.175 C 
BRANCH  18  19
ATOM     19  S   UNL     1       6.323   2.013  -0.045  0.00  0.00    -0.056 S 
BRANCH  19  23
ATOM     20  C   UNL     1       2.479   1.484  -0.013  0.00  0.00    +0.284 A 
ATOM     21  N   UNL     1       2.922   0.248  -0.018  0.00  0.00    -0.103 NA
ATOM     22  N   UNL     1       4.208   0.255  -0.035  0.00  0.00    -0.101 NA
ATOM     23  C   UNL     1       4.639   1.495  -0.033  0.00  0.00    +0.278 A 
ATOM     24  O   UNL     1       3.558   2.299  -0.019  0.00  0.00    -0.408 OA
BRANCH  20  27
ATOM     25  C   UNL     1      -1.153   1.901   0.017  0.00  0.00    +0.042 A 
ATOM     26  C   UNL     1      -0.013   1.076   0.008  0.00  0.00    +0.055 A 
ATOM     27  C   UNL     1       1.070   1.904   0.002  0.00  0.00    +0.191 A 
ATOM     28  O   UNL     1       0.624   3.176   0.012  0.00  0.00    -0.458 OA
ATOM     29  C   UNL     1      -0.720   3.177   0.025  0.00  0.00    +0.196 A 
ENDBRANCH  20  27
ENDBRANCH  19  23
ENDBRANCH  18  19
ENDBRANCH   1  18
TORSDOF 6
