REMARK  Name = ZINC20519127
REMARK  5 active torsions:
REMARK  status: ('A' for Active; 'I' for Inactive)
REMARK    1  A    between atoms: C_1  and  C_2
REMARK    2  A    between atoms: C_5  and  C_8
REMARK    3  A    between atoms: C_8  and  C_10
REMARK    4  A    between atoms: C_12  and  C_30
REMARK    5  A    between atoms: C_33  and  N_36
REMARK                            x       y       z     vdW  Elec       q    Type
REMARK                         _______ _______ _______ _____ _____    ______ ____
ROOT
ATOM      1  C   UNL     1      -1.995   2.575  -1.024  0.00  0.00    +0.103 C 
ATOM      2  C   UNL     1      -2.833   3.002   0.200  0.00  0.00    +0.050 C 
ATOM      3  C   UNL     1      -2.096   2.422   1.421  0.00  0.00    +0.077 C 
ATOM      4  C   UNL     1      -2.180   3.427   2.588  0.00  0.00    +0.090 C 
ATOM      5  S   UNL     1      -0.418   3.937   2.776  0.00  0.00    -0.144 S 
ATOM      6  C   UNL     1       0.180   3.316   1.143  0.00  0.00    +0.155 C 
ATOM      7  N   UNL     1      -0.720   2.136   0.978  0.00  0.00    -0.271 NA
ATOM      8  C   UNL     1      -0.812   1.791  -0.448  0.00  0.00    +0.137 C 
ATOM      9  C   UNL     1       0.464   2.119  -1.174  0.00  0.00    +0.004 A 
ATOM     10  C   UNL     1       1.171   3.285  -1.363  0.00  0.00    +0.008 A 
ATOM     11  C   UNL     1       2.346   3.272  -2.094  0.00  0.00    +0.000 A 
ATOM     12  C   UNL     1       2.809   2.084  -2.631  0.00  0.00    +0.002 A 
ATOM     13  C   UNL     1       2.104   0.913  -2.443  0.00  0.00    +0.023 A 
ATOM     14  C   UNL     1       0.920   0.918  -1.709  0.00  0.00    +0.039 A 
ATOM     15  N   UNL     1       0.042  -0.118  -1.385  0.00  0.00    -0.283 N 
ATOM     16  C   UNL     1      -1.001   0.310  -0.649  0.00  0.00    +0.243 C 
ATOM     17  O   UNL     1      -1.913  -0.367  -0.225  0.00  0.00    -0.273 OA
ATOM     18  H   UNL     1       0.249  -1.142  -1.730  0.00  0.00    +0.155 HD
ENDROOT
BRANCH   2  19
ATOM     19  C   UNL     1      -4.223   2.426   0.107  0.00  0.00    -0.042 A 
ATOM     20  C   UNL     1      -5.230   3.148  -0.505  0.00  0.00    +0.006 A 
ATOM     21  C   UNL     1      -6.504   2.618  -0.594  0.00  0.00    +0.033 A 
ATOM     22  C   UNL     1      -6.772   1.370  -0.063  0.00  0.00    +0.126 A 
ATOM     23  C   UNL     1      -5.766   0.651   0.553  0.00  0.00    +0.033 A 
ATOM     24  C   UNL     1      -4.491   1.178   0.638  0.00  0.00    +0.006 A 
BRANCH  22  25
ATOM     25  N   UNL     1      -8.137   0.805  -0.154  0.00  0.00    +0.056 N 
ATOM     26  O   UNL     1      -8.373  -0.294   0.314  0.00  0.00    -0.126 OA
ATOM     27  O   UNL     1      -9.024   1.439  -0.698  0.00  0.00    -0.126 OA
ENDBRANCH  22  25
ENDBRANCH   2  19
BRANCH   1  28
ATOM     28  C   UNL     1      -2.810   1.696  -1.937  0.00  0.00    +0.169 C 
ATOM     29  O   UNL     1      -3.473   0.792  -1.475  0.00  0.00    -0.292 OA
BRANCH  28  34
ATOM     30  C   UNL     1      -2.777   2.629  -7.609  0.00  0.00    +0.044 C 
ATOM     31  C   UNL     1      -2.785   2.385  -6.122  0.00  0.00    -0.050 A 
ATOM     32  C   UNL     1      -3.543   1.351  -5.599  0.00  0.00    +0.004 A 
ATOM     33  C   UNL     1      -3.556   1.121  -4.240  0.00  0.00    +0.011 A 
ATOM     34  C   UNL     1      -2.801   1.935  -3.389  0.00  0.00    +0.018 A 
ATOM     35  C   UNL     1      -2.042   2.980  -3.925  0.00  0.00    +0.011 A 
ATOM     36  C   UNL     1      -2.036   3.195  -5.287  0.00  0.00    +0.004 A 
ENDBRANCH  28  34
ENDBRANCH   1  28
TORSDOF 4
