REMARK  Name = ZINC02130625
REMARK  6 active torsions:
REMARK  status: ('A' for Active; 'I' for Inactive)
REMARK    1  A    between atoms: C_1  and  C_2
REMARK    2  A    between atoms: C_16  and  C_18
REMARK    3  A    between atoms: C_18  and  C_19
REMARK    4  A    between atoms: C_19  and  C_20
REMARK    5  A    between atoms: N_25  and  C_28
REMARK    6  A    between atoms: C_28  and  C_29
REMARK                            x       y       z     vdW  Elec       q    Type
REMARK                         _______ _______ _______ _____ _____    ______ ____
ROOT
ATOM      1  C   UNL     1       3.349  -3.724   5.897  0.00  0.00    +0.047 C 
ATOM      2  C   UNL     1       3.092  -2.357   5.317  0.00  0.00    -0.011 A 
ATOM      3  C   UNL     1       4.132  -1.458   5.187  0.00  0.00    +0.046 A 
ATOM      4  C   UNL     1       3.906  -0.201   4.655  0.00  0.00    +0.020 A 
ATOM      5  C   UNL     1       2.631   0.157   4.253  0.00  0.00    +0.006 A 
ATOM      6  C   UNL     1       1.591  -0.736   4.382  0.00  0.00    -0.027 A 
ATOM      7  C   UNL     1       1.807  -2.005   4.915  0.00  0.00    +0.040 A 
ATOM      8  N   UNL     1       0.611  -2.726   4.943  0.00  0.00    -0.286 N 
ATOM      9  C   UNL     1      -0.423  -2.014   4.454  0.00  0.00    +0.211 C 
ATOM     10  O   UNL     1      -1.574  -2.385   4.355  0.00  0.00    -0.277 OA
ATOM     11  C   UNL     1       0.126  -0.672   4.056  0.00  0.00    +0.050 C 
ATOM     12  C   UNL     1      -0.569   0.465   4.814  0.00  0.00    +0.088 C 
ATOM     13  C   UNL     1      -0.643   1.630   3.788  0.00  0.00    +0.073 C 
ATOM     14  C   UNL     1       0.011   1.072   2.506  0.00  0.00    -0.057 C 
ATOM     15  C   UNL     1      -2.127   1.800   3.558  0.00  0.00    +0.224 C 
ATOM     16  O   UNL     1      -2.633   2.610   2.811  0.00  0.00    -0.275 OA
ATOM     17  N   UNL     1      -2.797   0.917   4.308  0.00  0.00    -0.237 N 
ATOM     18  C   UNL     1      -2.022   0.121   5.053  0.00  0.00    +0.225 C 
ATOM     19  O   UNL     1      -2.423  -0.743   5.804  0.00  0.00    -0.275 OA
ATOM     20 CL   UNL     1       5.731  -1.908   5.691  0.00  0.00    -0.083 Cl
ATOM     21  H   UNL     1       0.535  -3.634   5.276  0.00  0.00    +0.155 HD
ATOM     22  N   UNL     1      -0.112  -0.379   2.648  0.00  0.00    +0.394 N 
ATOM     23  H   UNL     1      -1.053  -0.684   2.375  0.00  0.00    -0.083 HD
ATOM     24  H   UNL     1       0.585  -0.854   2.062  0.00  0.00    -0.083 HD
ENDROOT
BRANCH  14  25
ATOM     25  C   UNL     1      -0.729   1.579   1.267  0.00  0.00    -0.006 C 
BRANCH  25  26
ATOM     26  C   UNL     1      -0.013   1.086   0.008  0.00  0.00    +0.094 C 
BRANCH  26  27
ATOM     27  C   UNL     1      -0.742   1.585  -1.213  0.00  0.00    +0.210 C 
ATOM     28  O   UNL     1      -1.736   2.268  -1.088  0.00  0.00    -0.276 OA
ATOM     29  N   UNL     1      -0.288   1.272  -2.443  0.00  0.00    -0.329 N 
ATOM     30  H   UNL     1       0.507   0.726  -2.543  0.00  0.00    +0.145 HD
ATOM     31  H   UNL     1      -0.758   1.594  -3.229  0.00  0.00    +0.145 HD
ENDBRANCH  26  27
ENDBRANCH  25  26
ENDBRANCH  14  25
BRANCH  17  32
ATOM     32  C   UNL     1      -4.260   0.830   4.312  0.00  0.00    +0.151 C 
BRANCH  32  33
ATOM     33  C   UNL     1      -4.814   1.742   5.376  0.00  0.00    -0.030 A 
ATOM     34  C   UNL     1      -5.018   1.265   6.658  0.00  0.00    +0.005 A 
ATOM     35  C   UNL     1      -5.521   2.103   7.635  0.00  0.00    +0.000 A 
ATOM     36  C   UNL     1      -5.832   3.415   7.328  0.00  0.00    +0.000 A 
ATOM     37  C   UNL     1      -5.633   3.890   6.045  0.00  0.00    +0.000 A 
ATOM     38  C   UNL     1      -5.124   3.053   5.069  0.00  0.00    +0.005 A 
ENDBRANCH  32  33
ENDBRANCH  17  32
TORSDOF 5
