REMARK  Name = ZINC25003722
REMARK  9 active torsions:
REMARK  status: ('A' for Active; 'I' for Inactive)
REMARK    1  A    between atoms: C_1  and  O_2
REMARK    2  A    between atoms: O_2  and  C_3
REMARK    3  A    between atoms: C_8  and  N_9
REMARK    4  A    between atoms: N_9  and  C_10
REMARK    5  A    between atoms: N_9  and  S_20
REMARK    6  A    between atoms: C_10  and  C_11
REMARK    7  A    between atoms: C_14  and  C_17
REMARK    8  A    between atoms: S_20  and  C_23
REMARK    9  A    between atoms: C_25  and  N_30
REMARK                            x       y       z     vdW  Elec       q    Type
REMARK                         _______ _______ _______ _____ _____    ______ ____
ROOT
ATOM      1  N   UNL     1      -5.904   1.206   1.523  0.00  0.00    -0.195 N 
ENDROOT
BRANCH   1   7
ATOM      2  C   UNL     1      -8.211   1.935   1.520  0.00  0.00    +0.143 A 
ATOM      3  C   UNL     1      -9.153   2.932   1.716  0.00  0.00    +0.047 A 
ATOM      4  C   UNL     1      -8.752   4.195   2.109  0.00  0.00    +0.004 A 
ATOM      5  C   UNL     1      -7.411   4.468   2.309  0.00  0.00    +0.002 A 
ATOM      6  C   UNL     1      -6.466   3.477   2.120  0.00  0.00    +0.028 A 
ATOM      7  C   UNL     1      -6.860   2.209   1.720  0.00  0.00    +0.093 A 
BRANCH   2   9
ATOM      8  C   UNL     1     -10.006   0.483   0.947  0.00  0.00    +0.277 C 
ATOM      9  O   UNL     1      -8.605   0.692   1.133  0.00  0.00    -0.493 OA
ENDBRANCH   2   9
ENDBRANCH   1   7
BRANCH   1  10
ATOM     10  S   UNL     1      -5.340   0.887  -0.001  0.00  0.00    +0.077 S 
ATOM     11  O   UNL     1      -6.275   1.455  -0.907  0.00  0.00    -0.150 OA
ATOM     12  O   UNL     1      -4.996  -0.492  -0.026  0.00  0.00    -0.150 OA
BRANCH  10  13
ATOM     13  C   UNL     1      -3.837   1.784  -0.199  0.00  0.00    +0.129 A 
ATOM     14  C   UNL     1      -2.629   1.113  -0.229  0.00  0.00    +0.063 A 
ATOM     15  C   UNL     1      -1.450   1.817  -0.384  0.00  0.00    +0.128 A 
ATOM     16  C   UNL     1      -1.477   3.194  -0.505  0.00  0.00    +0.034 A 
ATOM     17  C   UNL     1      -2.684   3.866  -0.480  0.00  0.00    +0.024 A 
ATOM     18  C   UNL     1      -3.865   3.162  -0.324  0.00  0.00    +0.068 A 
ATOM     19 CL   UNL     1      -5.382   4.006  -0.287  0.00  0.00    -0.082 Cl
BRANCH  15  20
ATOM     20  N   UNL     1      -0.158   1.097  -0.416  0.00  0.00    +0.056 N 
ATOM     21  O   UNL     1      -0.133  -0.116  -0.305  0.00  0.00    -0.126 OA
ATOM     22  O   UNL     1       0.881   1.716  -0.558  0.00  0.00    -0.126 OA
ENDBRANCH  15  20
ENDBRANCH  10  13
ENDBRANCH   1  10
BRANCH   1  23
ATOM     23  C   UNL     1      -5.402   0.438   2.666  0.00  0.00    +0.166 C 
BRANCH  23  24
ATOM     24  C   UNL     1      -4.270   1.189   3.317  0.00  0.00    -0.028 A 
ATOM     25  C   UNL     1      -2.969   0.971   2.900  0.00  0.00    +0.006 A 
ATOM     26  C   UNL     1      -1.928   1.659   3.489  0.00  0.00    +0.013 A 
ATOM     27  C   UNL     1      -2.188   2.569   4.514  0.00  0.00    +0.037 A 
ATOM     28  C   UNL     1      -3.503   2.781   4.934  0.00  0.00    +0.013 A 
ATOM     29  C   UNL     1      -4.535   2.090   4.333  0.00  0.00    +0.006 A 
BRANCH  27  30
ATOM     30  C   UNL     1      -1.077   3.306   5.153  0.00  0.00    +0.242 C 
ATOM     31  O   UNL     1      -1.307   4.098   6.046  0.00  0.00    -0.270 OA
ATOM     32  N   UNL     1       0.191   3.099   4.746  0.00  0.00    -0.325 N 
ATOM     33  H   UNL     1       1.017   3.647   5.221  0.00  0.00    +0.145 HD
ATOM     34  H   UNL     1       0.399   2.382   3.938  0.00  0.00    +0.145 HD
ENDBRANCH  27  30
ENDBRANCH  23  24
ENDBRANCH   1  23
TORSDOF 8
