REMARK  Name = ZINC12206598
REMARK  10 active torsions:
REMARK  status: ('A' for Active; 'I' for Inactive)
REMARK    1  A    between atoms: C_1  and  C_2
REMARK    2  A    between atoms: C_3  and  C_4
REMARK    3  A    between atoms: C_4  and  N_5
REMARK    4  A    between atoms: C_8  and  C_12
REMARK    5  A    between atoms: C_8  and  C_20
REMARK    6  A    between atoms: C_12  and  C_13
REMARK    7  A    between atoms: C_13  and  C_14
REMARK    8  A    between atoms: C_25  and  C_26
REMARK    9  A    between atoms: C_25  and  N_70
REMARK   10  A    between atoms: N_29  and  C_31
REMARK                            x       y       z     vdW  Elec       q    Type
REMARK                         _______ _______ _______ _____ _____    ______ ____
ROOT
ATOM      1  N   UNL     1       2.079   0.297  -2.513  0.00  0.00    -0.212 N 
ATOM      2  C   UNL     1       1.385   1.456  -2.525  0.00  0.00    +0.248 C 
ATOM      3  O   UNL     1       1.833   2.582  -2.556  0.00  0.00    -0.273 OA
ATOM      4  C   UNL     1      -0.076   1.053  -2.491  0.00  0.00    +0.115 C 
ATOM      5  N   UNL     1      -0.032  -0.420  -2.465  0.00  0.00    -0.285 N 
ATOM      6  C   UNL     1       1.268  -0.766  -2.480  0.00  0.00    +0.310 C 
ATOM      7  O   UNL     1       1.660  -1.916  -2.465  0.00  0.00    -0.252 OA
ATOM      8  H   UNL     1      -0.792  -1.022  -2.440  0.00  0.00    +0.151 HD
ENDROOT
BRANCH   4   9
ATOM      9  C   UNL     1      -0.755   1.594  -1.231  0.00  0.00    +0.018 C 
ATOM     10  C   UNL     1      -0.013   1.086   0.008  0.00  0.00    -0.013 C 
ATOM     11  C   UNL     1      -0.731   1.580   1.266  0.00  0.00    -0.078 C 
ATOM     12  C   UNL     1      -2.861   1.601   0.109  0.00  0.00    -0.078 C 
ATOM     13  C   UNL     1      -2.206   1.108  -1.183  0.00  0.00    -0.013 C 
ATOM     14  N   UNL     1      -2.114   1.058   1.264  0.00  0.00    +0.382 N 
ATOM     15  H   UNL     1      -2.084   0.034   1.189  0.00  0.00    -0.081 HD
BRANCH  14  16
ATOM     16  C   UNL     1      -2.794   1.427   2.523  0.00  0.00    -0.040 C 
BRANCH  16  17
ATOM     17  C   UNL     1      -1.890   1.106   3.685  0.00  0.00    -0.026 A 
ATOM     18  C   UNL     1      -1.832  -0.112   4.371  0.00  0.00    +0.136 A 
ATOM     19  N   UNL     1      -0.927  -0.010   5.311  0.00  0.00    -0.175 NA
ATOM     20  N   UNL     1      -0.386   1.281   5.260  0.00  0.00    -0.240 N 
ATOM     21  C   UNL     1      -0.994   1.947   4.252  0.00  0.00    +0.116 A 
BRANCH  20  22
ATOM     22  C   UNL     1       0.610   1.792   6.104  0.00  0.00    +0.065 A 
ATOM     23  C   UNL     1       1.060   3.095   5.938  0.00  0.00    +0.028 A 
ATOM     24  C   UNL     1       2.037   3.598   6.775  0.00  0.00    +0.002 A 
ATOM     25  C   UNL     1       2.575   2.802   7.769  0.00  0.00    +0.000 A 
ATOM     26  C   UNL     1       2.132   1.502   7.934  0.00  0.00    +0.002 A 
ATOM     27  C   UNL     1       1.151   0.995   7.103  0.00  0.00    +0.028 A 
ENDBRANCH  20  22
ENDBRANCH  16  17
ENDBRANCH  14  16
ENDBRANCH   4   9
BRANCH   1  28
ATOM     28  C   UNL     1       3.542   0.215  -2.537  0.00  0.00    +0.206 C 
BRANCH  28  31
ATOM     29  C   UNL     1       4.845   0.066  -6.441  0.00  0.00    +0.106 C 
ATOM     30  C   UNL     1       4.379   0.119  -5.045  0.00  0.00    -0.104 C 
ATOM     31  C   UNL     1       4.008   0.162  -3.932  0.00  0.00    -0.083 C 
ENDBRANCH  28  31
ENDBRANCH   1  28
BRANCH   4  32
ATOM     32  C   UNL     1      -0.800   1.547  -3.745  0.00  0.00    +0.040 C 
BRANCH  32  33
ATOM     33  C   UNL     1      -0.181   0.894  -4.982  0.00  0.00    +0.038 C 
BRANCH  33  34
ATOM     34  C   UNL     1      -0.894   1.381  -6.218  0.00  0.00    -0.047 A 
ATOM     35  C   UNL     1      -1.994   0.693  -6.697  0.00  0.00    +0.003 A 
ATOM     36  C   UNL     1      -2.651   1.142  -7.827  0.00  0.00    +0.000 A 
ATOM     37  C   UNL     1      -2.202   2.273  -8.484  0.00  0.00    +0.000 A 
ATOM     38  C   UNL     1      -1.100   2.958  -8.007  0.00  0.00    +0.000 A 
ATOM     39  C   UNL     1      -0.446   2.511  -6.875  0.00  0.00    +0.003 A 
ENDBRANCH  33  34
ENDBRANCH  32  33
ENDBRANCH   4  32
TORSDOF 9
