REMARK  Name = ZINC39687246
REMARK  10 active torsions:
REMARK  status: ('A' for Active; 'I' for Inactive)
REMARK    1  A    between atoms: C_1  and  C_2
REMARK    2  A    between atoms: C_2  and  C_3
REMARK    3  A    between atoms: C_3  and  C_4
REMARK    4  A    between atoms: C_4  and  C_6
REMARK    5  A    between atoms: C_4  and  C_7
REMARK    6  A    between atoms: C_11  and  C_20
REMARK    7  A    between atoms: N_22  and  C_23
REMARK    8  A    between atoms: C_23  and  C_25
REMARK    9  A    between atoms: C_23  and  C_32
REMARK   10  A    between atoms: C_25  and  C_26
REMARK                            x       y       z     vdW  Elec       q    Type
REMARK                         _______ _______ _______ _____ _____    ______ ____
ROOT
ATOM      1  C   UNL     1       3.978  -5.160   1.169  0.00  0.00    +0.219 C 
ATOM      2  O   UNL     1       4.241  -4.041   0.781  0.00  0.00    -0.275 OA
ATOM      3  N   UNL     1       4.613  -6.223   0.639  0.00  0.00    -0.303 N 
ATOM      4  H   UNL     1       4.403  -7.118   0.950  0.00  0.00    +0.149 HD
ENDROOT
BRANCH   1   9
ATOM      5  C   UNL     1       2.187  -1.888   2.947  0.00  0.00    +0.218 C 
ATOM      6  O   UNL     1       2.668  -1.152   3.783  0.00  0.00    -0.275 OA
ATOM      7  N   UNL     1       2.269  -3.225   3.100  0.00  0.00    -0.300 N 
ATOM      8  C   UNL     1       1.846  -4.275   2.144  0.00  0.00    +0.121 C 
ATOM      9  C   UNL     1       2.942  -5.359   2.245  0.00  0.00    +0.100 C 
ATOM     10  C   UNL     1       3.565  -5.159   3.636  0.00  0.00    -0.004 C 
ATOM     11  C   UNL     1       2.809  -3.976   4.258  0.00  0.00    +0.115 C 
ATOM     12  C   UNL     1       5.047  -4.821   3.508  0.00  0.00    -0.010 C 
ATOM     13  C   UNL     1       5.658  -4.683   4.905  0.00  0.00    -0.082 C 
ATOM     14  N   UNL     1       5.484  -5.940   5.644  0.00  0.00    +0.379 N 
ATOM     15  C   UNL     1       4.055  -6.210   5.844  0.00  0.00    -0.082 C 
ATOM     16  C   UNL     1       3.377  -6.412   4.486  0.00  0.00    -0.010 C 
ATOM     17  H   UNL     1       5.898  -6.696   5.120  0.00  0.00    -0.086 HD
ATOM     18  H   UNL     1       5.940  -5.867   6.541  0.00  0.00    -0.086 HD
BRANCH   5  19
ATOM     19  C   UNL     1       1.499  -1.308   1.739  0.00  0.00    +0.072 C 
ATOM     20  C   UNL     1       2.193  -0.006   1.333  0.00  0.00    +0.017 C 
BRANCH  19  21
ATOM     21  C   UNL     1       0.034  -1.022   2.074  0.00  0.00    +0.012 C 
BRANCH  21  23
ATOM     22  C   UNL     1      -2.160  -0.265   1.150  0.00  0.00    +0.004 C 
ATOM     23  C   UNL     1      -0.695  -0.551   0.815  0.00  0.00    -0.003 C 
ENDBRANCH  21  23
ENDBRANCH  19  21
ENDBRANCH   5  19
ENDBRANCH   1   9
BRANCH   3  24
ATOM     24  C   UNL     1       5.620  -6.029  -0.406  0.00  0.00    +0.163 C 
BRANCH  24  25
ATOM     25  C   UNL     1       4.941  -5.947  -1.749  0.00  0.00    +0.236 C 
ATOM     26  O   UNL     1       3.849  -6.449  -1.908  0.00  0.00    -0.274 OA
ATOM     27  N   UNL     1       5.548  -5.316  -2.774  0.00  0.00    -0.300 N 
ATOM     28  C   UNL     1       6.922  -4.812  -2.635  0.00  0.00    +0.108 C 
ATOM     29  C   UNL     1       7.770  -5.372  -3.781  0.00  0.00    +0.019 C 
ATOM     30  C   UNL     1       7.106  -5.028  -5.117  0.00  0.00    +0.003 C 
ATOM     31  C   UNL     1       5.721  -5.674  -5.182  0.00  0.00    +0.019 C 
ATOM     32  C   UNL     1       4.851  -5.124  -4.053  0.00  0.00    +0.108 C 
ENDBRANCH  24  25
BRANCH  24  33
ATOM     33  C   UNL     1       6.597  -7.207  -0.400  0.00  0.00    +0.067 C 
BRANCH  33  34
ATOM     34  C   UNL     1       7.333  -7.241   0.914  0.00  0.00    -0.045 A 
ATOM     35  C   UNL     1       8.521  -6.549   1.059  0.00  0.00    +0.004 A 
ATOM     36  C   UNL     1       9.197  -6.580   2.264  0.00  0.00    +0.000 A 
ATOM     37  C   UNL     1       8.685  -7.304   3.325  0.00  0.00    +0.000 A 
ATOM     38  C   UNL     1       7.497  -7.995   3.181  0.00  0.00    +0.000 A 
ATOM     39  C   UNL     1       6.819  -7.961   1.977  0.00  0.00    +0.004 A 
ENDBRANCH  33  34
ENDBRANCH  24  33
ENDBRANCH   3  24
TORSDOF 8
