REMARK  Name = ZINC06098392
REMARK  5 active torsions:
REMARK  status: ('A' for Active; 'I' for Inactive)
REMARK    1  A    between atoms: C_1  and  C_2
REMARK    2  A    between atoms: C_8  and  N_10
REMARK    3  A    between atoms: C_14  and  C_16
REMARK    4  A    between atoms: C_16  and  S_17
REMARK    5  A    between atoms: S_17  and  C_18
REMARK                            x       y       z     vdW  Elec       q    Type
REMARK                         _______ _______ _______ _____ _____    ______ ____
ROOT
ATOM      1  N   UNL     1      -1.777   8.671   0.029  0.00  0.00    -0.296 N 
ATOM      2  C   UNL     1      -0.693   7.870   0.020  0.00  0.00    +0.306 C 
ATOM      3  O   UNL     1       0.421   8.355   0.011  0.00  0.00    -0.252 OA
ATOM      4  N   UNL     1      -0.845   6.531   0.020  0.00  0.00    -0.239 N 
ATOM      5  C   UNL     1       0.240   5.730   0.011  0.00  0.00    +0.231 C 
ATOM      6  O   UNL     1       1.351   6.214   0.002  0.00  0.00    -0.274 OA
ATOM      7  H   UNL     1      -2.666   8.283   0.036  0.00  0.00    +0.151 HD
ATOM      8  H   UNL     1      -1.734   6.143   0.027  0.00  0.00    +0.159 HD
ENDROOT
BRANCH   1  15
ATOM      9  C   UNL     1      -3.053  10.289  -2.006  0.00  0.00    +0.009 C 
ATOM     10  C   UNL     1      -2.859  10.780  -0.570  0.00  0.00    +0.006 C 
ATOM     11  C   UNL     1      -2.687  12.301  -0.570  0.00  0.00    +0.005 C 
ATOM     12  C   UNL     1      -2.493  12.792   0.866  0.00  0.00    +0.000 C 
ATOM     13  C   UNL     1      -1.247  12.138   1.464  0.00  0.00    +0.002 C 
ATOM     14  C   UNL     1      -1.419  10.618   1.465  0.00  0.00    +0.022 C 
ATOM     15  C   UNL     1      -1.613  10.126   0.029  0.00  0.00    +0.077 C 
ENDBRANCH   1  15
BRANCH   5  16
ATOM     16  C   UNL     1       0.070   4.232   0.011  0.00  0.00    +0.173 C 
BRANCH  16  17
ATOM     17  S   UNL     1       1.698   3.441  -0.003  0.00  0.00    -0.077 S 
BRANCH  17  18
ATOM     18  C   UNL     1       1.215   1.747  -0.000  0.00  0.00    +0.192 A 
ATOM     19  N   UNL     1      -0.015   1.283   0.009  0.00  0.00    -0.122 NA
ATOM     20  N   UNL     1       0.002  -0.004   0.002  0.00  0.00    -0.134 NA
ATOM     21  C   UNL     1       1.230  -0.431  -0.016  0.00  0.00    +0.134 A 
ATOM     22  N   UNL     1       2.043   0.667  -0.008  0.00  0.00    -0.306 N 
ATOM     23  C   UNL     1       3.506   0.667   0.001  0.00  0.00    +0.125 C 
ATOM     24  C   UNL     1       4.016  -0.606  -0.681  0.00  0.00    +0.022 C 
ATOM     25  C   UNL     1       4.161  -1.722   0.351  0.00  0.00    +0.002 C 
ATOM     26  C   UNL     1       2.812  -2.051   0.982  0.00  0.00    +0.008 C 
ATOM     27  C   UNL     1       1.699  -1.862  -0.054  0.00  0.00    +0.076 C 
ENDBRANCH  17  18
ENDBRANCH  16  17
ENDBRANCH   5  16
TORSDOF 4
