REMARK  Name = ZINC36500729
REMARK  14 active torsions:
REMARK  status: ('A' for Active; 'I' for Inactive)
REMARK    1  A    between atoms: C_1  and  C_2
REMARK    2  A    between atoms: C_2  and  C_3
REMARK    3  A    between atoms: C_2  and  C_4
REMARK    4  A    between atoms: C_2  and  N_5
REMARK    5  A    between atoms: C_6  and  C_8
REMARK    6  A    between atoms: C_8  and  C_10
REMARK    7  A    between atoms: C_8  and  N_23
REMARK    8  A    between atoms: C_10  and  C_11
REMARK    9  A    between atoms: C_10  and  C_17
REMARK   10  A    between atoms: N_23  and  C_24
REMARK   11  A    between atoms: C_24  and  C_25
REMARK   12  A    between atoms: C_30  and  C_32
REMARK   13  A    between atoms: C_36  and  O_39
REMARK   14  A    between atoms: C_37  and  O_38
REMARK                            x       y       z     vdW  Elec       q    Type
REMARK                         _______ _______ _______ _____ _____    ______ ____
ROOT
ATOM      1  C   UNL     1       2.529  -0.306  -2.405  0.00  0.00    +0.174 C 
ENDROOT
BRANCH   1   3
ATOM      2  N   UNL     1       1.721   0.672  -0.281  0.00  0.00    -0.309 N 
ATOM      3  C   UNL     1       2.729   0.095  -0.966  0.00  0.00    +0.235 C 
ATOM      4  O   UNL     1       3.796  -0.101  -0.424  0.00  0.00    -0.274 OA
ATOM      5  H   UNL     1       0.868   0.829  -0.714  0.00  0.00    +0.149 HD
BRANCH   2   7
ATOM      6  C   UNL     1       3.055   2.078   1.211  0.00  0.00    +0.031 C 
ATOM      7  C   UNL     1       1.916   1.061   1.118  0.00  0.00    +0.026 C 
ATOM      8  C   UNL     1       2.267  -0.175   1.948  0.00  0.00    +0.031 C 
ATOM      9  C   UNL     1       0.628   1.688   1.657  0.00  0.00    +0.031 C 
ENDBRANCH   2   7
ENDBRANCH   1   3
BRANCH   1  10
ATOM     10  N   UNL     1       3.762  -0.906  -2.920  0.00  0.00    -0.278 N 
ATOM     11  C   UNL     1       4.575  -0.191  -3.723  0.00  0.00    +0.251 C 
ATOM     12  O   UNL     1       4.344   0.985  -3.930  0.00  0.00    -0.270 OA
BRANCH  11  13
ATOM     13  C   UNL     1       5.744  -0.835  -4.352  0.00  0.00    +0.082 A 
ATOM     14  C   UNL     1       6.712  -1.460  -3.560  0.00  0.00    +0.017 A 
ATOM     15  C   UNL     1       7.802  -2.061  -4.150  0.00  0.00    +0.005 A 
ATOM     16  C   UNL     1       7.946  -2.051  -5.528  0.00  0.00    +0.049 A 
ATOM     17  C   UNL     1       6.996  -1.436  -6.326  0.00  0.00    +0.159 A 
ATOM     18  C   UNL     1       5.886  -0.830  -5.744  0.00  0.00    +0.171 A 
BRANCH  18  19
ATOM     19  O   UNL     1       4.949  -0.231  -6.523  0.00  0.00    -0.503 OA
ATOM     20  H   UNL     1       5.123   0.703  -6.700  0.00  0.00    +0.292 HD
ENDBRANCH  18  19
BRANCH  17  21
ATOM     21  O   UNL     1       7.144  -1.430  -7.678  0.00  0.00    -0.503 OA
ATOM     22  H   UNL     1       6.739  -2.188  -8.121  0.00  0.00    +0.292 HD
ENDBRANCH  17  21
ENDBRANCH  11  13
BRANCH  10  23
ATOM     23  C   UNL     1       4.112  -2.283  -2.562  0.00  0.00    +0.183 C 
BRANCH  23  24
ATOM     24  C   UNL     1       4.543  -2.333  -1.119  0.00  0.00    +0.122 A 
ATOM     25  C   UNL     1       3.751  -2.625  -0.072  0.00  0.00    +0.046 A 
ATOM     26  C   UNL     1       4.561  -2.558   1.085  0.00  0.00    +0.041 A 
ATOM     27  C   UNL     1       5.799  -2.228   0.675  0.00  0.00    +0.195 A 
ATOM     28  O   UNL     1       5.783  -2.099  -0.661  0.00  0.00    -0.466 OA
ENDBRANCH  23  24
ENDBRANCH  10  23
ENDBRANCH   1  10
BRANCH   1  29
ATOM     29  C   UNL     1       1.389  -1.322  -2.497  0.00  0.00    +0.078 C 
BRANCH  29  30
ATOM     30  C   UNL     1       0.092  -0.659  -2.114  0.00  0.00    -0.038 A 
ATOM     31  C   UNL     1      -0.411   0.373  -2.885  0.00  0.00    +0.004 A 
ATOM     32  C   UNL     1      -1.601   0.982  -2.534  0.00  0.00    +0.000 A 
ATOM     33  C   UNL     1      -2.289   0.558  -1.412  0.00  0.00    +0.000 A 
ATOM     34  C   UNL     1      -1.787  -0.474  -0.642  0.00  0.00    +0.000 A 
ATOM     35  C   UNL     1      -0.599  -1.085  -0.996  0.00  0.00    +0.004 A 
ENDBRANCH  29  30
BRANCH  29  36
ATOM     36  C   UNL     1       1.292  -1.840  -3.909  0.00  0.00    -0.038 A 
ATOM     37  C   UNL     1       1.050  -3.181  -4.138  0.00  0.00    +0.004 A 
ATOM     38  C   UNL     1       0.960  -3.656  -5.434  0.00  0.00    +0.000 A 
ATOM     39  C   UNL     1       1.112  -2.789  -6.500  0.00  0.00    +0.000 A 
ATOM     40  C   UNL     1       1.353  -1.447  -6.270  0.00  0.00    +0.000 A 
ATOM     41  C   UNL     1       1.438  -0.972  -4.975  0.00  0.00    +0.004 A 
ENDBRANCH  29  36
ENDBRANCH   1  29
TORSDOF 11
