REMARK  Name = ZINC58423826
REMARK  7 active torsions:
REMARK  status: ('A' for Active; 'I' for Inactive)
REMARK    1  A    between atoms: C_1  and  C_2
REMARK    2  A    between atoms: C_2  and  C_3
REMARK    3  A    between atoms: C_2  and  C_4
REMARK    4  A    between atoms: C_2  and  C_5
REMARK    5  A    between atoms: C_12  and  C_14
REMARK    6  A    between atoms: N_16  and  N_17
REMARK    7  A    between atoms: C_18  and  C_20
REMARK                            x       y       z     vdW  Elec       q    Type
REMARK                         _______ _______ _______ _____ _____    ______ ____
ROOT
ATOM      1  C   UNL     1       0.718  -0.497  -1.257  0.00  0.00    -0.001 C 
ATOM      2  C   UNL     1      -0.026   0.007  -2.496  0.00  0.00    +0.009 C 
ATOM      3  C   UNL     1       0.533  -0.709  -3.733  0.00  0.00    +0.043 C 
ATOM      4  C   UNL     1       2.032  -0.643  -3.684  0.00  0.00    -0.006 A 
ATOM      5  C   UNL     1       2.798  -0.317  -2.603  0.00  0.00    -0.036 A 
ATOM      6  C   UNL     1       4.173  -0.320  -2.792  0.00  0.00    +0.024 A 
ATOM      7  C   UNL     1       4.629  -0.652  -4.054  0.00  0.00    +0.076 A 
ATOM      8  S   UNL     1       3.103  -0.949  -4.927  0.00  0.00    -0.088 S 
ATOM      9  C   UNL     1       2.154   0.029  -1.264  0.00  0.00    +0.040 C 
ENDROOT
BRANCH   1  11
ATOM     10  C   UNL     1      -0.019   1.526   0.010  0.00  0.00    +0.011 C 
ATOM     11  C   UNL     1       0.002  -0.004   0.002  0.00  0.00    -0.035 C 
ATOM     12  C   UNL     1       0.742  -0.511   1.242  0.00  0.00    +0.011 C 
ATOM     13  C   UNL     1      -1.433  -0.534   0.013  0.00  0.00    +0.011 C 
ENDBRANCH   1  11
BRANCH   7  14
ATOM     14  C   UNL     1       6.007  -0.739  -4.545  0.00  0.00    +0.267 C 
ATOM     15  O   UNL     1       6.936  -0.498  -3.797  0.00  0.00    -0.268 OA
ATOM     16  N   UNL     1       6.246  -1.084  -5.826  0.00  0.00    -0.230 N 
ATOM     17  H   UNL     1       5.505  -1.276  -6.422  0.00  0.00    +0.173 HD
BRANCH  16  18
ATOM     18  N   UNL     1       7.563  -1.167  -6.296  0.00  0.00    -0.229 N 
ATOM     19  C   UNL     1       7.801  -1.512  -7.576  0.00  0.00    +0.281 C 
ATOM     20  O   UNL     1       6.873  -1.753  -8.324  0.00  0.00    -0.267 OA
ATOM     21  H   UNL     1       8.304  -0.975  -5.699  0.00  0.00    +0.173 HD
BRANCH  19  22
ATOM     22  C   UNL     1       9.191  -1.599  -8.072  0.00  0.00    +0.155 A 
ATOM     23  C   UNL     1       9.500  -1.945  -9.382  0.00  0.00    +0.155 A 
ATOM     24  N   UNL     1      10.779  -1.977  -9.659  0.00  0.00    -0.198 NA
ATOM     25  S   UNL     1      11.508  -1.576  -8.277  0.00  0.00    +0.116 S 
ATOM     26  N   UNL     1      10.239  -1.349  -7.306  0.00  0.00    -0.186 NA
ENDBRANCH  19  22
ENDBRANCH  16  18
ENDBRANCH   7  14
TORSDOF 4
