REMARK  Name = ZINC41585962
REMARK  5 active torsions:
REMARK  status: ('A' for Active; 'I' for Inactive)
REMARK    1  A    between atoms: C_4  and  C_7
REMARK    2  A    between atoms: C_13  and  O_35
REMARK    3  A    between atoms: C_14  and  C_22
REMARK    4  A    between atoms: C_17  and  C_18
REMARK    5  A    between atoms: C_22  and  N_23
REMARK                            x       y       z     vdW  Elec       q    Type
REMARK                         _______ _______ _______ _____ _____    ______ ____
ROOT
ATOM      1  C   UNL     1       3.853  -0.551   0.017  0.00  0.00    +0.076 A 
ATOM      2  C   UNL     1       4.705  -0.565  -1.187  0.00  0.00    +0.201 A 
ATOM      3  O   UNL     1       4.550   0.230  -2.098  0.00  0.00    -0.286 OA
ATOM      4  C   UNL     1       5.757  -1.598  -1.221  0.00  0.00    +0.065 A 
ATOM      5  C   UNL     1       6.457  -1.886  -2.392  0.00  0.00    +0.019 A 
ATOM      6  C   UNL     1       7.420  -2.855  -2.385  0.00  0.00    +0.046 A 
ATOM      7  C   UNL     1       7.704  -3.555  -1.214  0.00  0.00    +0.125 A 
ATOM      8  C   UNL     1       7.018  -3.278  -0.043  0.00  0.00    +0.051 A 
ATOM      9  C   UNL     1       6.039  -2.294  -0.032  0.00  0.00    +0.147 A 
ATOM     10  O   UNL     1       5.372  -2.002   1.102  0.00  0.00    -0.449 OA
ATOM     11  C   UNL     1       4.248  -1.282   1.092  0.00  0.00    +0.219 A 
ENDROOT
BRANCH   1  15
ATOM     12  C   UNL     1       0.265   1.728   0.128  0.00  0.00    +0.000 A 
ATOM     13  C   UNL     1       0.321   0.568  -0.624  0.00  0.00    +0.001 A 
ATOM     14  C   UNL     1       1.483  -0.176  -0.663  0.00  0.00    +0.009 A 
ATOM     15  C   UNL     1       2.601   0.244   0.055  0.00  0.00    -0.011 A 
ATOM     16  C   UNL     1       2.538   1.414   0.810  0.00  0.00    +0.009 A 
ATOM     17  C   UNL     1       1.371   2.149   0.843  0.00  0.00    +0.001 A 
ENDBRANCH   1  15
BRANCH  11  18
ATOM     18  C   UNL     1       3.379  -1.285   2.323  0.00  0.00    +0.451 C 
ATOM     19  F   UNL     1       2.181  -0.616   2.049  0.00  0.00    -0.163 F 
ATOM     20  F   UNL     1       3.102  -2.605   2.695  0.00  0.00    -0.163 F 
ATOM     21  F   UNL     1       4.047  -0.636   3.367  0.00  0.00    -0.163 F 
ENDBRANCH  11  18
BRANCH   7  22
ATOM     22  O   UNL     1       8.661  -4.517  -1.221  0.00  0.00    -0.506 OA
ATOM     23  H   UNL     1       9.546  -4.193  -1.010  0.00  0.00    +0.292 HD
ENDBRANCH   7  22
BRANCH   8  24
ATOM     24  C   UNL     1       7.335  -4.043   1.216  0.00  0.00    +0.127 C 
BRANCH  24  25
ATOM     25  N   UNL     1       8.392  -3.345   1.960  0.00  0.00    -0.295 NA
ATOM     26  C   UNL     1       7.922  -2.041   2.445  0.00  0.00    +0.103 C 
ATOM     27  C   UNL     1       9.098  -1.271   3.054  0.00  0.00    +0.122 C 
ATOM     28  N   UNL     1       9.735  -2.120   4.073  0.00  0.00    -0.314 N 
ATOM     29  C   UNL     1      10.110  -3.492   3.699  0.00  0.00    +0.122 C 
ATOM     30  C   UNL     1       8.894  -4.174   3.065  0.00  0.00    +0.103 C 
ATOM     31  C   UNL     1       9.974  -1.638   5.354  0.00  0.00    +0.099 A 
ATOM     32  C   UNL     1      10.696  -2.411   6.258  0.00  0.00    +0.042 A 
ATOM     33  C   UNL     1      10.927  -1.920   7.530  0.00  0.00    +0.005 A 
ATOM     34  C   UNL     1      10.426  -0.667   7.857  0.00  0.00    +0.018 A 
ATOM     35  C   UNL     1       9.718   0.047   6.911  0.00  0.00    +0.084 A 
ATOM     36  N   UNL     1       9.517  -0.445   5.703  0.00  0.00    -0.350 N 
ATOM     37  H   UNL     1       9.020   0.079   5.056  0.00  0.00    +0.166 HD
ENDBRANCH  24  25
ENDBRANCH   8  24
TORSDOF 5
