REMARK  Name = ZINC34912420
REMARK  9 active torsions:
REMARK  status: ('A' for Active; 'I' for Inactive)
REMARK    1  A    between atoms: C_1  and  C_2
REMARK    2  A    between atoms: C_2  and  C_3
REMARK    3  A    between atoms: C_3  and  C_4
REMARK    4  A    between atoms: C_4  and  C_5
REMARK    5  A    between atoms: C_8  and  C_11
REMARK    6  A    between atoms: C_16  and  N_19
REMARK    7  A    between atoms: C_22  and  C_25
REMARK    8  A    between atoms: N_27  and  C_28
REMARK    9  A    between atoms: C_28  and  C_29
REMARK                            x       y       z     vdW  Elec       q    Type
REMARK                         _______ _______ _______ _____ _____    ______ ____
ROOT
ATOM      1  N   UNL     1      -9.761  -3.222  -4.395  0.00  0.00    +0.382 N 
ATOM      2  C   UNL     1     -11.100  -3.815  -4.503  0.00  0.00    -0.078 C 
ATOM      3  C   UNL     1     -11.974  -2.948  -5.411  0.00  0.00    -0.006 C 
ATOM      4  C   UNL     1     -11.336  -2.868  -6.801  0.00  0.00    +0.071 C 
ATOM      5  C   UNL     1      -9.913  -2.317  -6.667  0.00  0.00    -0.006 C 
ATOM      6  C   UNL     1      -9.115  -3.208  -5.713  0.00  0.00    -0.078 C 
ATOM      7  H   UNL     1      -9.842  -2.277  -4.050  0.00  0.00    -0.081 HD
ENDROOT
BRANCH   1  13
ATOM      8  C   UNL     1      -6.811  -4.056   0.045  0.00  0.00    +0.247 C 
ATOM      9  O   UNL     1      -5.713  -3.536   0.035  0.00  0.00    -0.270 OA
ATOM     10  N   UNL     1      -7.414  -4.382  -1.115  0.00  0.00    -0.298 N 
ATOM     11  C   UNL     1      -6.703  -4.240  -2.393  0.00  0.00    +0.106 C 
ATOM     12  C   UNL     1      -7.558  -3.391  -3.341  0.00  0.00    +0.004 C 
ATOM     13  C   UNL     1      -8.950  -4.014  -3.461  0.00  0.00    -0.066 C 
ATOM     14  C   UNL     1      -9.624  -4.032  -2.088  0.00  0.00    +0.004 C 
ATOM     15  C   UNL     1      -8.791  -4.893  -1.126  0.00  0.00    +0.106 C 
BRANCH   8  19
ATOM     16  C   UNL     1      -8.752  -4.844   3.740  0.00  0.00    -0.047 A 
ATOM     17  C   UNL     1      -8.074  -3.652   3.559  0.00  0.00    +0.004 A 
ATOM     18  C   UNL     1      -7.442  -3.389   2.361  0.00  0.00    +0.013 A 
ATOM     19  C   UNL     1      -7.486  -4.330   1.332  0.00  0.00    +0.037 A 
ATOM     20  C   UNL     1      -8.172  -5.532   1.521  0.00  0.00    +0.013 A 
ATOM     21  C   UNL     1      -8.795  -5.784   2.726  0.00  0.00    +0.004 A 
BRANCH  16  22
ATOM     22  C   UNL     1      -9.441  -5.124   5.051  0.00  0.00    +0.035 C 
BRANCH  22  23
ATOM     23  C   UNL     1      -8.465  -5.822   6.001  0.00  0.00    +0.004 C 
BRANCH  23  25
ATOM     24  C   UNL     1      -8.189  -6.803   8.282  0.00  0.00    +0.004 C 
ATOM     25  C   UNL     1      -9.164  -6.105   7.332  0.00  0.00    -0.003 C 
ENDBRANCH  23  25
ENDBRANCH  22  23
ENDBRANCH  16  22
ENDBRANCH   8  19
ENDBRANCH   1  13
BRANCH   4  26
ATOM     26  C   UNL     1     -12.150  -1.952  -7.678  0.00  0.00    +0.216 C 
ATOM     27  O   UNL     1     -13.144  -1.415  -7.236  0.00  0.00    -0.276 OA
ATOM     28  N   UNL     1     -11.774  -1.729  -8.953  0.00  0.00    -0.311 N 
ATOM     29  H   UNL     1     -10.979  -2.159  -9.306  0.00  0.00    +0.149 HD
BRANCH  28  30
ATOM     30  C   UNL     1     -12.566  -0.839  -9.805  0.00  0.00    +0.139 C 
BRANCH  30  31
ATOM     31  C   UNL     1     -11.937  -0.761 -11.172  0.00  0.00    -0.027 A 
ATOM     32  C   UNL     1     -10.982   0.203 -11.438  0.00  0.00    +0.009 A 
ATOM     33  C   UNL     1     -10.402   0.278 -12.690  0.00  0.00    +0.050 A 
ATOM     34  C   UNL     1     -10.776  -0.613 -13.682  0.00  0.00    +0.166 A 
ATOM     35  C   UNL     1     -11.737  -1.585 -13.415  0.00  0.00    +0.167 A 
ATOM     36  C   UNL     1     -12.311  -1.657 -12.155  0.00  0.00    +0.054 A 
ATOM     37  O   UNL     1     -11.929  -2.331 -14.541  0.00  0.00    -0.453 OA
ATOM     38  C   UNL     1     -11.377  -1.551 -15.618  0.00  0.00    +0.466 C 
ATOM     39  O   UNL     1     -10.365  -0.751 -14.977  0.00  0.00    -0.453 OA
ENDBRANCH  30  31
ENDBRANCH  28  30
ENDBRANCH   4  26
TORSDOF 8
