REMARK  Name = ZINC27026147
REMARK  5 active torsions:
REMARK  status: ('A' for Active; 'I' for Inactive)
REMARK    1  A    between atoms: C_10  and  C_25
REMARK    2  A    between atoms: C_13  and  C_15
REMARK    3  A    between atoms: C_19  and  N_21
REMARK    4  A    between atoms: C_25  and  C_26
REMARK    5  A    between atoms: N_28  and  C_29
REMARK                            x       y       z     vdW  Elec       q    Type
REMARK                         _______ _______ _______ _____ _____    ______ ____
ROOT
ATOM      1  C   UNL     1       5.042   7.806  -4.823  0.00  0.00    +0.002 A 
ATOM      2  C   UNL     1       3.697   8.088  -4.981  0.00  0.00    +0.002 A 
ATOM      3  C   UNL     1       2.827   7.948  -3.914  0.00  0.00    +0.025 A 
ATOM      4  C   UNL     1       3.308   7.525  -2.687  0.00  0.00    +0.059 A 
ATOM      5  C   UNL     1       4.666   7.245  -2.525  0.00  0.00    +0.055 A 
ATOM      6  C   UNL     1       5.529   7.386  -3.599  0.00  0.00    +0.025 A 
ATOM      7  N   UNL     1       5.140   6.826  -1.276  0.00  0.00    -0.282 N 
ATOM      8  C   UNL     1       4.286   6.418  -0.319  0.00  0.00    +0.239 C 
ATOM      9  O   UNL     1       4.715   6.101   0.771  0.00  0.00    -0.273 OA
ATOM     10  C   UNL     1       2.804   6.350  -0.584  0.00  0.00    +0.176 C 
ATOM     11  N   UNL     1       2.450   7.363  -1.590  0.00  0.00    -0.253 N 
ATOM     12  C   UNL     1       1.337   8.112  -1.460  0.00  0.00    +0.252 C 
ATOM     13  O   UNL     1       0.983   8.837  -2.370  0.00  0.00    -0.270 OA
ATOM     14  H   UNL     1       6.220   6.827  -1.069  0.00  0.00    +0.155 HD
ENDROOT
BRANCH  12  15
ATOM     15  C   UNL     1       0.548   8.053  -0.213  0.00  0.00    +0.039 A 
ATOM     16  C   UNL     1       1.189   7.880   1.015  0.00  0.00    +0.014 A 
ATOM     17  C   UNL     1       0.447   7.826   2.176  0.00  0.00    +0.023 A 
ATOM     18  C   UNL     1      -0.932   7.944   2.126  0.00  0.00    +0.071 A 
ATOM     19  C   UNL     1      -1.574   8.115   0.910  0.00  0.00    +0.145 A 
ATOM     20  C   UNL     1      -0.842   8.175  -0.257  0.00  0.00    +0.047 A 
ATOM     21 CL   UNL     1      -1.860   7.875   3.591  0.00  0.00    -0.081 Cl
BRANCH  19  22
ATOM     22  N   UNL     1      -3.049   8.240   0.865  0.00  0.00    +0.058 N 
ATOM     23  O   UNL     1      -3.614   8.391  -0.203  0.00  0.00    -0.126 OA
ATOM     24  O   UNL     1      -3.696   8.191   1.896  0.00  0.00    -0.126 OA
ENDBRANCH  19  22
ENDBRANCH  12  15
BRANCH  10  25
ATOM     25  C   UNL     1       2.441   4.959  -1.108  0.00  0.00    +0.128 C 
BRANCH  25  26
ATOM     26  C   UNL     1       0.943   4.843  -1.228  0.00  0.00    +0.219 C 
ATOM     27  O   UNL     1       0.240   5.806  -1.007  0.00  0.00    -0.275 OA
ATOM     28  N   UNL     1       0.385   3.668  -1.581  0.00  0.00    -0.285 N 
ATOM     29  H   UNL     1       1.014   2.775  -1.704  0.00  0.00    +0.155 HD
BRANCH  28  30
ATOM     30  C   UNL     1      -0.996   3.586  -1.792  0.00  0.00    +0.035 A 
ATOM     31  C   UNL     1      -1.708   4.710  -2.191  0.00  0.00    +0.023 A 
ATOM     32  C   UNL     1      -3.071   4.625  -2.398  0.00  0.00    +0.003 A 
ATOM     33  C   UNL     1      -3.728   3.425  -2.203  0.00  0.00    +0.020 A 
ATOM     34  C   UNL     1      -3.022   2.301  -1.811  0.00  0.00    +0.043 A 
ATOM     35  C   UNL     1      -1.658   2.380  -1.603  0.00  0.00    +0.043 A 
ATOM     36 CL   UNL     1      -3.851   0.794  -1.575  0.00  0.00    -0.083 Cl
ENDBRANCH  28  30
ENDBRANCH  25  26
ENDBRANCH  10  25
TORSDOF 5
