REMARK  Name = ZINC22852076
REMARK  7 active torsions:
REMARK  status: ('A' for Active; 'I' for Inactive)
REMARK    1  A    between atoms: C_1  and  O_2
REMARK    2  A    between atoms: O_2  and  C_3
REMARK    3  A    between atoms: C_3  and  C_5
REMARK    4  A    between atoms: N_8  and  C_11
REMARK    5  A    between atoms: C_11  and  C_13
REMARK    6  A    between atoms: C_11  and  C_20
REMARK    7  A    between atoms: C_26  and  C_28
REMARK                            x       y       z     vdW  Elec       q    Type
REMARK                         _______ _______ _______ _____ _____    ______ ____
ROOT
ATOM      1  C   UNL     1      -8.386   0.319   0.038  0.00  0.00    +0.006 C 
ENDROOT
BRANCH   1   2
ATOM      2  C   UNL     1      -6.880   0.266   0.092  0.00  0.00    +0.050 A 
ATOM      3  C   UNL     1      -6.002   1.273   0.161  0.00  0.00    +0.282 A 
ATOM      4  N   UNL     1      -4.652   1.024   0.201  0.00  0.00    -0.169 N 
ATOM      5  C   UNL     1      -4.258  -0.286   0.170  0.00  0.00    +0.200 A 
ATOM      6  S   UNL     1      -5.803  -1.159   0.082  0.00  0.00    -0.050 S 
ATOM      7  N   UNL     1      -2.957  -0.355   0.210  0.00  0.00    -0.197 NA
ATOM      8  C   UNL     1      -2.449   0.883   0.278  0.00  0.00    +0.218 A 
ATOM      9  N   UNL     1      -3.436   1.753   0.272  0.00  0.00    -0.138 NA
ATOM     10  O   UNL     1      -6.451   2.557   0.190  0.00  0.00    -0.265 OA
BRANCH   8  11
ATOM     11  C   UNL     1      -1.011   1.218   0.343  0.00  0.00    +0.173 A 
ATOM     12  C   UNL     1       0.016   0.328   0.350  0.00  0.00    +0.053 A 
ATOM     13  C   UNL     1       1.205   1.081   0.414  0.00  0.00    +0.042 A 
ATOM     14  C   UNL     1       0.849   2.380   0.449  0.00  0.00    +0.196 A 
ATOM     15  O   UNL     1      -0.491   2.459   0.410  0.00  0.00    -0.460 OA
ENDBRANCH   8  11
ENDBRANCH   1   2
BRANCH   1  19
ATOM     16  C   UNL     1     -10.210  -1.344  -3.453  0.00  0.00    +0.094 C 
ATOM     17  C   UNL     1     -10.812  -1.636  -2.076  0.00  0.00    -0.004 C 
ATOM     18  C   UNL     1     -10.337  -0.575  -1.081  0.00  0.00    -0.077 C 
ATOM     19  N   UNL     1      -8.871  -0.591  -1.008  0.00  0.00    +0.387 N 
ATOM     20  C   UNL     1      -8.270  -0.266  -2.308  0.00  0.00    -0.077 C 
ATOM     21  C   UNL     1      -8.683  -1.319  -3.340  0.00  0.00    -0.004 C 
ATOM     22  H   UNL     1      -8.560  -1.612  -0.741  0.00  0.00    -0.080 HD
BRANCH  16  23
ATOM     23  C   UNL     1     -10.626  -2.419  -4.424  0.00  0.00    +0.310 C 
ATOM     24  O   UNL     1     -11.332  -3.327  -4.053  0.00  0.00    -0.251 OA
BRANCH  23  26
ATOM     25  C   UNL     1     -10.653  -3.437  -6.579  0.00  0.00    +0.280 C 
ATOM     26  O   UNL     1     -10.213  -2.368  -5.700  0.00  0.00    -0.468 OA
ENDBRANCH  23  26
ENDBRANCH  16  23
ENDBRANCH   1  19
BRANCH   1  27
ATOM     27  C   UNL     1      -8.951  -0.100   1.370  0.00  0.00    -0.056 A 
ATOM     28  C   UNL     1      -8.936  -1.432   1.739  0.00  0.00    +0.003 A 
ATOM     29  C   UNL     1      -9.451  -1.817   2.963  0.00  0.00    +0.015 A 
ATOM     30  C   UNL     1      -9.990  -0.869   3.814  0.00  0.00    +0.018 A 
ATOM     31  C   UNL     1     -10.010   0.463   3.443  0.00  0.00    +0.015 A 
ATOM     32  C   UNL     1      -9.490   0.847   2.221  0.00  0.00    +0.003 A 
ATOM     33 BR   UNL     1     -10.700  -1.395   5.486  0.00  0.00    -0.050 Br
ENDBRANCH   1  27
TORSDOF 6
