REMARK  Name = ZINC03432665
REMARK  6 active torsions:
REMARK  status: ('A' for Active; 'I' for Inactive)
REMARK    1  A    between atoms: N_9  and  C_12
REMARK    2  A    between atoms: C_12  and  C_13
REMARK    3  A    between atoms: C_13  and  C_14
REMARK    4  A    between atoms: C_14  and  C_15
REMARK    5  A    between atoms: N_17  and  N_18
REMARK    6  A    between atoms: N_18  and  C_19
REMARK                            x       y       z     vdW  Elec       q    Type
REMARK                         _______ _______ _______ _____ _____    ______ ____
ROOT
ATOM      1  C   UNL     1       3.538   5.892  -0.511  0.00  0.00    +0.229 C 
ATOM      2  O   UNL     1       4.580   5.328  -0.251  0.00  0.00    -0.274 OA
ATOM      3  N   UNL     1       2.369   5.230  -0.408  0.00  0.00    -0.236 N 
ATOM      4  H   UNL     1       1.536   5.681  -0.616  0.00  0.00    +0.173 HD
ENDROOT
BRANCH   3   5
ATOM      5  N   UNL     1       2.356   3.890   0.001  0.00  0.00    -0.262 N 
ATOM      6  H   UNL     1       3.192   3.414   0.129  0.00  0.00    +0.170 HD
BRANCH   5   7
ATOM      7  C   UNL     1       1.139   3.237   0.222  0.00  0.00    +0.081 A 
ATOM      8  C   UNL     1       1.001   1.893  -0.099  0.00  0.00    +0.066 A 
ATOM      9  C   UNL     1      -0.203   1.251   0.121  0.00  0.00    +0.042 A 
ATOM     10  C   UNL     1      -1.272   1.947   0.657  0.00  0.00    +0.044 A 
ATOM     11  C   UNL     1      -1.136   3.285   0.983  0.00  0.00    +0.042 A 
ATOM     12  C   UNL     1       0.065   3.933   0.765  0.00  0.00    +0.066 A 
ATOM     13 CL   UNL     1       0.233   5.612   1.169  0.00  0.00    -0.081 Cl
ATOM     14 CL   UNL     1      -2.785   1.139   0.927  0.00  0.00    -0.083 Cl
ATOM     15 CL   UNL     1       2.340   1.020  -0.777  0.00  0.00    -0.081 Cl
ENDBRANCH   5   7
ENDBRANCH   3   5
BRANCH   1  16
ATOM     16  C   UNL     1       3.551   7.334  -0.951  0.00  0.00    +0.099 C 
BRANCH  16  17
ATOM     17  C   UNL     1       4.993   7.843  -0.985  0.00  0.00    +0.029 C 
BRANCH  17  18
ATOM     18  C   UNL     1       5.007   9.307  -1.430  0.00  0.00    +0.117 C 
BRANCH  18  27
ATOM     19  C   UNL     1      10.760  11.121  -2.224  0.00  0.00    +0.001 A 
ATOM     20  C   UNL     1      10.649  11.524  -0.906  0.00  0.00    +0.001 A 
ATOM     21  C   UNL     1       9.466  11.330  -0.210  0.00  0.00    +0.014 A 
ATOM     22  C   UNL     1       8.388  10.728  -0.840  0.00  0.00    +0.049 A 
ATOM     23  C   UNL     1       8.502  10.317  -2.183  0.00  0.00    +0.049 A 
ATOM     24  C   UNL     1       9.691  10.518  -2.867  0.00  0.00    +0.014 A 
ATOM     25  C   UNL     1       7.195   9.725  -2.537  0.00  0.00    +0.254 C 
ATOM     26  O   UNL     1       6.899   9.255  -3.617  0.00  0.00    -0.270 OA
ATOM     27  N   UNL     1       6.388   9.795  -1.463  0.00  0.00    -0.234 N 
ATOM     28  C   UNL     1       7.014  10.377  -0.424  0.00  0.00    +0.254 C 
ATOM     29  O   UNL     1       6.532  10.577   0.672  0.00  0.00    -0.270 OA
ENDBRANCH  18  27
ENDBRANCH  17  18
ENDBRANCH  16  17
ENDBRANCH   1  16
TORSDOF 6
