REMARK  Name = ZINC12139596
REMARK  9 active torsions:
REMARK  status: ('A' for Active; 'I' for Inactive)
REMARK    1  A    between atoms: C_4  and  C_7
REMARK    2  A    between atoms: C_7  and  N_58
REMARK    3  A    between atoms: C_8  and  N_58
REMARK    4  A    between atoms: C_15  and  N_17
REMARK    5  A    between atoms: N_17  and  C_18
REMARK    6  A    between atoms: N_17  and  C_25
REMARK    7  A    between atoms: C_18  and  C_19
REMARK    8  A    between atoms: C_25  and  N_27
REMARK    9  A    between atoms: N_27  and  C_28
REMARK                            x       y       z     vdW  Elec       q    Type
REMARK                         _______ _______ _______ _____ _____    ______ ____
ROOT
ATOM      1  N   UNL     1      -1.920  -1.183  -0.643  0.00  0.00    -0.305 N 
ENDROOT
BRANCH   1   8
ATOM      2  C   UNL     1      -1.472  -2.493  -2.635  0.00  0.00    -0.028 C 
ATOM      3  C   UNL     1      -0.202  -3.317  -2.942  0.00  0.00    +0.152 C 
ATOM      4  S   UNL     1      -0.205  -4.519  -1.540  0.00  0.00    -0.031 S 
ATOM      5  O   UNL     1      -1.088  -5.591  -1.842  0.00  0.00    -0.174 OA
ATOM      6  O   UNL     1       1.134  -4.795  -1.154  0.00  0.00    -0.174 OA
ATOM      7  C   UNL     1      -0.987  -3.415  -0.288  0.00  0.00    +0.186 C 
ATOM      8  C   UNL     1      -1.905  -2.547  -1.177  0.00  0.00    +0.084 C 
BRANCH   2   9
ATOM      9  N   UNL     1      -1.214  -1.084  -2.989  0.00  0.00    +0.386 N 
ATOM     10  H   UNL     1      -1.893  -0.484  -2.507  0.00  0.00    -0.085 HD
ATOM     11  H   UNL     1      -0.263  -0.830  -2.696  0.00  0.00    -0.085 HD
BRANCH   9  12
ATOM     12  C   UNL     1      -1.342  -0.891  -4.446  0.00  0.00    -0.046 C 
BRANCH  12  16
ATOM     13  C   UNL     1      -0.581   3.206  -5.387  0.00  0.00    +0.000 A 
ATOM     14  C   UNL     1       0.460   2.296  -5.370  0.00  0.00    +0.000 A 
ATOM     15  C   UNL     1       0.214   0.970  -5.065  0.00  0.00    +0.002 A 
ATOM     16  C   UNL     1      -1.073   0.554  -4.778  0.00  0.00    -0.064 A 
ATOM     17  C   UNL     1      -2.114   1.464  -4.801  0.00  0.00    +0.002 A 
ATOM     18  C   UNL     1      -1.867   2.790  -5.100  0.00  0.00    +0.000 A 
ENDBRANCH  12  16
ENDBRANCH   9  12
ENDBRANCH   2   9
ENDBRANCH   1   8
BRANCH   1  19
ATOM     19  C   UNL     1      -2.840  -0.299  -1.078  0.00  0.00    +0.138 C 
ATOM     20  S   UNL     1      -3.927  -0.739  -2.325  0.00  0.00    -0.018 S 
BRANCH  19  21
ATOM     21  N   UNL     1      -2.903   0.931  -0.531  0.00  0.00    -0.297 N 
ATOM     22  H   UNL     1      -2.238   1.208   0.118  0.00  0.00    +0.154 HD
BRANCH  21  23
ATOM     23  C   UNL     1      -3.929   1.809  -0.901  0.00  0.00    +0.033 A 
ATOM     24  C   UNL     1      -3.655   3.157  -1.092  0.00  0.00    +0.023 A 
ATOM     25  C   UNL     1      -4.669   4.019  -1.461  0.00  0.00    +0.002 A 
ATOM     26  C   UNL     1      -5.957   3.544  -1.630  0.00  0.00    +0.000 A 
ATOM     27  C   UNL     1      -6.233   2.203  -1.435  0.00  0.00    +0.002 A 
ATOM     28  C   UNL     1      -5.223   1.334  -1.071  0.00  0.00    +0.023 A 
ENDBRANCH  21  23
ENDBRANCH  19  21
ENDBRANCH   1  19
BRANCH   1  29
ATOM     29  C   UNL     1      -0.935  -0.780   0.364  0.00  0.00    +0.142 C 
BRANCH  29  30
ATOM     30  C   UNL     1       0.347  -0.381  -0.319  0.00  0.00    -0.030 A 
ATOM     31  C   UNL     1       0.490   0.894  -0.832  0.00  0.00    +0.005 A 
ATOM     32  C   UNL     1       1.667   1.260  -1.458  0.00  0.00    +0.000 A 
ATOM     33  C   UNL     1       2.701   0.349  -1.572  0.00  0.00    +0.000 A 
ATOM     34  C   UNL     1       2.559  -0.926  -1.058  0.00  0.00    +0.000 A 
ATOM     35  C   UNL     1       1.382  -1.291  -0.431  0.00  0.00    +0.005 A 
ENDBRANCH  29  30
ENDBRANCH   1  29
TORSDOF 9
