REMARK  Name = ZINC15276521
REMARK  11 active torsions:
REMARK  status: ('A' for Active; 'I' for Inactive)
REMARK    1  A    between atoms: C_1  and  C_2
REMARK    2  A    between atoms: C_2  and  O_3
REMARK    3  A    between atoms: O_3  and  C_4
REMARK    4  A    between atoms: C_6  and  C_11
REMARK    5  A    between atoms: C_9  and  O_10
REMARK    6  A    between atoms: C_16  and  C_21
REMARK    7  A    between atoms: C_27  and  C_39
REMARK    8  A    between atoms: C_28  and  C_29
REMARK    9  A    between atoms: C_29  and  O_31
REMARK   10  A    between atoms: O_31  and  C_32
REMARK   11  A    between atoms: C_32  and  C_33
REMARK                            x       y       z     vdW  Elec       q    Type
REMARK                         _______ _______ _______ _____ _____    ______ ____
ROOT
ATOM      1  C   UNL     1      -2.559   3.864   0.047  0.00  0.00    +0.092 C 
ATOM      2  C   UNL     1      -3.318   3.489   1.295  0.00  0.00    +0.024 C 
ATOM      3  C   UNL     1      -4.344   2.613   1.241  0.00  0.00    +0.016 C 
ATOM      4  C   UNL     1      -5.110   2.235   2.485  0.00  0.00    +0.060 C 
ATOM      5  C   UNL     1      -4.184   2.308   3.701  0.00  0.00    +0.039 C 
ATOM      6  C   UNL     1      -3.624   3.731   3.800  0.00  0.00    +0.088 C 
ATOM      7  C   UNL     1      -2.927   4.073   2.512  0.00  0.00    +0.162 C 
ATOM      8  O   UNL     1      -2.009   4.870   2.524  0.00  0.00    -0.292 OA
ATOM      9  N   UNL     1      -4.714   2.049   0.049  0.00  0.00    -0.321 N 
ATOM     10  C   UNL     1      -4.357   2.629  -1.136  0.00  0.00    +0.016 C 
ATOM     11  C   UNL     1      -3.337   3.503  -1.184  0.00  0.00    +0.065 C 
ATOM     12  C   UNL     1      -5.110   2.285  -2.395  0.00  0.00    +0.061 C 
ATOM     13  H   UNL     1      -5.305   1.122   0.040  0.00  0.00    +0.152 HD
ENDROOT
BRANCH   1  16
ATOM     14  C   UNL     1       1.155   3.176   0.008  0.00  0.00    +0.162 A 
ATOM     15  C   UNL     1      -0.057   3.846   0.023  0.00  0.00    +0.054 A 
ATOM     16  C   UNL     1      -1.241   3.133   0.031  0.00  0.00    -0.032 A 
ATOM     17  C   UNL     1      -1.219   1.751   0.017  0.00  0.00    +0.008 A 
ATOM     18  C   UNL     1      -0.013   1.076   0.008  0.00  0.00    +0.049 A 
ATOM     19  C   UNL     1       1.178   1.785   0.000  0.00  0.00    +0.158 A 
BRANCH  19  20
ATOM     20  O   UNL     1       2.365   1.123  -0.015  0.00  0.00    -0.503 OA
ATOM     21  H   UNL     1       2.382   0.023  -0.021  0.00  0.00    +0.292 HD
ENDBRANCH  19  20
BRANCH  14  22
ATOM     22  O   UNL     1       2.321   3.877   0.001  0.00  0.00    -0.489 OA
BRANCH  22  24
ATOM     23  C   UNL     1       3.625   5.912   0.000  0.00  0.00    +0.048 C 
ATOM     24  C   UNL     1       2.222   5.302   0.010  0.00  0.00    +0.226 C 
ENDBRANCH  22  24
ENDBRANCH  14  22
ENDBRANCH   1  16
BRANCH   5  25
ATOM     25  C   UNL     1      -4.957   1.980   4.952  0.00  0.00    -0.006 A 
ATOM     26  C   UNL     1      -4.747   0.986   5.850  0.00  0.00    +0.011 A 
ATOM     27  C   UNL     1      -5.591   0.876   6.938  0.00  0.00    +0.008 A 
ATOM     28  C   UNL     1      -6.612   1.758   7.070  0.00  0.00    +0.045 A 
ATOM     29  S   UNL     1      -6.394   2.793   5.631  0.00  0.00    -0.101 S 
ENDBRANCH   5  25
BRANCH  11  30
ATOM     30  C   UNL     1      -2.992   4.095  -2.422  0.00  0.00    +0.338 C 
ATOM     31  O   UNL     1      -3.615   3.811  -3.427  0.00  0.00    -0.245 OA
BRANCH  30  32
ATOM     32  O   UNL     1      -1.971   4.975  -2.487  0.00  0.00    -0.459 OA
BRANCH  32  33
ATOM     33  C   UNL     1      -1.677   5.534  -3.769  0.00  0.00    +0.264 C 
BRANCH  33  34
ATOM     34  C   UNL     1      -0.498   6.502  -3.645  0.00  0.00    +0.156 C 
ATOM     35  C   UNL     1      -0.128   7.078  -5.035  0.00  0.00    +0.037 C 
ATOM     36  C   UNL     1       0.553   8.413  -4.628  0.00  0.00    +0.031 C 
ATOM     37  C   UNL     1      -0.250   8.822  -3.374  0.00  0.00    +0.160 C 
ATOM     38  O   UNL     1      -0.870   7.641  -2.853  0.00  0.00    -0.373 OA
ENDBRANCH  33  34
ENDBRANCH  32  33
ENDBRANCH  30  32
ENDBRANCH  11  30
TORSDOF 9
