REMARK  Name = ZINC38573881
REMARK  11 active torsions:
REMARK  status: ('A' for Active; 'I' for Inactive)
REMARK    1  A    between atoms: C_1  and  O_2
REMARK    2  A    between atoms: O_2  and  C_3
REMARK    3  A    between atoms: C_5  and  C_11
REMARK    4  A    between atoms: C_7  and  O_9
REMARK    5  A    between atoms: O_9  and  C_10
REMARK    6  A    between atoms: N_13  and  C_14
REMARK    7  A    between atoms: C_14  and  C_16
REMARK    8  A    between atoms: C_14  and  C_20
REMARK    9  A    between atoms: C_16  and  C_17
REMARK   10  A    between atoms: C_17  and  S_18
REMARK   11  A    between atoms: S_18  and  C_19
REMARK                            x       y       z     vdW  Elec       q    Type
REMARK                         _______ _______ _______ _____ _____    ______ ____
ROOT
ATOM      1  C   UNL     1       1.984  -6.139  -3.427  0.00  0.00    +0.160 C 
ENDROOT
BRANCH   1   2
ATOM      2  C   UNL     1       3.137  -6.466  -4.341  0.00  0.00    +0.236 C 
ATOM      3  O   UNL     1       3.643  -5.593  -5.014  0.00  0.00    -0.274 OA
ATOM      4  N   UNL     1       3.605  -7.728  -4.410  0.00  0.00    -0.300 N 
ATOM      5  C   UNL     1       2.931  -8.817  -3.690  0.00  0.00    +0.106 C 
ATOM      6  C   UNL     1       2.610  -9.938  -4.683  0.00  0.00    +0.009 C 
ATOM      7  C   UNL     1       3.890 -10.358  -5.405  0.00  0.00    -0.037 C 
ATOM      8  C   UNL     1       4.459  -9.171  -6.183  0.00  0.00    +0.009 C 
ATOM      9  C   UNL     1       4.796  -8.041  -5.211  0.00  0.00    +0.106 C 
ATOM     10  C   UNL     1       3.584 -11.506  -6.368  0.00  0.00    +0.140 C 
ATOM     11  C   UNL     1       3.154 -12.677  -5.490  0.00  0.00    +0.042 C 
ATOM     12  N   UNL     1       2.000 -13.027  -5.906  0.00  0.00    -0.243 NA
ATOM     13  C   UNL     1       1.547 -12.200  -6.881  0.00  0.00    +0.216 C 
ATOM     14  N   UNL     1       2.407 -11.256  -7.202  0.00  0.00    -0.264 NA
ATOM     15  C   UNL     1       3.985 -13.125  -4.314  0.00  0.00    +0.034 C 
ATOM     16  C   UNL     1       4.329 -11.846  -3.527  0.00  0.00    -0.076 C 
ATOM     17  N   UNL     1       4.879 -10.827  -4.424  0.00  0.00    +0.385 N 
ATOM     18  H   UNL     1       5.670 -11.216  -4.916  0.00  0.00    -0.085 HD
ATOM     19  H   UNL     1       5.192 -10.041  -3.874  0.00  0.00    -0.085 HD
ENDBRANCH   1   2
BRANCH   1  22
ATOM     20  C   UNL     1       1.487  -4.321  -1.883  0.00  0.00    +0.245 C 
ATOM     21  O   UNL     1       0.914  -5.121  -1.171  0.00  0.00    -0.270 OA
ATOM     22  N   UNL     1       2.056  -4.729  -3.035  0.00  0.00    -0.300 N 
ATOM     23  H   UNL     1       2.514  -4.090  -3.603  0.00  0.00    +0.150 HD
BRANCH  20  26
ATOM     24  C   UNL     1       1.044  -1.139   0.073  0.00  0.00    +0.124 A 
ATOM     25  C   UNL     1       0.972  -2.473  -0.295  0.00  0.00    +0.059 A 
ATOM     26  C   UNL     1       1.560  -2.898  -1.487  0.00  0.00    +0.044 A 
ATOM     27  C   UNL     1       2.219  -1.977  -2.303  0.00  0.00    +0.059 A 
ATOM     28  C   UNL     1       2.285  -0.646  -1.927  0.00  0.00    +0.124 A 
ATOM     29  C   UNL     1       1.694  -0.226  -0.745  0.00  0.00    +0.091 A 
BRANCH  24  31
ATOM     30  C   UNL     1       0.577   0.666   1.548  0.00  0.00    +0.277 C 
ATOM     31  O   UNL     1       0.471  -0.724   1.233  0.00  0.00    -0.495 OA
ENDBRANCH  24  31
BRANCH  28  32
ATOM     32  O   UNL     1       2.926   0.252  -2.721  0.00  0.00    -0.495 OA
ATOM     33  C   UNL     1       2.957   1.609  -2.273  0.00  0.00    +0.277 C 
ENDBRANCH  28  32
ENDBRANCH  20  26
ENDBRANCH   1  22
BRANCH   1  34
ATOM     34  C   UNL     1       0.665  -6.397  -4.159  0.00  0.00    +0.042 C 
BRANCH  34  35
ATOM     35  C   UNL     1      -0.502  -6.204  -3.188  0.00  0.00    +0.071 C 
BRANCH  35  36
ATOM     36  S   UNL     1      -2.066  -6.510  -4.055  0.00  0.00    -0.164 S 
ATOM     37  C   UNL     1      -3.332  -6.243  -2.784  0.00  0.00    +0.084 C 
ENDBRANCH  35  36
ENDBRANCH  34  35
ENDBRANCH   1  34
TORSDOF 8
