REMARK  Name = ZINC12710183
REMARK  10 active torsions:
REMARK  status: ('A' for Active; 'I' for Inactive)
REMARK    1  A    between atoms: C_1  and  C_2
REMARK    2  A    between atoms: C_6  and  N_9
REMARK    3  A    between atoms: C_7  and  C_8
REMARK    4  A    between atoms: N_9  and  C_10
REMARK    5  A    between atoms: C_10  and  C_11
REMARK    6  A    between atoms: N_13  and  C_14
REMARK    7  A    between atoms: C_20  and  C_22
REMARK    8  A    between atoms: C_23  and  N_36
REMARK    9  A    between atoms: C_24  and  C_27
REMARK   10  A    between atoms: N_29  and  C_30
REMARK                            x       y       z     vdW  Elec       q    Type
REMARK                         _______ _______ _______ _____ _____    ______ ____
ROOT
ATOM      1  N   UNL     1       4.602   0.550   1.423  0.00  0.00    -0.258 N 
ATOM      2  C   UNL     1       5.219  -0.485   0.820  0.00  0.00    +0.261 C 
ATOM      3  O   UNL     1       5.064  -0.675  -0.373  0.00  0.00    -0.269 OA
ENDROOT
BRANCH   1   9
ATOM      4  C   UNL     1       7.114   2.671   5.078  0.00  0.00    +0.044 C 
ATOM      5  C   UNL     1       5.990   1.792   4.592  0.00  0.00    -0.046 A 
ATOM      6  C   UNL     1       5.133   1.201   5.503  0.00  0.00    +0.004 A 
ATOM      7  C   UNL     1       4.101   0.394   5.061  0.00  0.00    +0.002 A 
ATOM      8  C   UNL     1       3.922   0.176   3.709  0.00  0.00    +0.024 A 
ATOM      9  C   UNL     1       4.780   0.769   2.793  0.00  0.00    +0.040 A 
ATOM     10  C   UNL     1       5.820   1.574   3.240  0.00  0.00    -0.026 A 
ATOM     11  C   UNL     1       6.758   2.215   2.249  0.00  0.00    +0.046 C 
ENDBRANCH   1   9
BRANCH   2  12
ATOM     12  C   UNL     1       6.076  -1.381   1.598  0.00  0.00    +0.116 A 
ATOM     13  C   UNL     1       6.800  -2.499   1.179  0.00  0.00    +0.076 A 
ATOM     14  C   UNL     1       7.504  -3.101   2.222  0.00  0.00    +0.156 A 
ATOM     15  N   UNL     1       7.425  -2.590   3.431  0.00  0.00    -0.203 NA
ATOM     16  S   UNL     1       6.480  -1.332   3.332  0.00  0.00    +0.019 S 
BRANCH  14  17
ATOM     17  C   UNL     1       8.327  -4.298   1.972  0.00  0.00    +0.265 C 
ATOM     18  O   UNL     1       8.395  -4.766   0.852  0.00  0.00    -0.268 OA
ATOM     19  N   UNL     1       9.005  -4.874   2.985  0.00  0.00    -0.307 N 
ATOM     20  H   UNL     1       8.951  -4.500   3.879  0.00  0.00    +0.149 HD
BRANCH  19  21
ATOM     21  C   UNL     1       9.823  -6.063   2.736  0.00  0.00    +0.073 C 
ATOM     22  C   UNL     1       8.943  -7.312   2.809  0.00  0.00    +0.022 C 
ATOM     23  C   UNL     1       9.797  -8.554   2.550  0.00  0.00    +0.002 C 
ATOM     24  C   UNL     1      10.900  -8.645   3.606  0.00  0.00    +0.000 C 
ATOM     25  C   UNL     1      11.780  -7.396   3.533  0.00  0.00    +0.002 C 
ATOM     26  C   UNL     1      10.926  -6.154   3.793  0.00  0.00    +0.022 C 
ENDBRANCH  19  21
ENDBRANCH  14  17
BRANCH  13  27
ATOM     27  N   UNL     1       6.816  -2.961  -0.130  0.00  0.00    -0.355 N 
ATOM     28  H   UNL     1       6.305  -2.500  -0.813  0.00  0.00    +0.142 HD
ATOM     29  H   UNL     1       7.339  -3.744  -0.361  0.00  0.00    +0.142 HD
ENDBRANCH  13  27
ENDBRANCH   2  12
BRANCH   1  30
ATOM     30  C   UNL     1       3.745   1.447   0.644  0.00  0.00    +0.209 C 
BRANCH  30  31
ATOM     31  C   UNL     1       2.331   0.926   0.654  0.00  0.00    +0.231 C 
ATOM     32  O   UNL     1       2.066  -0.095   1.254  0.00  0.00    -0.274 OA
ATOM     33  N   UNL     1       1.362   1.593  -0.002  0.00  0.00    -0.311 N 
ATOM     34  H   UNL     1       1.574   2.409  -0.482  0.00  0.00    +0.149 HD
BRANCH  33  35
ATOM     35  C   UNL     1      -0.013   1.086   0.008  0.00  0.00    +0.073 C 
ATOM     36  C   UNL     1      -0.729   1.579   1.267  0.00  0.00    +0.022 C 
ATOM     37  C   UNL     1      -2.164   1.050   1.278  0.00  0.00    +0.002 C 
ATOM     38  C   UNL     1      -2.904   1.556   0.038  0.00  0.00    +0.000 C 
ATOM     39  C   UNL     1      -2.188   1.063  -1.221  0.00  0.00    +0.002 C 
ATOM     40  C   UNL     1      -0.753   1.593  -1.232  0.00  0.00    +0.022 C 
ENDBRANCH  33  35
ENDBRANCH  30  31
ENDBRANCH   1  30
TORSDOF 8
