REMARK  Name = ZINC06927175
REMARK  3 active torsions:
REMARK  status: ('A' for Active; 'I' for Inactive)
REMARK    1  A    between atoms: C_4  and  O_24
REMARK    2  A    between atoms: C_5  and  C_7
REMARK    3  A    between atoms: N_8  and  O_23
REMARK                            x       y       z     vdW  Elec       q    Type
REMARK                         _______ _______ _______ _____ _____    ______ ____
ROOT
ATOM      1  C   UNL     1       0.019  -4.269  -0.022  0.00  0.00    +0.201 A 
ATOM      2  N   UNL     1       1.132  -3.492  -0.195  0.00  0.00    -0.162 N 
ATOM      3  C   UNL     1       0.728  -2.178  -0.121  0.00  0.00    +0.118 A 
ATOM      4  C   UNL     1      -0.651  -2.204   0.100  0.00  0.00    +0.122 A 
ATOM      5  N   UNL     1      -1.026  -3.493   0.150  0.00  0.00    -0.110 N 
ATOM      6  O   UNL     1      -2.351  -3.947   0.359  0.00  0.00    -0.162 OA
ATOM      7  C   UNL     1      -1.125  -0.808   0.186  0.00  0.00    +0.012 A 
ATOM      8  C   UNL     1      -2.328  -0.154   0.384  0.00  0.00    +0.011 A 
ATOM      9  C   UNL     1      -2.365   1.240   0.400  0.00  0.00    +0.001 A 
ATOM     10  C   UNL     1      -1.252   2.018   0.232  0.00  0.00    +0.008 A 
ATOM     11  C   UNL     1      -0.011   1.392   0.023  0.00  0.00    -0.017 A 
ATOM     12  C   UNL     1       0.006  -0.004   0.010  0.00  0.00    +0.001 A 
ATOM     13  C   UNL     1       1.161  -0.777  -0.180  0.00  0.00    +0.012 A 
ATOM     14  C   UNL     1       2.349  -0.085  -0.366  0.00  0.00    +0.011 A 
ATOM     15  C   UNL     1       2.347   1.309  -0.355  0.00  0.00    +0.001 A 
ATOM     16  C   UNL     1       1.213   2.054  -0.169  0.00  0.00    +0.008 A 
ENDROOT
BRANCH   1  21
ATOM     17  C   UNL     1      -0.962  -7.809  -0.800  0.00  0.00    +0.001 A 
ATOM     18  C   UNL     1      -0.046  -8.519  -0.041  0.00  0.00    +0.004 A 
ATOM     19  C   UNL     1       0.891  -7.852   0.726  0.00  0.00    +0.046 A 
ATOM     20  C   UNL     1       0.924  -6.467   0.734  0.00  0.00    +0.128 A 
ATOM     21  C   UNL     1      -0.004  -5.746  -0.028  0.00  0.00    +0.063 A 
ATOM     22  C   UNL     1      -0.946  -6.430  -0.798  0.00  0.00    +0.015 A 
BRANCH  20  23
ATOM     23  O   UNL     1       1.848  -5.812   1.482  0.00  0.00    -0.506 OA
ATOM     24  H   UNL     1       1.589  -5.684   2.405  0.00  0.00    +0.292 HD
ENDBRANCH  20  23
ENDBRANCH   1  21
BRANCH   2  25
ATOM     25  O   UNL     1       2.454  -3.953  -0.409  0.00  0.00    -0.424 OA
ATOM     26  H   UNL     1       2.682  -4.075  -1.341  0.00  0.00    +0.326 HD
ENDBRANCH   2  25
TORSDOF 3
