REMARK  Name = ZINC31043948
REMARK  11 active torsions:
REMARK  status: ('A' for Active; 'I' for Inactive)
REMARK    1  A    between atoms: C_1  and  C_2
REMARK    2  A    between atoms: C_2  and  C_4
REMARK    3  A    between atoms: C_2  and  N_14
REMARK    4  A    between atoms: C_4  and  C_5
REMARK    5  A    between atoms: C_5  and  C_6
REMARK    6  A    between atoms: C_5  and  C_7
REMARK    7  A    between atoms: C_5  and  C_8
REMARK    8  A    between atoms: C_15  and  C_17
REMARK    9  A    between atoms: N_22  and  C_24
REMARK   10  A    between atoms: C_24  and  C_25
REMARK   11  A    between atoms: C_27  and  C_30
REMARK                            x       y       z     vdW  Elec       q    Type
REMARK                         _______ _______ _______ _____ _____    ______ ____
ROOT
ATOM      1  C   UNL     1      -0.117   9.640  -2.595  0.00  0.00    +0.058 C 
ATOM      2  C   UNL     1      -1.254   9.658  -3.620  0.00  0.00    +0.009 C 
ATOM      3  C   UNL     1      -0.747  10.286  -4.921  0.00  0.00    -0.018 C 
ATOM      4  C   UNL     1      -0.227  11.696  -4.632  0.00  0.00    -0.078 C 
ATOM      5  N   UNL     1       0.860  11.626  -3.646  0.00  0.00    +0.386 N 
ATOM      6  C   UNL     1       0.386  11.069  -2.373  0.00  0.00    -0.065 C 
ATOM      7  H   UNL     1       1.629  10.947  -4.043  0.00  0.00    -0.081 HD
ENDROOT
BRANCH   1   9
ATOM      8  N   UNL     1      -1.117   7.824  -1.246  0.00  0.00    -0.313 N 
ATOM      9  C   UNL     1      -0.623   9.077  -1.292  0.00  0.00    +0.215 C 
ATOM     10  O   UNL     1      -0.586   9.751  -0.284  0.00  0.00    -0.276 OA
ATOM     11  H   UNL     1      -1.150   7.212  -2.160  0.00  0.00    +0.149 HD
BRANCH   8  13
ATOM     12  C   UNL     1      -3.064   7.700   0.228  0.00  0.00    +0.028 C 
ATOM     13  C   UNL     1      -1.609   7.276   0.021  0.00  0.00    +0.071 C 
BRANCH  13  14
ATOM     14  C   UNL     1      -1.523   5.749  -0.017  0.00  0.00    +0.033 C 
BRANCH  14  15
ATOM     15  C   UNL     1      -0.054   5.321  -0.055  0.00  0.00    -0.008 C 
ATOM     16  C   UNL     1       0.693   5.956   1.119  0.00  0.00    +0.016 C 
ATOM     17  C   UNL     1       0.577   5.783  -1.370  0.00  0.00    +0.016 C 
BRANCH  15  18
ATOM     18  C   UNL     1       0.035   3.820   0.045  0.00  0.00    -0.042 A 
ATOM     19  C   UNL     1       1.270   3.199   0.031  0.00  0.00    +0.004 A 
ATOM     20  C   UNL     1       1.351   1.822   0.122  0.00  0.00    +0.000 A 
ATOM     21  C   UNL     1       0.199   1.067   0.228  0.00  0.00    +0.000 A 
ATOM     22  C   UNL     1      -1.036   1.688   0.237  0.00  0.00    +0.000 A 
ATOM     23  C   UNL     1      -1.118   3.065   0.151  0.00  0.00    +0.004 A 
ENDBRANCH  15  18
ENDBRANCH  14  15
ENDBRANCH  13  14
ENDBRANCH   8  13
ENDBRANCH   1   9
BRANCH   5  24
ATOM     24  C   UNL     1       1.476  12.944  -3.447  0.00  0.00    +0.022 C 
BRANCH  24  25
ATOM     25  C   UNL     1       1.726  13.589  -4.786  0.00  0.00    +0.211 A 
ATOM     26  N   UNL     1       0.897  14.360  -5.445  0.00  0.00    -0.193 NA
ATOM     27  C   UNL     1       1.546  14.703  -6.581  0.00  0.00    +0.202 A 
ATOM     28  N   UNL     1       2.715  14.119  -6.549  0.00  0.00    -0.056 NA
ATOM     29  O   UNL     1       2.833  13.477  -5.527  0.00  0.00    -0.340 OA
BRANCH  27  30
ATOM     30  C   UNL     1       1.025  15.575  -7.663  0.00  0.00    +0.023 A 
ATOM     31  C   UNL     1      -0.250  16.127  -7.563  0.00  0.00    +0.013 A 
ATOM     32  C   UNL     1      -0.727  16.942  -8.570  0.00  0.00    +0.016 A 
ATOM     33  C   UNL     1       0.054  17.201  -9.683  0.00  0.00    +0.018 A 
ATOM     34  C   UNL     1       1.319  16.649  -9.790  0.00  0.00    +0.016 A 
ATOM     35  C   UNL     1       1.808  15.838  -8.786  0.00  0.00    +0.013 A 
ATOM     36 BR   UNL     1      -0.609  18.312 -11.062  0.00  0.00    -0.050 Br
ENDBRANCH  27  30
ENDBRANCH  24  25
ENDBRANCH   5  24
TORSDOF 8
