REMARK  Name = ZINC03071445
REMARK  11 active torsions:
REMARK  status: ('A' for Active; 'I' for Inactive)
REMARK    1  A    between atoms: C_1  and  C_2
REMARK    2  A    between atoms: C_7  and  N_8
REMARK    3  A    between atoms: N_8  and  C_9
REMARK    4  A    between atoms: N_8  and  S_24
REMARK    5  A    between atoms: C_9  and  C_10
REMARK    6  A    between atoms: N_12  and  N_13
REMARK    7  A    between atoms: C_14  and  C_15
REMARK    8  A    between atoms: C_14  and  C_16
REMARK    9  A    between atoms: C_18  and  O_23
REMARK   10  A    between atoms: C_21  and  O_22
REMARK   11  A    between atoms: S_24  and  C_27
REMARK                            x       y       z     vdW  Elec       q    Type
REMARK                         _______ _______ _______ _____ _____    ______ ____
ROOT
ATOM      1  C   UNL     1       5.039  -0.371  -1.776  0.00  0.00    +0.228 C 
ENDROOT
BRANCH   1   2
ATOM      2  C   UNL     1       6.419  -0.906  -1.493  0.00  0.00    +0.251 C 
ATOM      3  O   UNL     1       6.553  -1.964  -0.915  0.00  0.00    -0.272 OA
ATOM      4  N   UNL     1       7.505  -0.209  -1.883  0.00  0.00    -0.205 N 
ATOM      5  H   UNL     1       7.384   0.750  -2.408  0.00  0.00    +0.177 HD
BRANCH   4   6
ATOM      6  N   UNL     1       8.788  -0.706  -1.620  0.00  0.00    -0.184 NA
ATOM      7  C   UNL     1       9.834  -0.035  -1.996  0.00  0.00    +0.067 C 
ATOM      8  C   UNL     1       9.668   1.279  -2.714  0.00  0.00    +0.068 C 
BRANCH   7   9
ATOM      9  C   UNL     1      11.183  -0.558  -1.719  0.00  0.00    +0.042 A 
ATOM     10  C   UNL     1      12.311   0.158  -2.127  0.00  0.00    +0.058 A 
ATOM     11  C   UNL     1      13.575  -0.336  -1.859  0.00  0.00    +0.118 A 
ATOM     12  C   UNL     1      13.724  -1.548  -1.196  0.00  0.00    +0.049 A 
ATOM     13  C   UNL     1      12.613  -2.265  -0.795  0.00  0.00    +0.049 A 
ATOM     14  C   UNL     1      11.342  -1.780  -1.051  0.00  0.00    +0.126 A 
BRANCH  14  15
ATOM     15  O   UNL     1      10.251  -2.486  -0.656  0.00  0.00    -0.506 OA
ATOM     16  H   UNL     1      10.376  -3.445  -0.132  0.00  0.00    +0.292 HD
ENDBRANCH  14  15
BRANCH  11  17
ATOM     17  O   UNL     1      14.674   0.363  -2.250  0.00  0.00    -0.507 OA
ATOM     18  H   UNL     1      15.679  -0.029  -2.038  0.00  0.00    +0.292 HD
ENDBRANCH  11  17
ENDBRANCH   7   9
ENDBRANCH   4   6
ENDBRANCH   1   2
BRANCH   1  19
ATOM     19  N   UNL     1       4.037  -1.305  -1.257  0.00  0.00    -0.194 N 
BRANCH  19  26
ATOM     20  C   UNL     1       1.759  -0.981  -2.930  0.00  0.00    +0.046 C 
ATOM     21  C   UNL     1       2.522  -2.279  -2.863  0.00  0.00    -0.028 A 
ATOM     22  C   UNL     1       2.121  -3.356  -3.629  0.00  0.00    +0.005 A 
ATOM     23  C   UNL     1       2.820  -4.547  -3.569  0.00  0.00    +0.000 A 
ATOM     24  C   UNL     1       3.923  -4.664  -2.743  0.00  0.00    +0.002 A 
ATOM     25  C   UNL     1       4.332  -3.590  -1.978  0.00  0.00    +0.025 A 
ATOM     26  C   UNL     1       3.629  -2.393  -2.032  0.00  0.00    +0.055 A 
ENDBRANCH  19  26
BRANCH  19  27
ATOM     27  S   UNL     1       3.389  -1.072   0.249  0.00  0.00    +0.075 S 
ATOM     28  O   UNL     1       4.385  -0.418   1.023  0.00  0.00    -0.150 OA
ATOM     29  O   UNL     1       2.812  -2.311   0.639  0.00  0.00    -0.150 OA
BRANCH  27  30
ATOM     30  C   UNL     1       2.059   0.070   0.072  0.00  0.00    +0.109 A 
ATOM     31  C   UNL     1       0.768  -0.394  -0.098  0.00  0.00    +0.029 A 
ATOM     32  C   UNL     1      -0.276   0.502  -0.237  0.00  0.00    +0.002 A 
ATOM     33  C   UNL     1      -0.029   1.861  -0.204  0.00  0.00    +0.000 A 
ATOM     34  C   UNL     1       1.262   2.325  -0.033  0.00  0.00    +0.002 A 
ATOM     35  C   UNL     1       2.306   1.430   0.105  0.00  0.00    +0.029 A 
ENDBRANCH  27  30
ENDBRANCH  19  27
ENDBRANCH   1  19
TORSDOF 9
