REMARK  Name = ZINC28955926
REMARK  6 active torsions:
REMARK  status: ('A' for Active; 'I' for Inactive)
REMARK    1  A    between atoms: C_8  and  S_10
REMARK    2  A    between atoms: S_10  and  N_13
REMARK    3  A    between atoms: N_13  and  C_14
REMARK    4  A    between atoms: C_14  and  C_15
REMARK    5  A    between atoms: C_21  and  C_23
REMARK    6  A    between atoms: N_26  and  C_29
REMARK                            x       y       z     vdW  Elec       q    Type
REMARK                         _______ _______ _______ _____ _____    ______ ____
ROOT
ATOM      1  C   UNL     1      -0.117  10.126   2.765  0.00  0.00    +0.023 C 
ATOM      2  C   UNL     1       0.094   9.065   3.878  0.00  0.00    +0.025 C 
ATOM      3  C   UNL     1       0.626   7.846   3.097  0.00  0.00    +0.108 C 
ATOM      4  N   UNL     1       1.195   8.348   1.838  0.00  0.00    -0.301 N 
ATOM      5  C   UNL     1       1.070   9.817   1.815  0.00  0.00    +0.112 C 
ATOM      6  C   UNL     1       1.746   7.592   0.868  0.00  0.00    +0.219 C 
ATOM      7  O   UNL     1       1.719   6.382   0.953  0.00  0.00    -0.275 OA
ENDROOT
BRANCH   6   8
ATOM      8  C   UNL     1       2.395   8.249  -0.323  0.00  0.00    +0.078 C 
ATOM      9  C   UNL     1       2.202   7.369  -1.561  0.00  0.00    +0.031 C 
ATOM     10  C   UNL     1       2.915   8.011  -2.754  0.00  0.00    +0.106 C 
ATOM     11  N   UNL     1       4.344   8.156  -2.451  0.00  0.00    -0.330 N 
ATOM     12  C   UNL     1       4.556   9.035  -1.294  0.00  0.00    +0.106 C 
ATOM     13  C   UNL     1       3.893   8.423  -0.059  0.00  0.00    +0.031 C 
BRANCH  11  14
ATOM     14  C   UNL     1       5.045   8.615  -3.562  0.00  0.00    +0.032 A 
ATOM     15  C   UNL     1       6.423   8.826  -3.502  0.00  0.00    +0.040 A 
ATOM     16  C   UNL     1       7.080   9.282  -4.625  0.00  0.00    +0.084 A 
ATOM     17  N   UNL     1       6.423   9.518  -5.745  0.00  0.00    -0.367 N 
ATOM     18  C   UNL     1       5.120   9.331  -5.842  0.00  0.00    +0.084 A 
ATOM     19  C   UNL     1       4.388   8.878  -4.764  0.00  0.00    +0.040 A 
ATOM     20  H   UNL     1       6.961   9.881  -6.633  0.00  0.00    +0.165 HD
ENDBRANCH  11  14
ENDBRANCH   6   8
BRANCH   1  21
ATOM     21  C   UNL     1      -0.010  11.543   3.331  0.00  0.00    +0.111 C 
BRANCH  21  22
ATOM     22  N   UNL     1      -1.125  11.788   4.250  0.00  0.00    -0.189 NA
ATOM     23  H   UNL     1      -2.061  11.221   4.141  0.00  0.00    +0.148 HD
BRANCH  22  24
ATOM     24  S   UNL     1      -1.075  13.077   5.287  0.00  0.00    +0.065 S 
ATOM     25  O   UNL     1      -2.295  13.060   6.016  0.00  0.00    -0.153 OA
ATOM     26  O   UNL     1       0.194  13.037   5.925  0.00  0.00    -0.153 OA
BRANCH  24  34
ATOM     27  C   UNL     1      -2.920  17.302   2.515  0.00  0.00    +0.010 A 
ATOM     28  C   UNL     1      -2.542  18.377   1.774  0.00  0.00    +0.020 A 
ATOM     29  C   UNL     1      -1.204  18.655   1.528  0.00  0.00    +0.042 A 
ATOM     30  C   UNL     1      -0.230  17.824   2.049  0.00  0.00    +0.035 A 
ATOM     31  C   UNL     1      -0.601  16.732   2.802  0.00  0.00    +0.023 A 
ATOM     32  C   UNL     1      -1.954  16.427   3.066  0.00  0.00    -0.009 A 
ATOM     33  C   UNL     1      -2.161  15.233   3.874  0.00  0.00    +0.045 A 
ATOM     34  C   UNL     1      -1.098  14.539   4.303  0.00  0.00    +0.144 A 
ATOM     35  S   UNL     1       0.287  15.441   3.635  0.00  0.00    -0.068 S 
ATOM     36 CL   UNL     1      -0.757  20.036   0.576  0.00  0.00    -0.084 Cl
ENDBRANCH  24  34
ENDBRANCH  22  24
ENDBRANCH  21  22
ENDBRANCH   1  21
TORSDOF 6
