REMARK  Name = ZINC63173576
REMARK  3 active torsions:
REMARK  status: ('A' for Active; 'I' for Inactive)
REMARK    1  A    between atoms: C_10  and  C_12
REMARK    2  A    between atoms: N_14  and  C_15
REMARK    3  A    between atoms: C_20  and  N_22
REMARK                            x       y       z     vdW  Elec       q    Type
REMARK                         _______ _______ _______ _____ _____    ______ ____
ROOT
ATOM      1  C   UNL     1       5.033  -2.487   0.527  0.00  0.00    +0.280 C 
ATOM      2  O   UNL     1       5.143  -3.668   0.791  0.00  0.00    -0.267 OA
ATOM      3  N   UNL     1       6.125  -1.699   0.499  0.00  0.00    -0.308 N 
ATOM      4  H   UNL     1       6.038  -0.756   0.288  0.00  0.00    +0.149 HD
ENDROOT
BRANCH   1  14
ATOM      5  C   UNL     1      -0.017   1.363   0.009  0.00  0.00    +0.001 A 
ATOM      6  C   UNL     1       1.171   2.081   0.002  0.00  0.00    +0.004 A 
ATOM      7  C   UNL     1       2.388   1.433  -0.017  0.00  0.00    +0.047 A 
ATOM      8  C   UNL     1       2.431   0.043  -0.027  0.00  0.00    +0.139 A 
ATOM      9  C   UNL     1       1.223  -0.676  -0.013  0.00  0.00    +0.064 A 
ATOM     10  C   UNL     1       0.002  -0.004   0.002  0.00  0.00    +0.015 A 
ATOM     11  C   UNL     1       1.293  -2.151  -0.006  0.00  0.00    +0.193 A 
ATOM     12  O   UNL     1       0.314  -2.845  -0.216  0.00  0.00    -0.287 OA
ATOM     13  C   UNL     1       2.618  -2.733   0.270  0.00  0.00    +0.103 A 
ATOM     14  C   UNL     1       3.698  -1.914   0.234  0.00  0.00    +0.193 A 
ATOM     15  O   UNL     1       3.609  -0.609  -0.054  0.00  0.00    -0.450 OA
ENDBRANCH   1  14
BRANCH   3  16
ATOM     16  C   UNL     1       7.445  -2.265   0.788  0.00  0.00    +0.059 C 
ATOM     17  C   UNL     1       7.749  -2.204   2.306  0.00  0.00    +0.020 C 
ATOM     18  C   UNL     1       9.289  -2.232   2.385  0.00  0.00    +0.000 C 
ATOM     19  C   UNL     1       9.808  -1.712   1.034  0.00  0.00    -0.014 C 
ATOM     20  C   UNL     1       8.565  -1.388   0.176  0.00  0.00    -0.055 C 
BRANCH  20  21
ATOM     21  N   UNL     1       8.795  -1.754  -1.228  0.00  0.00    +0.381 N 
ATOM     22  H   UNL     1       7.946  -1.617  -1.755  0.00  0.00    -0.090 HD
ATOM     23  H   UNL     1       9.526  -1.175  -1.612  0.00  0.00    -0.090 HD
ATOM     24  H   UNL     1       9.071  -2.724  -1.282  0.00  0.00    -0.090 HD
ENDBRANCH  20  21
ENDBRANCH   3  16
TORSDOF 3
