REMARK  Name = ZINC41584190
REMARK  13 active torsions:
REMARK  status: ('A' for Active; 'I' for Inactive)
REMARK    1  A    between atoms: C_1  and  C_2
REMARK    2  A    between atoms: C_2  and  C_3
REMARK    3  A    between atoms: C_3  and  C_4
REMARK    4  A    between atoms: C_4  and  N_5
REMARK    5  A    between atoms: N_5  and  C_6
REMARK    6  A    between atoms: N_5  and  C_10
REMARK    7  A    between atoms: C_6  and  C_7
REMARK    8  A    between atoms: C_7  and  C_8
REMARK    9  A    between atoms: C_8  and  C_9
REMARK   10  A    between atoms: C_10  and  C_11
REMARK   11  A    between atoms: C_12  and  O_34
REMARK   12  A    between atoms: C_14  and  C_33
REMARK   13  A    between atoms: C_19  and  C_20
REMARK                            x       y       z     vdW  Elec       q    Type
REMARK                         _______ _______ _______ _____ _____    ______ ____
ROOT
ATOM      1  C   UNL     1      -4.878  -4.010   1.369  0.00  0.00    +0.020 A 
ATOM      2  C   UNL     1      -5.601  -3.779   2.528  0.00  0.00    +0.122 A 
ATOM      3  C   UNL     1      -6.936  -4.164   2.619  0.00  0.00    +0.050 A 
ATOM      4  C   UNL     1      -7.547  -4.777   1.561  0.00  0.00    -0.033 A 
ATOM      5  C   UNL     1      -6.831  -5.016   0.388  0.00  0.00    +0.071 A 
ATOM      6  C   UNL     1      -5.485  -4.627   0.283  0.00  0.00    +0.145 A 
ATOM      7  O   UNL     1      -5.011  -4.955  -0.938  0.00  0.00    -0.451 OA
ATOM      8  C   UNL     1      -5.956  -5.552  -1.702  0.00  0.00    +0.176 C 
ATOM      9  C   UNL     1      -5.795  -6.000  -2.974  0.00  0.00    +0.061 C 
ATOM     10  C   UNL     1      -7.185  -5.639  -0.900  0.00  0.00    +0.232 C 
ATOM     11  O   UNL     1      -8.259  -6.110  -1.231  0.00  0.00    -0.283 OA
ATOM     12  C   UNL     1      -8.991  -5.194   1.662  0.00  0.00    +0.045 C 
ENDROOT
BRANCH   9  13
ATOM     13  C   UNL     1      -6.955  -6.472  -3.738  0.00  0.00    +0.022 A 
ATOM     14  C   UNL     1      -8.168  -5.775  -3.680  0.00  0.00    +0.031 A 
ATOM     15  C   UNL     1      -9.253  -6.226  -4.400  0.00  0.00    +0.042 A 
ATOM     16  C   UNL     1      -9.149  -7.369  -5.178  0.00  0.00    +0.029 A 
ATOM     17  C   UNL     1      -7.958  -8.068  -5.245  0.00  0.00    +0.022 A 
ATOM     18  C   UNL     1      -6.854  -7.624  -4.537  0.00  0.00    +0.136 A 
ATOM     19  O   UNL     1      -5.674  -8.291  -4.606  0.00  0.00    -0.465 OA
ATOM     20  C   UNL     1      -5.713  -9.625  -5.122  0.00  0.00    +0.395 C 
ATOM     21  O   UNL     1      -6.489  -9.625  -6.326  0.00  0.00    -0.339 OA
ATOM     22  C   UNL     1      -7.869  -9.310  -6.095  0.00  0.00    +0.202 C 
ATOM     23 CL   UNL     1     -10.756  -5.362  -4.330  0.00  0.00    -0.084 Cl
ENDBRANCH   9  13
BRANCH   2  24
ATOM     24  O   UNL     1      -5.003  -3.171   3.585  0.00  0.00    -0.506 OA
ATOM     25  H   UNL     1      -5.079  -2.207   3.578  0.00  0.00    +0.292 HD
ENDBRANCH   2  24
BRANCH   1  26
ATOM     26  C   UNL     1      -3.434  -3.587   1.286  0.00  0.00    -0.036 C 
BRANCH  26  27
ATOM     27  N   UNL     1      -3.343  -2.285   0.612  0.00  0.00    +0.383 N 
ATOM     28  H   UNL     1      -3.812  -2.335  -0.281  0.00  0.00    -0.081 HD
BRANCH  27  29
ATOM     29  C   UNL     1      -3.983  -1.257   1.444  0.00  0.00    -0.078 C 
BRANCH  29  30
ATOM     30  C   UNL     1      -3.999   0.073   0.689  0.00  0.00    -0.019 C 
BRANCH  30  32
ATOM     31  C   UNL     1      -4.682   2.474   0.800  0.00  0.00    +0.004 C 
ATOM     32  C   UNL     1      -4.665   1.144   1.556  0.00  0.00    -0.005 C 
ENDBRANCH  30  32
ENDBRANCH  29  30
ENDBRANCH  27  29
BRANCH  27  33
ATOM     33  C   UNL     1      -1.931  -1.938   0.404  0.00  0.00    -0.078 C 
BRANCH  33  34
ATOM     34  C   UNL     1      -1.302  -2.927  -0.580  0.00  0.00    -0.019 C 
BRANCH  34  35
ATOM     35  C   UNL     1       0.186  -2.611  -0.740  0.00  0.00    -0.005 C 
ATOM     36  C   UNL     1       0.840  -3.672  -1.627  0.00  0.00    +0.004 C 
ENDBRANCH  34  35
ENDBRANCH  33  34
ENDBRANCH  27  33
ENDBRANCH  26  27
ENDBRANCH   1  26
TORSDOF 10
