REMARK  Name = ZINC13567630
REMARK  5 active torsions:
REMARK  status: ('A' for Active; 'I' for Inactive)
REMARK    1  A    between atoms: C_2  and  C_3
REMARK    2  A    between atoms: C_3  and  N_4
REMARK    3  A    between atoms: C_14  and  C_32
REMARK    4  A    between atoms: C_15  and  N_31
REMARK    5  A    between atoms: N_16  and  C_24
REMARK                            x       y       z     vdW  Elec       q    Type
REMARK                         _______ _______ _______ _____ _____    ______ ____
ROOT
ATOM      1  N   UNL     1       1.567   1.859  -0.774  0.00  0.00    -0.266 N 
ATOM      2  C   UNL     1       0.486   1.344  -1.466  0.00  0.00    +0.041 A 
ATOM      3  C   UNL     1      -0.492   2.010  -2.207  0.00  0.00    +0.024 A 
ATOM      4  C   UNL     1      -1.471   1.233  -2.808  0.00  0.00    +0.002 A 
ATOM      5  C   UNL     1      -1.494  -0.141  -2.680  0.00  0.00    +0.000 A 
ATOM      6  C   UNL     1      -0.529  -0.816  -1.941  0.00  0.00    +0.007 A 
ATOM      7  C   UNL     1       0.449  -0.050  -1.344  0.00  0.00    -0.001 A 
ATOM      8  C   UNL     1       1.621  -0.429  -0.490  0.00  0.00    +0.141 C 
ATOM      9  C   UNL     1       2.289   0.893  -0.171  0.00  0.00    +0.240 C 
ATOM     10  O   UNL     1       3.287   1.052   0.500  0.00  0.00    -0.274 OA
ATOM     11  C   UNL     1       2.567  -1.314  -1.243  0.00  0.00    +0.089 C 
ATOM     12  C   UNL     1       2.639  -2.646  -0.977  0.00  0.00    +0.108 C 
ATOM     13  N   UNL     1       1.841  -3.197   0.000  0.00  0.00    -0.260 N 
ATOM     14  C   UNL     1       1.279  -2.410   0.970  0.00  0.00    +0.025 C 
ATOM     15  C   UNL     1       1.151  -1.078   0.786  0.00  0.00    +0.037 C 
ATOM     16  C   UNL     1       0.579  -0.261   1.776  0.00  0.00    +0.162 C 
ATOM     17  O   UNL     1       0.498   0.937   1.587  0.00  0.00    -0.292 OA
ATOM     18  C   UNL     1       0.066  -0.842   3.065  0.00  0.00    +0.080 C 
ATOM     19  C   UNL     1      -0.377  -2.288   2.817  0.00  0.00    +0.014 C 
ATOM     20  C   UNL     1       0.810  -3.066   2.245  0.00  0.00    +0.052 C 
ENDROOT
BRANCH  13  21
ATOM     21  C   UNL     1       1.603  -4.577   0.003  0.00  0.00    +0.040 A 
ATOM     22  C   UNL     1       2.455  -5.429   0.693  0.00  0.00    +0.025 A 
ATOM     23  C   UNL     1       2.215  -6.789   0.697  0.00  0.00    +0.022 A 
ATOM     24  C   UNL     1       1.132  -7.304   0.006  0.00  0.00    +0.041 A 
ATOM     25  C   UNL     1       0.284  -6.457  -0.686  0.00  0.00    +0.022 A 
ATOM     26  C   UNL     1       0.516  -5.096  -0.690  0.00  0.00    +0.025 A 
ATOM     27 CL   UNL     1       0.837  -9.014   0.008  0.00  0.00    -0.084 Cl
ENDBRANCH  13  21
BRANCH  12  28
ATOM     28  N   UNL     1       3.508  -3.441  -1.684  0.00  0.00    -0.345 N 
ATOM     29  H   UNL     1       4.006  -3.072  -2.430  0.00  0.00    +0.144 HD
ATOM     30  H   UNL     1       3.624  -4.372  -1.437  0.00  0.00    +0.144 HD
ENDBRANCH  12  28
BRANCH  11  31
ATOM     31  C   UNL     1       3.407  -0.750  -2.256  0.00  0.00    +0.100 C 
ATOM     32  N   UNL     1       4.074  -0.303  -3.061  0.00  0.00    -0.191 NA
ENDBRANCH  11  31
BRANCH   1  33
ATOM     33  C   UNL     1       1.889   3.287  -0.704  0.00  0.00    +0.140 C 
BRANCH  33  35
ATOM     34  C   UNL     1       1.887   4.554   1.383  0.00  0.00    +0.005 C 
ATOM     35  C   UNL     1       1.194   3.901   0.484  0.00  0.00    -0.015 C 
ENDBRANCH  33  35
ENDBRANCH   1  33
TORSDOF 5
