REMARK  Name = ZINC12408232
REMARK  10 active torsions:
REMARK  status: ('A' for Active; 'I' for Inactive)
REMARK    1  A    between atoms: C_1  and  C_2
REMARK    2  A    between atoms: C_2  and  N_3
REMARK    3  A    between atoms: C_4  and  C_30
REMARK    4  A    between atoms: C_5  and  C_17
REMARK    5  A    between atoms: C_6  and  C_11
REMARK    6  A    between atoms: C_17  and  C_19
REMARK    7  A    between atoms: C_20  and  C_21
REMARK    8  A    between atoms: C_24  and  O_27
REMARK    9  A    between atoms: O_27  and  C_28
REMARK   10  A    between atoms: C_28  and  C_29
REMARK                            x       y       z     vdW  Elec       q    Type
REMARK                         _______ _______ _______ _____ _____    ______ ____
ROOT
ATOM      1  N   UNL     1       2.089  -0.265  -0.010  0.00  0.00    -0.259 N 
ATOM      2  C   UNL     1       2.182   0.988   0.529  0.00  0.00    +0.021 C 
ATOM      3  C   UNL     1       1.076   1.713   0.801  0.00  0.00    +0.041 C 
ATOM      4  C   UNL     1      -0.270   1.092   0.487  0.00  0.00    +0.140 C 
ATOM      5  N   UNL     1      -0.261  -0.262  -0.092  0.00  0.00    -0.288 N 
ATOM      6  C   UNL     1       0.927  -0.860  -0.307  0.00  0.00    +0.307 C 
ATOM      7  O   UNL     1       0.945  -1.978  -0.785  0.00  0.00    -0.252 OA
ATOM      8  C   UNL     1       3.541   1.568   0.826  0.00  0.00    +0.061 C 
ATOM      9  H   UNL     1      -1.091  -0.712  -0.315  0.00  0.00    +0.151 HD
ENDROOT
BRANCH   4  10
ATOM     10  C   UNL     1      -1.069   1.045   1.764  0.00  0.00    -0.023 A 
ATOM     11  C   UNL     1      -0.850   0.033   2.680  0.00  0.00    +0.006 A 
ATOM     12  C   UNL     1      -1.579  -0.007   3.853  0.00  0.00    +0.000 A 
ATOM     13  C   UNL     1      -2.535   0.960   4.106  0.00  0.00    +0.000 A 
ATOM     14  C   UNL     1      -2.757   1.969   3.188  0.00  0.00    +0.000 A 
ATOM     15  C   UNL     1      -2.024   2.011   2.017  0.00  0.00    +0.006 A 
ENDBRANCH   4  10
BRANCH   1  17
ATOM     16  C   UNL     1       3.780  -1.722   0.989  0.00  0.00    +0.025 C 
ATOM     17  C   UNL     1       3.330  -0.995  -0.280  0.00  0.00    +0.111 C 
ENDBRANCH   1  17
BRANCH   3  18
ATOM     18  C   UNL     1       1.174   3.053   1.377  0.00  0.00    +0.186 C 
ATOM     19  O   UNL     1       1.625   3.202   2.501  0.00  0.00    -0.287 OA
BRANCH  18  20
ATOM     20  C   UNL     1       0.731   4.216   0.606  0.00  0.00    +0.052 C 
ATOM     21  C   UNL     1       0.913   5.461   1.096  0.00  0.00    +0.011 C 
BRANCH  21  22
ATOM     22  C   UNL     1       0.366   6.621   0.379  0.00  0.00    -0.025 A 
ATOM     23  C   UNL     1      -0.355   6.437  -0.807  0.00  0.00    +0.011 A 
ATOM     24  C   UNL     1      -0.871   7.527  -1.472  0.00  0.00    +0.046 A 
ATOM     25  C   UNL     1      -0.666   8.809  -0.974  0.00  0.00    +0.121 A 
ATOM     26  C   UNL     1       0.054   8.997   0.200  0.00  0.00    +0.046 A 
ATOM     27  C   UNL     1       0.569   7.914   0.876  0.00  0.00    +0.011 A 
BRANCH  25  28
ATOM     28  O   UNL     1      -1.171   9.880  -1.637  0.00  0.00    -0.492 OA
BRANCH  28  29
ATOM     29  C   UNL     1      -1.902   9.616  -2.836  0.00  0.00    +0.225 C 
ATOM     30  C   UNL     1      -2.389  10.936  -3.437  0.00  0.00    +0.048 C 
ENDBRANCH  28  29
ENDBRANCH  25  28
ENDBRANCH  21  22
ENDBRANCH  18  20
ENDBRANCH   3  18
TORSDOF 7
