REMARK  Name = ZINC03624650
REMARK  8 active torsions:
REMARK  status: ('A' for Active; 'I' for Inactive)
REMARK    1  A    between atoms: C_1  and  C_2
REMARK    2  A    between atoms: C_2  and  C_3
REMARK    3  A    between atoms: C_3  and  C_4
REMARK    4  A    between atoms: C_4  and  N_5
REMARK    5  A    between atoms: C_11  and  C_25
REMARK    6  A    between atoms: C_13  and  O_24
REMARK    7  A    between atoms: C_15  and  O_22
REMARK    8  A    between atoms: C_15  and  O_23
REMARK                            x       y       z     vdW  Elec       q    Type
REMARK                         _______ _______ _______ _____ _____    ______ ____
ROOT
ATOM      1  N   UNL     1      -0.797   8.317   0.399  0.00  0.00    -0.274 N 
ATOM      2  C   UNL     1      -2.013   7.992   0.964  0.00  0.00    +0.288 C 
ATOM      3  O   UNL     1      -2.622   8.634   1.794  0.00  0.00    -0.266 OA
ATOM      4  C   UNL     1      -2.438   6.673   0.345  0.00  0.00    +0.249 C 
ATOM      5  O   UNL     1      -3.557   6.230   0.158  0.00  0.00    -0.282 OA
ATOM      6  C   UNL     1      -1.193   6.103   0.047  0.00  0.00    +0.082 C 
ATOM      7  C   UNL     1      -0.070   5.319   0.032  0.00  0.00    +0.141 C 
ATOM      8  O   UNL     1       1.054   6.150   0.032  0.00  0.00    -0.453 OA
ATOM      9  C   UNL     1       0.729   6.890  -1.143  0.00  0.00    +0.269 C 
ATOM     10  C   UNL     1      -0.699   7.323  -0.678  0.00  0.00    +0.198 C 
ATOM     11  C   UNL     1      -1.110   7.983  -1.962  0.00  0.00    +0.226 C 
ATOM     12  C   UNL     1       0.140   8.860  -2.169  0.00  0.00    +0.023 A 
ATOM     13  C   UNL     1       1.233   8.243  -1.527  0.00  0.00    +0.034 A 
ATOM     14  C   UNL     1       2.442   8.892  -1.477  0.00  0.00    +0.010 A 
ATOM     15  C   UNL     1       2.607  10.111  -2.110  0.00  0.00    +0.000 A 
ATOM     16  C   UNL     1       1.552  10.683  -2.797  0.00  0.00    +0.000 A 
ATOM     17  C   UNL     1       0.321  10.052  -2.823  0.00  0.00    +0.009 A 
ENDROOT
BRANCH   7  18
ATOM     18  C   UNL     1      -0.050   3.846   0.024  0.00  0.00    +0.017 A 
ATOM     19  C   UNL     1       1.168   3.159   0.008  0.00  0.00    +0.011 A 
ATOM     20  C   UNL     1       1.179   1.781   0.000  0.00  0.00    +0.001 A 
ATOM     21  C   UNL     1      -0.013   1.076   0.008  0.00  0.00    +0.000 A 
ATOM     22  C   UNL     1      -1.223   1.748   0.017  0.00  0.00    +0.001 A 
ATOM     23  C   UNL     1      -1.250   3.126   0.031  0.00  0.00    +0.011 A 
ENDBRANCH   7  18
BRANCH  11  24
ATOM     24  O   UNL     1      -1.267   7.032  -3.017  0.00  0.00    -0.359 OA
ATOM     25  H   UNL     1      -1.532   7.421  -3.861  0.00  0.00    +0.213 HD
ENDBRANCH  11  24
BRANCH  11  26
ATOM     26  O   UNL     1      -2.289   8.774  -1.794  0.00  0.00    -0.359 OA
ATOM     27  H   UNL     1      -2.585   9.215  -2.601  0.00  0.00    +0.213 HD
ENDBRANCH  11  26
BRANCH   9  28
ATOM     28  O   UNL     1       0.657   6.037  -2.288  0.00  0.00    -0.350 OA
ATOM     29  H   UNL     1       1.518   5.743  -2.614  0.00  0.00    +0.214 HD
ENDBRANCH   9  28
BRANCH   1  30
ATOM     30  C   UNL     1       0.145   9.374   0.773  0.00  0.00    +0.109 C 
BRANCH  30  31
ATOM     31  C   UNL     1       1.137   8.832   1.805  0.00  0.00    +0.019 C 
BRANCH  31  33
ATOM     32  C   UNL     1       3.112   9.394   3.227  0.00  0.00    +0.004 C 
ATOM     33  C   UNL     1       2.121   9.936   2.196  0.00  0.00    -0.002 C 
ENDBRANCH  31  33
ENDBRANCH  30  31
ENDBRANCH   1  30
TORSDOF 7
