REMARK  Name = ZINC23600280
REMARK  7 active torsions:
REMARK  status: ('A' for Active; 'I' for Inactive)
REMARK    1  A    between atoms: C_1  and  C_2
REMARK    2  A    between atoms: C_2  and  C_4
REMARK    3  A    between atoms: C_2  and  S_17
REMARK    4  A    between atoms: N_6  and  C_7
REMARK    5  A    between atoms: C_7  and  C_8
REMARK    6  A    between atoms: S_17  and  C_18
REMARK    7  A    between atoms: N_28  and  C_29
REMARK                            x       y       z     vdW  Elec       q    Type
REMARK                         _______ _______ _______ _____ _____    ______ ____
ROOT
ATOM      1  S   UNL     1       0.879  -0.605   1.472  0.00  0.00    -0.075 S 
ENDROOT
BRANCH   1   2
ATOM      2  C   UNL     1      -0.136  -0.087   2.816  0.00  0.00    +0.173 A 
ATOM      3  N   UNL     1      -1.238   0.570   2.549  0.00  0.00    -0.223 NA
ATOM      4  C   UNL     1      -2.061   0.996   3.528  0.00  0.00    +0.079 A 
ATOM      5  C   UNL     1      -3.237   1.696   3.244  0.00  0.00    +0.028 A 
ATOM      6  C   UNL     1      -4.042   2.109   4.267  0.00  0.00    +0.002 A 
ATOM      7  C   UNL     1      -3.710   1.844   5.590  0.00  0.00    +0.001 A 
ATOM      8  C   UNL     1      -2.567   1.161   5.900  0.00  0.00    +0.015 A 
ATOM      9  C   UNL     1      -1.726   0.728   4.875  0.00  0.00    +0.065 A 
ATOM     10  C   UNL     1      -0.486  -0.010   5.148  0.00  0.00    +0.263 A 
ATOM     11  O   UNL     1      -0.144  -0.272   6.287  0.00  0.00    -0.267 OA
ATOM     12  N   UNL     1       0.260  -0.394   4.086  0.00  0.00    -0.284 N 
BRANCH  12  13
ATOM     13  C   UNL     1       1.504  -1.137   4.301  0.00  0.00    +0.093 C 
ATOM     14  C   UNL     1       1.195  -2.449   5.026  0.00  0.00    +0.025 C 
ATOM     15  C   UNL     1       2.494  -3.225   5.251  0.00  0.00    +0.002 C 
ATOM     16  C   UNL     1       3.450  -2.386   6.100  0.00  0.00    +0.000 C 
ATOM     17  C   UNL     1       3.759  -1.074   5.375  0.00  0.00    +0.002 C 
ATOM     18  C   UNL     1       2.460  -0.298   5.151  0.00  0.00    +0.025 C 
ENDBRANCH  12  13
ENDBRANCH   1   2
BRANCH   1  20
ATOM     19  C   UNL     1      -0.019   1.526   0.010  0.00  0.00    +0.029 C 
ATOM     20  C   UNL     1       0.002  -0.004   0.002  0.00  0.00    +0.137 C 
BRANCH  20  21
ATOM     21  C   UNL     1       0.707  -0.490  -1.238  0.00  0.00    +0.226 C 
ATOM     22  O   UNL     1       1.864  -0.849  -1.176  0.00  0.00    -0.275 OA
ATOM     23  N   UNL     1       0.053  -0.526  -2.415  0.00  0.00    -0.310 N 
ATOM     24  H   UNL     1      -0.873  -0.239  -2.465  0.00  0.00    +0.149 HD
BRANCH  23  25
ATOM     25  C   UNL     1       0.738  -0.999  -3.621  0.00  0.00    +0.139 C 
BRANCH  25  26
ATOM     26  C   UNL     1      -0.207  -0.940  -4.792  0.00  0.00    -0.027 A 
ATOM     27  C   UNL     1      -1.004  -2.030  -5.091  0.00  0.00    +0.009 A 
ATOM     28  C   UNL     1      -1.874  -1.980  -6.165  0.00  0.00    +0.050 A 
ATOM     29  C   UNL     1      -1.948  -0.838  -6.944  0.00  0.00    +0.166 A 
ATOM     30  C   UNL     1      -1.146   0.260  -6.644  0.00  0.00    +0.167 A 
ATOM     31  C   UNL     1      -0.281   0.206  -5.563  0.00  0.00    +0.054 A 
ATOM     32  O   UNL     1      -1.402   1.249  -7.549  0.00  0.00    -0.453 OA
ATOM     33  C   UNL     1      -2.069   0.601  -8.648  0.00  0.00    +0.466 C 
ATOM     34  O   UNL     1      -2.708  -0.536  -8.038  0.00  0.00    -0.453 OA
ENDBRANCH  25  26
ENDBRANCH  23  25
ENDBRANCH  20  21
ENDBRANCH   1  20
TORSDOF 6
