REMARK  Name = ZINC12409479
REMARK  8 active torsions:
REMARK  status: ('A' for Active; 'I' for Inactive)
REMARK    1  A    between atoms: C_1  and  C_2
REMARK    2  A    between atoms: C_3  and  C_20
REMARK    3  A    between atoms: C_16  and  C_17
REMARK    4  A    between atoms: C_16  and  N_51
REMARK    5  A    between atoms: C_17  and  C_18
REMARK    6  A    between atoms: C_18  and  O_19
REMARK    7  A    between atoms: C_25  and  O_26
REMARK    8  A    between atoms: O_26  and  C_27
REMARK                            x       y       z     vdW  Elec       q    Type
REMARK                         _______ _______ _______ _____ _____    ______ ____
ROOT
ATOM      1  C   UNL     1       0.682  -2.365   6.038  0.00  0.00    +0.087 C 
ATOM      2  C   UNL     1       0.000  -1.022   6.067  0.00  0.00    +0.114 A 
ATOM      3  C   UNL     1      -0.484  -0.576   7.253  0.00  0.00    +0.071 A 
ATOM      4  C   UNL     1      -1.153   0.737   7.290  0.00  0.00    +0.201 A 
ATOM      5  O   UNL     1      -1.611   1.197   8.322  0.00  0.00    -0.286 OA
ATOM      6  C   UNL     1      -1.237   1.463   6.009  0.00  0.00    +0.065 A 
ATOM      7  C   UNL     1      -1.849   2.715   5.929  0.00  0.00    +0.019 A 
ATOM      8  C   UNL     1      -1.912   3.362   4.730  0.00  0.00    +0.046 A 
ATOM      9  C   UNL     1      -1.368   2.780   3.583  0.00  0.00    +0.123 A 
ATOM     10  C   UNL     1      -0.758   1.541   3.649  0.00  0.00    +0.021 A 
ATOM     11  C   UNL     1      -0.686   0.866   4.864  0.00  0.00    +0.144 A 
ATOM     12  O   UNL     1      -0.093  -0.340   4.928  0.00  0.00    -0.459 OA
ATOM     13  C   UNL     1      -0.165   0.904   2.418  0.00  0.00    -0.031 C 
ATOM     14  C   UNL     1      -0.592   3.022   1.347  0.00  0.00    +0.157 C 
ATOM     15  O   UNL     1      -1.453   3.451   2.404  0.00  0.00    -0.509 OA
ATOM     16  N   UNL     1      -0.724   1.557   1.219  0.00  0.00    +0.405 N 
ATOM     17  H   UNL     1      -1.718   1.315   1.137  0.00  0.00    -0.076 HD
ENDROOT
BRANCH   3  18
ATOM     18  C   UNL     1      -0.344  -1.390   8.485  0.00  0.00    +0.031 A 
ATOM     19  C   UNL     1      -1.336  -2.302   8.838  0.00  0.00    +0.012 A 
ATOM     20  C   UNL     1      -1.198  -3.061   9.982  0.00  0.00    +0.001 A 
ATOM     21  C   UNL     1      -0.082  -2.912  10.786  0.00  0.00    +0.004 A 
ATOM     22  C   UNL     1       0.906  -2.007  10.448  0.00  0.00    +0.046 A 
ATOM     23  C   UNL     1       0.783  -1.242   9.299  0.00  0.00    +0.128 A 
BRANCH  23  24
ATOM     24  O   UNL     1       1.754  -0.351   8.966  0.00  0.00    -0.494 OA
ATOM     25  C   UNL     1       2.875  -0.255   9.846  0.00  0.00    +0.277 C 
ENDBRANCH  23  24
ENDBRANCH   3  18
BRANCH  16  26
ATOM     26  C   UNL     1      -0.013   1.086   0.008  0.00  0.00    -0.071 C 
BRANCH  26  27
ATOM     27  C   UNL     1      -0.753   1.593  -1.232  0.00  0.00    +0.009 C 
BRANCH  27  28
ATOM     28  C   UNL     1      -0.037   1.099  -2.490  0.00  0.00    +0.154 C 
BRANCH  28  29
ATOM     29  O   UNL     1      -0.728   1.573  -3.648  0.00  0.00    -0.395 OA
ATOM     30  H   UNL     1      -0.328   1.297  -4.484  0.00  0.00    +0.209 HD
ENDBRANCH  28  29
ENDBRANCH  27  28
ENDBRANCH  26  27
ENDBRANCH  16  26
TORSDOF 6
