REMARK  Name = ZINC64208287
REMARK  11 active torsions:
REMARK  status: ('A' for Active; 'I' for Inactive)
REMARK    1  A    between atoms: C_1  and  C_2
REMARK    2  A    between atoms: C_2  and  C_3
REMARK    3  A    between atoms: C_2  and  C_4
REMARK    4  A    between atoms: C_4  and  C_5
REMARK    5  A    between atoms: C_13  and  C_15
REMARK    6  A    between atoms: C_15  and  C_17
REMARK    7  A    between atoms: C_15  and  N_27
REMARK    8  A    between atoms: C_17  and  C_18
REMARK    9  A    between atoms: C_28  and  O_30
REMARK   10  A    between atoms: O_30  and  C_31
REMARK   11  A    between atoms: C_31  and  C_32
REMARK                            x       y       z     vdW  Elec       q    Type
REMARK                         _______ _______ _______ _____ _____    ______ ____
ROOT
ATOM      1  C   UNL     1       1.635   0.059   8.436  0.00  0.00    +0.166 C 
ENDROOT
BRANCH   1  10
ATOM      2  C   UNL     1      -0.903  -1.103   2.922  0.00  0.00    +0.216 C 
ATOM      3  O   UNL     1      -2.032  -0.660   2.948  0.00  0.00    -0.276 OA
ATOM      4  N   UNL     1      -0.197  -1.215   4.064  0.00  0.00    -0.298 N 
ATOM      5  C   UNL     1       1.174  -1.745   4.048  0.00  0.00    +0.126 C 
ATOM      6  C   UNL     1       2.104  -0.720   4.709  0.00  0.00    +0.127 C 
ATOM      7  N   UNL     1       1.517  -0.314   5.994  0.00  0.00    -0.297 N 
ATOM      8  C   UNL     1       0.146   0.216   6.010  0.00  0.00    +0.127 C 
ATOM      9  C   UNL     1      -0.781  -0.804   5.349  0.00  0.00    +0.126 C 
ATOM     10  C   UNL     1       2.223  -0.425   7.136  0.00  0.00    +0.236 C 
ATOM     11  O   UNL     1       3.332  -0.915   7.118  0.00  0.00    -0.274 OA
BRANCH   2  12
ATOM     12  C   UNL     1      -0.290  -1.529   1.613  0.00  0.00    +0.099 C 
BRANCH  12  14
ATOM     13  C   UNL     1      -1.563   0.199   0.334  0.00  0.00    +0.008 C 
ATOM     14  C   UNL     1      -1.294  -1.300   0.481  0.00  0.00    -0.008 C 
ATOM     15  C   UNL     1      -0.721  -1.846  -0.828  0.00  0.00    +0.008 C 
ENDBRANCH  12  14
ENDBRANCH   2  12
ENDBRANCH   1  10
BRANCH   1  16
ATOM     16  N   UNL     1       2.507  -0.336   9.544  0.00  0.00    -0.270 N 
ATOM     17  C   UNL     1       1.999  -0.480  10.784  0.00  0.00    +0.401 C 
ATOM     18  O   UNL     1       0.817  -0.283  10.983  0.00  0.00    -0.226 OA
ATOM     19  H   UNL     1       3.451  -0.494   9.386  0.00  0.00    +0.153 HD
BRANCH  17  20
ATOM     20  O   UNL     1       2.801  -0.844  11.803  0.00  0.00    -0.446 OA
BRANCH  20  21
ATOM     21  C   UNL     1       2.195  -0.978  13.090  0.00  0.00    +0.269 C 
BRANCH  21  22
ATOM     22  C   UNL     1       3.239  -1.387  14.097  0.00  0.00    -0.010 A 
ATOM     23  C   UNL     1       3.491  -2.727  14.326  0.00  0.00    +0.007 A 
ATOM     24  C   UNL     1       4.448  -3.102  15.249  0.00  0.00    +0.000 A 
ATOM     25  C   UNL     1       5.155  -2.138  15.943  0.00  0.00    +0.000 A 
ATOM     26  C   UNL     1       4.904  -0.798  15.714  0.00  0.00    +0.000 A 
ATOM     27  C   UNL     1       3.949  -0.422  14.787  0.00  0.00    +0.007 A 
ENDBRANCH  21  22
ENDBRANCH  20  21
ENDBRANCH  17  20
ENDBRANCH   1  16
BRANCH   1  28
ATOM     28  C   UNL     1       1.510   1.583   8.404  0.00  0.00    +0.065 C 
BRANCH  28  29
ATOM     29  C   UNL     1       0.796   2.056   9.644  0.00  0.00    -0.039 C 
ATOM     30  C   UNL     1       1.363   2.493  10.791  0.00  0.00    -0.001 A 
ATOM     31  C   UNL     1       2.760   2.652  11.213  0.00  0.00    +0.010 A 
ATOM     32  C   UNL     1       3.022   3.124  12.453  0.00  0.00    +0.001 A 
ATOM     33  C   UNL     1       1.994   3.463  13.344  0.00  0.00    +0.002 A 
ATOM     34  C   UNL     1       0.687   3.345  13.029  0.00  0.00    +0.026 A 
ATOM     35  C   UNL     1       0.297   2.859  11.751  0.00  0.00    +0.043 A 
ATOM     36  N   UNL     1      -0.883   2.656  11.217  0.00  0.00    -0.380 N 
ATOM     37  C   UNL     1      -0.699   2.143   9.855  0.00  0.00    +0.144 C 
ATOM     38  H   UNL     1      -1.736   2.821  11.649  0.00  0.00    +0.160 HD
ENDBRANCH  28  29
ENDBRANCH   1  28
TORSDOF 9
