REMARK  Name = ZINC01993267
REMARK  13 active torsions:
REMARK  status: ('A' for Active; 'I' for Inactive)
REMARK    1  A    between atoms: C_1  and  C_2
REMARK    2  A    between atoms: C_2  and  O_3
REMARK    3  A    between atoms: O_3  and  C_4
REMARK    4  A    between atoms: C_14  and  C_23
REMARK    5  A    between atoms: C_15  and  C_17
REMARK    6  A    between atoms: C_17  and  O_19
REMARK    7  A    between atoms: O_19  and  C_20
REMARK    8  A    between atoms: C_20  and  C_21
REMARK    9  A    between atoms: C_25  and  C_27
REMARK   10  A    between atoms: C_30  and  O_35
REMARK   11  A    between atoms: C_31  and  O_33
REMARK   12  A    between atoms: O_33  and  C_34
REMARK   13  A    between atoms: O_35  and  C_36
REMARK                            x       y       z     vdW  Elec       q    Type
REMARK                         _______ _______ _______ _____ _____    ______ ____
ROOT
ATOM      1  C   UNL     1      -5.918   6.662   0.146  0.00  0.00    +0.121 A 
ATOM      2  C   UNL     1      -4.612   7.139   0.187  0.00  0.00    +0.049 A 
ATOM      3  C   UNL     1      -3.547   6.265   0.259  0.00  0.00    +0.050 A 
ATOM      4  C   UNL     1      -3.773   4.895   0.290  0.00  0.00    +0.138 A 
ATOM      5  C   UNL     1      -5.090   4.413   0.248  0.00  0.00    +0.044 A 
ATOM      6  C   UNL     1      -6.161   5.301   0.176  0.00  0.00    +0.059 A 
ATOM      7  C   UNL     1      -5.306   2.951   0.282  0.00  0.00    +0.055 A 
ATOM      8  N   UNL     1      -6.532   2.432   0.245  0.00  0.00    -0.334 N 
ATOM      9  C   UNL     1      -7.604   3.235   0.335  0.00  0.00    +0.172 A 
ATOM     10  N   UNL     1      -8.184   3.752   1.424  0.00  0.00    -0.227 NA
ATOM     11  C   UNL     1      -9.227   4.525   1.335  0.00  0.00    +0.062 A 
ATOM     12  C   UNL     1      -9.758   4.810   0.081  0.00  0.00    +0.120 A 
ATOM     13  S   UNL     1      -8.638   3.890  -0.968  0.00  0.00    -0.043 S 
ATOM     14  C   UNL     1      -9.858   5.100   2.578  0.00  0.00    +0.067 C 
ATOM     15  C   UNL     1      -4.160   2.126   0.356  0.00  0.00    +0.073 A 
ATOM     16  C   UNL     1      -2.925   2.696   0.392  0.00  0.00    +0.138 A 
ATOM     17  O   UNL     1      -2.742   4.026   0.365  0.00  0.00    -0.455 OA
ATOM     18  H   UNL     1      -6.665   1.345   0.141  0.00  0.00    +0.168 HD
ENDROOT
BRANCH  16  19
ATOM     19  C   UNL     1      -1.741   1.819   0.469  0.00  0.00    +0.021 A 
ATOM     20  C   UNL     1      -1.899   0.430   0.498  0.00  0.00    +0.015 A 
ATOM     21  C   UNL     1      -0.792  -0.387   0.576  0.00  0.00    +0.050 A 
ATOM     22  C   UNL     1       0.481   0.165   0.614  0.00  0.00    +0.162 A 
ATOM     23  C   UNL     1       0.646   1.549   0.580  0.00  0.00    +0.162 A 
ATOM     24  C   UNL     1      -0.459   2.374   0.508  0.00  0.00    +0.061 A 
BRANCH  23  25
ATOM     25  O   UNL     1       1.895   2.086   0.617  0.00  0.00    -0.491 OA
ATOM     26  C   UNL     1       1.990   3.511   0.578  0.00  0.00    +0.277 C 
ENDBRANCH  23  25
BRANCH  22  27
ATOM     27  O   UNL     1       1.569  -0.646   0.685  0.00  0.00    -0.491 OA
ATOM     28  C   UNL     1       1.328  -2.054   0.717  0.00  0.00    +0.277 C 
ENDBRANCH  22  27
ENDBRANCH  16  19
BRANCH  12  29
ATOM     29  C   UNL     1     -10.874   5.608  -0.269  0.00  0.00    +0.348 C 
ATOM     30  O   UNL     1     -11.467   6.234   0.590  0.00  0.00    -0.244 OA
BRANCH  29  31
ATOM     31  O   UNL     1     -11.280   5.673  -1.554  0.00  0.00    -0.457 OA
BRANCH  31  32
ATOM     32  C   UNL     1     -12.478   6.406  -1.819  0.00  0.00    +0.259 C 
BRANCH  32  33
ATOM     33  C   UNL     1     -12.839   6.269  -3.276  0.00  0.00    +0.006 C 
ATOM     34  C   UNL     1     -14.067   5.974  -3.622  0.00  0.00    +0.007 C 
ENDBRANCH  32  33
ENDBRANCH  31  32
ENDBRANCH  29  31
ENDBRANCH  12  29
BRANCH   1  35
ATOM     35  O   UNL     1      -6.957   7.535   0.075  0.00  0.00    -0.492 OA
BRANCH  35  37
ATOM     36  C   UNL     1      -7.915   9.752  -0.009  0.00  0.00    +0.048 C 
ATOM     37  C   UNL     1      -6.632   8.920  -0.063  0.00  0.00    +0.225 C 
ENDBRANCH  35  37
ENDBRANCH   1  35
TORSDOF 9
