REMARK  Name = ZINC39304146
REMARK  11 active torsions:
REMARK  status: ('A' for Active; 'I' for Inactive)
REMARK    1  A    between atoms: C_1  and  C_2
REMARK    2  A    between atoms: C_2  and  O_3
REMARK    3  A    between atoms: O_3  and  C_4
REMARK    4  A    between atoms: C_4  and  C_6
REMARK    5  A    between atoms: C_6  and  C_26
REMARK    6  A    between atoms: N_10  and  C_12
REMARK    7  A    between atoms: C_12  and  C_13
REMARK    8  A    between atoms: N_15  and  C_16
REMARK    9  A    between atoms: C_26  and  C_27
REMARK   10  A    between atoms: C_30  and  O_33
REMARK   11  A    between atoms: O_33  and  C_34
REMARK                            x       y       z     vdW  Elec       q    Type
REMARK                         _______ _______ _______ _____ _____    ______ ____
ROOT
ATOM      1  C   UNL     1      -2.905  -2.429   0.034  0.00  0.00    +0.057 C 
ATOM      2  C   UNL     1      -3.638  -1.980   1.301  0.00  0.00    +0.015 C 
ATOM      3  C   UNL     1      -2.896  -2.521   2.527  0.00  0.00    -0.018 C 
ATOM      4  C   UNL     1      -2.794  -4.044   2.424  0.00  0.00    -0.078 C 
ATOM      5  N   UNL     1      -2.060  -4.408   1.205  0.00  0.00    +0.386 N 
ATOM      6  C   UNL     1      -2.803  -3.955   0.023  0.00  0.00    -0.060 C 
ATOM      7  H   UNL     1      -1.151  -3.970   1.218  0.00  0.00    -0.081 HD
ENDROOT
BRANCH   1   8
ATOM      8  C   UNL     1      -1.522  -1.832   0.014  0.00  0.00    +0.312 C 
ATOM      9  O   UNL     1      -0.553  -2.553  -0.006  0.00  0.00    -0.250 OA
BRANCH   8  10
ATOM     10  O   UNL     1      -1.366  -0.499   0.019  0.00  0.00    -0.465 OA
BRANCH  10  12
ATOM     11  C   UNL     1      -0.049   1.528   0.009  0.00  0.00    +0.048 C 
ATOM     12  C   UNL     1      -0.026  -0.002   0.000  0.00  0.00    +0.229 C 
ENDBRANCH  10  12
ENDBRANCH   8  10
ENDBRANCH   1   8
BRANCH   5  13
ATOM     13  C   UNL     1      -1.898  -5.867   1.151  0.00  0.00    +0.019 C 
BRANCH  13  14
ATOM     14  C   UNL     1      -1.024  -6.318   2.293  0.00  0.00    +0.201 C 
ATOM     15  O   UNL     1      -0.580  -5.504   3.075  0.00  0.00    -0.278 OA
ATOM     16  N   UNL     1      -0.735  -7.626   2.445  0.00  0.00    -0.287 N 
ATOM     17  H   UNL     1      -1.142  -8.283   1.860  0.00  0.00    +0.155 HD
BRANCH  16  18
ATOM     18  C   UNL     1       0.152  -8.034   3.447  0.00  0.00    +0.037 A 
ATOM     19  C   UNL     1       0.181  -7.361   4.658  0.00  0.00    +0.023 A 
ATOM     20  C   UNL     1       1.058  -7.765   5.645  0.00  0.00    +0.002 A 
ATOM     21  C   UNL     1       1.901  -8.835   5.419  0.00  0.00    +0.004 A 
ATOM     22  C   UNL     1       1.877  -9.512   4.206  0.00  0.00    -0.042 A 
ATOM     23  C   UNL     1       0.997  -9.121   3.223  0.00  0.00    -0.023 A 
ATOM     24  C   UNL     1       0.901  -9.823   1.894  0.00  0.00    +0.037 C 
ATOM     25  C   UNL     1       2.144 -10.675   1.645  0.00  0.00    +0.005 C 
ATOM     26  C   UNL     1       2.377 -11.562   2.874  0.00  0.00    +0.005 C 
ATOM     27  C   UNL     1       2.831 -10.665   4.028  0.00  0.00    +0.035 C 
ENDBRANCH  16  18
ENDBRANCH  13  14
ENDBRANCH   5  13
BRANCH   1  28
ATOM     28  C   UNL     1      -3.681  -1.960  -1.199  0.00  0.00    +0.051 C 
BRANCH  28  29
ATOM     29  C   UNL     1      -3.783  -0.457  -1.187  0.00  0.00    -0.046 A 
ATOM     30  C   UNL     1      -4.851   0.158  -0.560  0.00  0.00    +0.007 A 
ATOM     31  C   UNL     1      -4.947   1.536  -0.547  0.00  0.00    +0.046 A 
ATOM     32  C   UNL     1      -3.970   2.303  -1.165  0.00  0.00    +0.120 A 
ATOM     33  C   UNL     1      -2.899   1.685  -1.793  0.00  0.00    +0.046 A 
ATOM     34  C   UNL     1      -2.805   0.306  -1.798  0.00  0.00    +0.007 A 
BRANCH  32  35
ATOM     35  O   UNL     1      -4.063   3.659  -1.154  0.00  0.00    -0.495 OA
ATOM     36  C   UNL     1      -3.021   4.385  -1.810  0.00  0.00    +0.277 C 
ENDBRANCH  32  35
ENDBRANCH  28  29
ENDBRANCH   1  28
TORSDOF 9
