REMARK  Name = ZINC08971064
REMARK  2 active torsions:
REMARK  status: ('A' for Active; 'I' for Inactive)
REMARK    1  A    between atoms: C_4  and  C_7
REMARK    2  A    between atoms: C_17  and  C_19
REMARK                            x       y       z     vdW  Elec       q    Type
REMARK                         _______ _______ _______ _____ _____    ______ ____
ROOT
ATOM      1  C   UNL     1       3.786  -1.147  -0.436  0.00  0.00    +0.098 A 
ATOM      2  C   UNL     1       4.029  -2.140   0.515  0.00  0.00    +0.028 A 
ATOM      3  C   UNL     1       5.287  -2.631   0.299  0.00  0.00    +0.125 A 
ATOM      4  N   UNL     1       5.817  -1.962  -0.744  0.00  0.00    -0.263 N 
ATOM      5  H   UNL     1       6.703  -2.095  -1.117  0.00  0.00    +0.190 HD
ATOM      6  N   UNL     1       4.859  -1.041  -1.198  0.00  0.00    -0.172 NA
ATOM      7  N   UNL     1       5.822  -3.658   1.077  0.00  0.00    -0.270 N 
ATOM      8  C   UNL     1       4.998  -4.304   1.930  0.00  0.00    +0.219 C 
ATOM      9  O   UNL     1       5.475  -5.065   2.745  0.00  0.00    -0.275 OA
ATOM     10  C   UNL     1       3.508  -4.110   1.901  0.00  0.00    +0.109 C 
ATOM     11  C   UNL     1       3.143  -2.649   1.623  0.00  0.00    +0.063 C 
ATOM     12  H   UNL     1       6.758  -3.901   1.008  0.00  0.00    +0.156 HD
ENDROOT
BRANCH  11  13
ATOM     13  C   UNL     1       1.699  -2.557   1.202  0.00  0.00    -0.039 A 
ATOM     14  C   UNL     1       1.295  -3.103  -0.002  0.00  0.00    +0.005 A 
ATOM     15  C   UNL     1      -0.029  -3.019  -0.389  0.00  0.00    +0.020 A 
ATOM     16  C   UNL     1      -0.950  -2.388   0.428  0.00  0.00    +0.041 A 
ATOM     17  C   UNL     1      -0.545  -1.841   1.633  0.00  0.00    +0.020 A 
ATOM     18  C   UNL     1       0.779  -1.931   2.021  0.00  0.00    +0.005 A 
ATOM     19 CL   UNL     1      -2.613  -2.282  -0.058  0.00  0.00    -0.084 Cl
ENDBRANCH  11  13
BRANCH   1  23
ATOM     20  C   UNL     1       0.211   1.124  -0.823  0.00  0.00    +0.000 A 
ATOM     21  C   UNL     1       0.769   0.924   0.427  0.00  0.00    +0.001 A 
ATOM     22  C   UNL     1       1.929   0.188   0.558  0.00  0.00    +0.010 A 
ATOM     23  C   UNL     1       2.538  -0.355  -0.571  0.00  0.00    +0.002 A 
ATOM     24  C   UNL     1       1.972  -0.151  -1.828  0.00  0.00    +0.010 A 
ATOM     25  C   UNL     1       0.812   0.587  -1.948  0.00  0.00    +0.001 A 
ENDBRANCH   1  23
TORSDOF 2
