REMARK  Name = ZINC02218116
REMARK  6 active torsions:
REMARK  status: ('A' for Active; 'I' for Inactive)
REMARK    1  A    between atoms: C_3  and  C_6
REMARK    2  A    between atoms: C_8  and  C_31
REMARK    3  A    between atoms: C_9  and  S_18
REMARK    4  A    between atoms: S_18  and  C_19
REMARK    5  A    between atoms: C_19  and  C_20
REMARK    6  A    between atoms: N_22  and  C_23
REMARK                            x       y       z     vdW  Elec       q    Type
REMARK                         _______ _______ _______ _____ _____    ______ ____
ROOT
ATOM      1  C   UNL     1       3.635   0.668  -0.042  0.00  0.00    +0.132 C 
ATOM      2  C   UNL     1       4.091  -0.037  -1.285  0.00  0.00    +0.072 C 
ATOM      3  C   UNL     1       5.118  -0.928  -1.250  0.00  0.00    +0.080 C 
ATOM      4  N   UNL     1       5.753  -1.202  -0.060  0.00  0.00    -0.311 N 
ATOM      5  C   UNL     1       5.146  -0.921   1.133  0.00  0.00    +0.016 C 
ATOM      6  C   UNL     1       4.125  -0.041   1.195  0.00  0.00    +0.027 C 
ATOM      7  C   UNL     1       3.486   0.240   2.415  0.00  0.00    +0.162 C 
ATOM      8  O   UNL     1       2.574   1.043   2.439  0.00  0.00    -0.292 OA
ATOM      9  C   UNL     1       3.908  -0.433   3.692  0.00  0.00    +0.080 C 
ATOM     10  C   UNL     1       4.497  -1.808   3.359  0.00  0.00    +0.014 C 
ATOM     11  C   UNL     1       5.651  -1.615   2.375  0.00  0.00    +0.051 C 
ATOM     12  H   UNL     1       6.638  -1.599  -0.068  0.00  0.00    +0.152 HD
ENDROOT
BRANCH   1  15
ATOM     13  C   UNL     1       0.024   1.403   0.003  0.00  0.00    +0.041 A 
ATOM     14  C   UNL     1       1.373   1.824  -0.014  0.00  0.00    +0.045 A 
ATOM     15  C   UNL     1       2.128   0.711  -0.023  0.00  0.00    +0.117 A 
ATOM     16  O   UNL     1       1.312  -0.356  -0.013  0.00  0.00    -0.467 OA
ATOM     17  C   UNL     1       0.035   0.058   0.002  0.00  0.00    +0.195 A 
ENDBRANCH   1  15
BRANCH   2  18
ATOM     18  C   UNL     1       3.435   0.232  -2.529  0.00  0.00    +0.098 C 
ATOM     19  N   UNL     1       2.914   0.445  -3.516  0.00  0.00    -0.191 NA
ENDBRANCH   2  18
BRANCH   3  20
ATOM     20  S   UNL     1       5.636  -1.734  -2.729  0.00  0.00    -0.100 S 
BRANCH  20  21
ATOM     21  C   UNL     1       7.000  -2.802  -2.193  0.00  0.00    +0.171 C 
BRANCH  21  22
ATOM     22  C   UNL     1       7.542  -3.558  -3.378  0.00  0.00    +0.227 C 
ATOM     23  O   UNL     1       7.055  -3.393  -4.477  0.00  0.00    -0.275 OA
ATOM     24  N   UNL     1       8.567  -4.418  -3.218  0.00  0.00    -0.284 N 
ATOM     25  H   UNL     1       8.999  -4.502  -2.353  0.00  0.00    +0.155 HD
BRANCH  24  26
ATOM     26  C   UNL     1       9.009  -5.190  -4.299  0.00  0.00    +0.052 A 
ATOM     27  C   UNL     1       8.982  -4.666  -5.585  0.00  0.00    +0.026 A 
ATOM     28  C   UNL     1       9.418  -5.430  -6.650  0.00  0.00    +0.022 A 
ATOM     29  C   UNL     1       9.883  -6.716  -6.437  0.00  0.00    +0.042 A 
ATOM     30  C   UNL     1       9.911  -7.241  -5.157  0.00  0.00    +0.041 A 
ATOM     31  C   UNL     1       9.482  -6.479  -4.087  0.00  0.00    +0.064 A 
ATOM     32 CL   UNL     1       9.524  -7.136  -2.480  0.00  0.00    -0.082 Cl
ATOM     33 CL   UNL     1      10.429  -7.673  -7.778  0.00  0.00    -0.083 Cl
ENDBRANCH  24  26
ENDBRANCH  21  22
ENDBRANCH  20  21
ENDBRANCH   3  20
TORSDOF 6
