REMARK  Name = ZINC10981569
REMARK  12 active torsions:
REMARK  status: ('A' for Active; 'I' for Inactive)
REMARK    1  A    between atoms: C_1  and  C_2
REMARK    2  A    between atoms: C_5  and  C_9
REMARK    3  A    between atoms: C_7  and  O_8
REMARK    4  A    between atoms: C_9  and  O_11
REMARK    5  A    between atoms: O_11  and  C_12
REMARK    6  A    between atoms: C_12  and  C_13
REMARK    7  A    between atoms: C_13  and  C_14
REMARK    8  A    between atoms: C_14  and  O_15
REMARK    9  A    between atoms: O_15  and  C_16
REMARK   10  A    between atoms: C_16  and  C_18
REMARK   11  A    between atoms: C_21  and  C_25
REMARK   12  A    between atoms: C_22  and  O_24
REMARK                            x       y       z     vdW  Elec       q    Type
REMARK                         _______ _______ _______ _____ _____    ______ ____
ROOT
ATOM      1  C   UNL     1       1.418   1.977  -0.001  0.00  0.00    +0.082 C 
ENDROOT
BRANCH   1   2
ATOM      2  C   UNL     1      -0.018   1.448   0.010  0.00  0.00    +0.236 C 
BRANCH   2   3
ATOM      3  O   UNL     1       0.002  -0.004   0.002  0.00  0.00    -0.461 OA
BRANCH   3   4
ATOM      4  C   UNL     1      -1.190  -0.632   0.010  0.00  0.00    +0.339 C 
ATOM      5  O   UNL     1      -2.217   0.016   0.023  0.00  0.00    -0.245 OA
BRANCH   4  10
ATOM      6  C   UNL     1      -1.401  -6.385  -0.019  0.00  0.00    +0.047 C 
ATOM      7  C   UNL     1      -1.348  -4.879  -0.012  0.00  0.00    -0.009 A 
ATOM      8  C   UNL     1      -0.125  -4.234  -0.020  0.00  0.00    +0.008 A 
ATOM      9  C   UNL     1      -0.067  -2.855  -0.018  0.00  0.00    +0.015 A 
ATOM     10  C   UNL     1      -1.247  -2.108   0.003  0.00  0.00    +0.062 A 
ATOM     11  C   UNL     1      -2.480  -2.761   0.011  0.00  0.00    +0.060 A 
ATOM     12  C   UNL     1      -2.526  -4.145   0.003  0.00  0.00    +0.121 A 
BRANCH  12  13
ATOM     13  O   UNL     1      -3.725  -4.785   0.011  0.00  0.00    -0.506 OA
ATOM     14  H   UNL     1      -4.080  -4.965  -0.870  0.00  0.00    +0.292 HD
ENDBRANCH  12  13
ENDBRANCH   4  10
ENDBRANCH   3   4
ENDBRANCH   2   3
ENDBRANCH   1   2
BRANCH   1  15
ATOM     15  C   UNL     1       1.397   3.507   0.008  0.00  0.00    +0.236 C 
BRANCH  15  16
ATOM     16  O   UNL     1       2.759   4.010  -0.003  0.00  0.00    -0.461 OA
BRANCH  16  17
ATOM     17  C   UNL     1       2.918   5.348   0.003  0.00  0.00    +0.339 C 
ATOM     18  O   UNL     1       1.944   6.074   0.016  0.00  0.00    -0.245 OA
BRANCH  17  19
ATOM     19  C   UNL     1       4.275   5.931  -0.007  0.00  0.00    +0.062 A 
ATOM     20  C   UNL     1       5.396   5.098  -0.016  0.00  0.00    +0.015 A 
ATOM     21  C   UNL     1       6.662   5.646  -0.031  0.00  0.00    +0.008 A 
ATOM     22  C   UNL     1       6.825   7.019  -0.025  0.00  0.00    -0.009 A 
ATOM     23  C   UNL     1       5.718   7.855  -0.010  0.00  0.00    +0.121 A 
ATOM     24  C   UNL     1       4.442   7.316  -0.001  0.00  0.00    +0.060 A 
ATOM     25  C   UNL     1       8.212   7.610  -0.035  0.00  0.00    +0.047 C 
BRANCH  23  26
ATOM     26  O   UNL     1       5.885   9.204  -0.004  0.00  0.00    -0.506 OA
ATOM     27  H   UNL     1       5.941   9.590   0.881  0.00  0.00    +0.292 HD
ENDBRANCH  23  26
ENDBRANCH  17  19
ENDBRANCH  16  17
ENDBRANCH  15  16
ENDBRANCH   1  15
TORSDOF 10
