REMARK  Name = ZINC08373797
REMARK  8 active torsions:
REMARK  status: ('A' for Active; 'I' for Inactive)
REMARK    1  A    between atoms: C_1  and  N_50
REMARK    2  A    between atoms: C_2  and  N_50
REMARK    3  A    between atoms: C_3  and  C_4
REMARK    4  A    between atoms: C_3  and  N_50
REMARK    5  A    between atoms: C_4  and  C_5
REMARK    6  A    between atoms: C_5  and  N_6
REMARK    7  A    between atoms: C_7  and  C_23
REMARK    8  A    between atoms: C_27  and  O_29
REMARK                            x       y       z     vdW  Elec       q    Type
REMARK                         _______ _______ _______ _____ _____    ______ ____
ROOT
ATOM      1  N   UNL     1       0.002  -0.004   0.002  0.00  0.00    -0.284 N 
ATOM      2  C   UNL     1      -1.020  -0.878  -0.587  0.00  0.00    +0.145 C 
ATOM      3  C   UNL     1      -0.552  -2.289  -0.341  0.00  0.00    +0.072 A 
ATOM      4  C   UNL     1      -1.119  -3.597  -0.678  0.00  0.00    +0.199 A 
ATOM      5  O   UNL     1      -2.176  -3.700  -1.277  0.00  0.00    -0.287 OA
ATOM      6  C   UNL     1      -0.347  -4.783  -0.258  0.00  0.00    +0.066 A 
ATOM      7  C   UNL     1      -0.795  -6.075  -0.527  0.00  0.00    +0.035 A 
ATOM      8  C   UNL     1      -0.043  -7.154  -0.116  0.00  0.00    +0.042 A 
ATOM      9  C   UNL     1       1.153  -6.954   0.562  0.00  0.00    +0.023 A 
ATOM     10  C   UNL     1       1.605  -5.682   0.833  0.00  0.00    +0.048 A 
ATOM     11  C   UNL     1       0.862  -4.577   0.427  0.00  0.00    +0.140 A 
ATOM     12  O   UNL     1       1.294  -3.329   0.688  0.00  0.00    -0.450 OA
ATOM     13  C   UNL     1       0.627  -2.216   0.326  0.00  0.00    +0.199 A 
ATOM     14  C   UNL     1       0.962  -0.785   0.527  0.00  0.00    +0.283 C 
ATOM     15  O   UNL     1       1.960  -0.377   1.088  0.00  0.00    -0.267 OA
ATOM     16 CL   UNL     1      -0.591  -8.768  -0.447  0.00  0.00    -0.084 Cl
ENDROOT
BRANCH   2  17
ATOM     17  C   UNL     1      -2.349  -0.648   0.085  0.00  0.00    -0.019 A 
ATOM     18  C   UNL     1      -2.408  -0.454   1.453  0.00  0.00    +0.006 A 
ATOM     19  C   UNL     1      -3.625  -0.242   2.072  0.00  0.00    +0.004 A 
ATOM     20  C   UNL     1      -4.788  -0.225   1.325  0.00  0.00    +0.045 A 
ATOM     21  C   UNL     1      -4.732  -0.419  -0.047  0.00  0.00    +0.117 A 
ATOM     22  C   UNL     1      -3.508  -0.626  -0.667  0.00  0.00    +0.051 A 
BRANCH  21  23
ATOM     23  O   UNL     1      -5.873  -0.403  -0.784  0.00  0.00    -0.507 OA
ATOM     24  H   UNL     1      -6.114   0.473  -1.117  0.00  0.00    +0.292 HD
ENDBRANCH  21  23
ENDBRANCH   2  17
BRANCH   1  25
ATOM     25  C   UNL     1      -0.018   1.461   0.010  0.00  0.00    +0.107 C 
BRANCH  25  26
ATOM     26  C   UNL     1      -0.734   1.954   1.269  0.00  0.00    +0.000 C 
BRANCH  26  27
ATOM     27  C   UNL     1      -0.755   3.484   1.277  0.00  0.00    -0.078 C 
BRANCH  27  30
ATOM     28  C   UNL     1      -0.682   3.612   3.694  0.00  0.00    -0.097 C 
ATOM     29  C   UNL     1      -1.692   5.404   2.417  0.00  0.00    -0.097 C 
ATOM     30  N   UNL     1      -1.468   3.945   2.487  0.00  0.00    +0.376 N 
ATOM     31  H   UNL     1      -2.377   3.470   2.540  0.00  0.00    -0.083 HD
ENDBRANCH  27  30
ENDBRANCH  26  27
ENDBRANCH  25  26
ENDBRANCH   1  25
TORSDOF 6
