REMARK  Name = ZINC64538300
REMARK  9 active torsions:
REMARK  status: ('A' for Active; 'I' for Inactive)
REMARK    1  A    between atoms: C_1  and  C_2
REMARK    2  A    between atoms: C_7  and  C_8
REMARK    3  A    between atoms: N_9  and  C_19
REMARK    4  A    between atoms: C_12  and  C_15
REMARK    5  A    between atoms: C_19  and  C_21
REMARK    6  A    between atoms: C_19  and  C_22
REMARK    7  A    between atoms: N_24  and  C_25
REMARK    8  A    between atoms: C_25  and  C_26
REMARK    9  A    between atoms: C_26  and  C_27
REMARK                            x       y       z     vdW  Elec       q    Type
REMARK                         _______ _______ _______ _____ _____    ______ ____
ROOT
ATOM      1  C   UNL     1       0.234   1.501  -0.059  0.00  0.00    +0.044 C 
ATOM      2  C   UNL     1       0.188  -0.005  -0.049  0.00  0.00    -0.046 A 
ATOM      3  C   UNL     1       0.128  -0.702  -1.244  0.00  0.00    +0.028 A 
ATOM      4  C   UNL     1       0.087  -2.084  -1.230  0.00  0.00    +0.050 A 
ATOM      5  C   UNL     1       0.107  -2.775  -0.017  0.00  0.00    +0.058 A 
ATOM      6  C   UNL     1       0.164  -2.070   1.174  0.00  0.00    +0.029 A 
ATOM      7  C   UNL     1       0.210  -0.687   1.153  0.00  0.00    -0.046 A 
ATOM      8  C   UNL     1       0.279   0.080   2.449  0.00  0.00    +0.044 C 
ATOM      9  N   UNL     1       0.076  -4.175  -0.019  0.00  0.00    -0.256 N 
ATOM     10  C   UNL     1      -0.257  -4.853  -1.133  0.00  0.00    +0.250 C 
ATOM     11  O   UNL     1      -0.235  -6.066  -1.126  0.00  0.00    -0.273 OA
ATOM     12  C   UNL     1      -0.657  -4.123  -2.390  0.00  0.00    +0.262 C 
ATOM     13  N   UNL     1       0.020  -2.818  -2.422  0.00  0.00    -0.325 N 
ATOM     14  H   UNL     1       0.408  -2.476  -3.243  0.00  0.00    +0.147 HD
ENDROOT
BRANCH  12  15
ATOM     15  C   UNL     1      -2.173  -3.916  -2.401  0.00  0.00    +0.416 C 
ATOM     16  F   UNL     1      -2.549  -3.162  -1.285  0.00  0.00    -0.168 F 
ATOM     17  F   UNL     1      -2.542  -3.239  -3.568  0.00  0.00    -0.168 F 
ATOM     18  F   UNL     1      -2.813  -5.159  -2.361  0.00  0.00    -0.168 F 
ENDBRANCH  12  15
BRANCH   9  19
ATOM     19  C   UNL     1       0.410  -4.909   1.204  0.00  0.00    +0.164 C 
ATOM     20  C   UNL     1       1.584  -5.851   0.929  0.00  0.00    +0.038 C 
BRANCH  19  21
ATOM     21  C   UNL     1      -0.785  -5.713   1.650  0.00  0.00    +0.234 C 
ATOM     22  O   UNL     1      -1.813  -5.676   1.008  0.00  0.00    -0.274 OA
ATOM     23  N   UNL     1      -0.710  -6.473   2.760  0.00  0.00    -0.313 N 
ATOM     24  H   UNL     1       0.113  -6.502   3.273  0.00  0.00    +0.149 HD
BRANCH  23  25
ATOM     25  C   UNL     1      -1.871  -7.254   3.193  0.00  0.00    +0.108 C 
BRANCH  25  26
ATOM     26  C   UNL     1      -1.522  -8.021   4.470  0.00  0.00    +0.052 C 
BRANCH  26  27
ATOM     27  C   UNL     1      -2.717  -8.825   4.916  0.00  0.00    -0.040 C 
ATOM     28  C   UNL     1      -2.970 -10.125   4.641  0.00  0.00    -0.001 A 
ATOM     29  C   UNL     1      -2.238 -11.140   3.875  0.00  0.00    +0.010 A 
ATOM     30  C   UNL     1      -2.756 -12.386   3.775  0.00  0.00    +0.001 A 
ATOM     31  C   UNL     1      -3.971 -12.730   4.382  0.00  0.00    +0.002 A 
ATOM     32  C   UNL     1      -4.701 -11.852   5.102  0.00  0.00    +0.026 A 
ATOM     33  C   UNL     1      -4.251 -10.513   5.274  0.00  0.00    +0.043 A 
ATOM     34  N   UNL     1      -4.769  -9.493   5.914  0.00  0.00    -0.380 N 
ATOM     35  C   UNL     1      -3.872  -8.342   5.765  0.00  0.00    +0.144 C 
ATOM     36  H   UNL     1      -5.604  -9.500   6.407  0.00  0.00    +0.160 HD
ENDBRANCH  26  27
ENDBRANCH  25  26
ENDBRANCH  23  25
ENDBRANCH  19  21
ENDBRANCH   9  19
TORSDOF 6
