REMARK  Name = ZINC39205271
REMARK  6 active torsions:
REMARK  status: ('A' for Active; 'I' for Inactive)
REMARK    1  A    between atoms: C_1  and  C_2
REMARK    2  A    between atoms: C_2  and  C_3
REMARK    3  A    between atoms: C_3  and  C_4
REMARK    4  A    between atoms: C_6  and  C_18
REMARK    5  A    between atoms: C_8  and  C_16
REMARK    6  A    between atoms: C_9  and  N_15
REMARK                            x       y       z     vdW  Elec       q    Type
REMARK                         _______ _______ _______ _____ _____    ______ ____
ROOT
ATOM      1  C   UNL     1       0.848  -1.802  -1.755  0.00  0.00    +0.069 C 
ATOM      2  C   UNL     1      -0.102  -2.555  -2.254  0.00  0.00    +0.030 C 
ATOM      3  C   UNL     1      -1.463  -2.264  -2.826  0.00  0.00    +0.098 C 
ATOM      4  C   UNL     1      -2.380  -3.332  -2.259  0.00  0.00    +0.097 C 
ATOM      5  C   UNL     1      -1.898  -4.386  -1.567  0.00  0.00    +0.195 C 
ATOM      6  O   UNL     1      -0.610  -4.628  -1.264  0.00  0.00    -0.448 OA
ATOM      7  C   UNL     1       0.388  -3.991  -2.067  0.00  0.00    +0.343 C 
ATOM      8  N   UNL     1       1.643  -3.792  -1.336  0.00  0.00    -0.138 NA
ATOM      9  N   UNL     1       1.835  -2.574  -1.233  0.00  0.00    -0.155 NA
ENDROOT
BRANCH   3  10
ATOM     10  C   UNL     1      -1.926  -0.895  -2.399  0.00  0.00    -0.027 A 
ATOM     11  C   UNL     1      -2.184  -0.639  -1.087  0.00  0.00    +0.005 A 
ATOM     12  C   UNL     1      -2.613   0.621  -0.673  0.00  0.00    +0.001 A 
ATOM     13  C   UNL     1      -2.786   1.631  -1.568  0.00  0.00    +0.008 A 
ATOM     14  C   UNL     1      -2.529   1.405  -2.931  0.00  0.00    -0.018 A 
ATOM     15  C   UNL     1      -2.087   0.125  -3.351  0.00  0.00    -0.014 A 
ATOM     16  C   UNL     1      -1.824  -0.100  -4.713  0.00  0.00    +0.009 A 
ATOM     17  C   UNL     1      -1.992   0.912  -5.607  0.00  0.00    +0.001 A 
ATOM     18  C   UNL     1      -2.420   2.172  -5.193  0.00  0.00    +0.001 A 
ATOM     19  C   UNL     1      -2.697   2.423  -3.885  0.00  0.00    +0.008 A 
ENDBRANCH   3  10
BRANCH   5  20
ATOM     20  N   UNL     1      -2.817  -5.305  -1.127  0.00  0.00    -0.329 N 
ATOM     21  H   UNL     1      -3.760  -5.178  -1.318  0.00  0.00    +0.145 HD
ATOM     22  H   UNL     1      -2.524  -6.081  -0.625  0.00  0.00    +0.145 HD
ENDBRANCH   5  20
BRANCH   4  23
ATOM     23  C   UNL     1      -3.793  -3.218  -2.462  0.00  0.00    +0.101 C 
ATOM     24  N   UNL     1      -4.913  -3.127  -2.623  0.00  0.00    -0.191 NA
ENDBRANCH   4  23
BRANCH   1  25
ATOM     25  C   UNL     1       0.848  -0.295  -1.766  0.00  0.00    +0.057 C 
BRANCH  25  27
ATOM     26  C   UNL     1       1.461   1.731  -3.093  0.00  0.00    +0.004 C 
ATOM     27  C   UNL     1       1.567   0.206  -3.020  0.00  0.00    +0.003 C 
ENDBRANCH  25  27
ENDBRANCH   1  25
TORSDOF 5
