REMARK  Name = ZINC19592937
REMARK  7 active torsions:
REMARK  status: ('A' for Active; 'I' for Inactive)
REMARK    1  A    between atoms: C_1  and  O_2
REMARK    2  A    between atoms: O_2  and  C_3
REMARK    3  A    between atoms: C_3  and  C_4
REMARK    4  A    between atoms: C_14  and  C_16
REMARK    5  A    between atoms: C_19  and  N_22
REMARK    6  A    between atoms: N_22  and  C_23
REMARK    7  A    between atoms: C_23  and  C_24
REMARK                            x       y       z     vdW  Elec       q    Type
REMARK                         _______ _______ _______ _____ _____    ______ ____
ROOT
ATOM      1  C   UNL     1      -6.709  -0.931   2.070  0.00  0.00    -0.022 A 
ATOM      2  C   UNL     1      -6.285   0.105   2.881  0.00  0.00    +0.007 A 
ATOM      3  C   UNL     1      -5.083   0.736   2.627  0.00  0.00    +0.023 A 
ATOM      4  C   UNL     1      -4.300   0.327   1.554  0.00  0.00    +0.027 A 
ATOM      5  C   UNL     1      -4.732  -0.711   0.739  0.00  0.00    +0.023 A 
ATOM      6  C   UNL     1      -5.932  -1.341   1.002  0.00  0.00    +0.007 A 
ENDROOT
BRANCH   1  17
ATOM      7  C   UNL     1      -8.719  -0.362   0.371  0.00  0.00    +0.242 C 
ATOM      8  O   UNL     1      -7.667   0.241   0.412  0.00  0.00    -0.273 OA
ATOM      9  N   UNL     1      -8.972  -1.337   1.267  0.00  0.00    -0.288 N 
ATOM     10  C   UNL     1     -10.203  -2.136   1.172  0.00  0.00    +0.114 C 
ATOM     11  C   UNL     1      -9.813  -3.592   0.873  0.00  0.00    +0.062 C 
ATOM     12  C   UNL     1      -8.648  -3.961   1.733  0.00  0.00    -0.003 A 
ATOM     13  C   UNL     1      -7.812  -3.129   2.412  0.00  0.00    -0.012 A 
ATOM     14  C   UNL     1      -6.789  -3.730   3.143  0.00  0.00    +0.013 A 
ATOM     15  C   UNL     1      -6.666  -5.077   3.153  0.00  0.00    +0.046 A 
ATOM     16  S   UNL     1      -8.023  -5.579   2.105  0.00  0.00    -0.101 S 
ATOM     17  C   UNL     1      -8.021  -1.617   2.352  0.00  0.00    +0.137 C 
BRANCH   7  18
ATOM     18  C   UNL     1      -9.742  -0.022  -0.681  0.00  0.00    +0.255 C 
BRANCH  18  20
ATOM     19  C   UNL     1     -10.143   1.435  -2.541  0.00  0.00    +0.194 C 
ATOM     20  O   UNL     1      -9.245   1.034  -1.505  0.00  0.00    -0.374 OA
ENDBRANCH  18  20
ENDBRANCH   7  18
ENDBRANCH   1  17
BRANCH   4  21
ATOM     21  N   UNL     1      -3.084   0.963   1.294  0.00  0.00    -0.340 N 
ATOM     22  H   UNL     1      -2.745   1.788   1.938  0.00  0.00    +0.146 HD
BRANCH  21  23
ATOM     23  C   UNL     1      -2.259   0.531   0.162  0.00  0.00    +0.139 C 
BRANCH  23  24
ATOM     24  C   UNL     1      -1.010   1.371   0.101  0.00  0.00    +0.005 A 
ATOM     25  C   UNL     1       0.200   0.841   0.509  0.00  0.00    +0.011 A 
ATOM     26  C   UNL     1       1.348   1.609   0.448  0.00  0.00    +0.039 A 
ATOM     27  C   UNL     1       1.286   2.912  -0.016  0.00  0.00    +0.126 A 
ATOM     28  C   UNL     1       0.074   3.446  -0.419  0.00  0.00    +0.077 A 
ATOM     29  C   UNL     1      -1.075   2.676  -0.358  0.00  0.00    +0.131 A 
ATOM     30  F   UNL     1      -2.258   3.195  -0.751  0.00  0.00    -0.205 F 
ATOM     31  F   UNL     1       2.408   3.662  -0.075  0.00  0.00    -0.205 F 
ENDBRANCH  23  24
ENDBRANCH  21  23
ENDBRANCH   4  21
TORSDOF 6
