REMARK  Name = ZINC34733906
REMARK  2 active torsions:
REMARK  status: ('A' for Active; 'I' for Inactive)
REMARK    1  A    between atoms: C_1  and  N_2
REMARK    2  A    between atoms: N_15  and  N_16
REMARK                            x       y       z     vdW  Elec       q    Type
REMARK                         _______ _______ _______ _____ _____    ______ ____
ROOT
ATOM      1  C   UNL     1      -0.018   1.461   0.010  0.00  0.00    +0.128 C 
ATOM      2  N   UNL     1       0.002  -0.004   0.002  0.00  0.00    -0.316 N 
ATOM      3  C   UNL     1      -1.188  -0.713   0.010  0.00  0.00    +0.218 A 
ATOM      4  N   UNL     1      -1.155  -2.040   0.008  0.00  0.00    -0.198 NA
ATOM      5  C   UNL     1      -2.257  -2.771   0.014  0.00  0.00    +0.146 A 
ATOM      6  C   UNL     1      -3.521  -2.117   0.024  0.00  0.00    +0.052 A 
ATOM      7  C   UNL     1      -4.863  -2.723   0.032  0.00  0.00    -0.025 A 
ATOM      8  C   UNL     1      -5.909  -1.882   0.040  0.00  0.00    -0.004 A 
ATOM      9  S   UNL     1      -5.193  -0.254   0.040  0.00  0.00    -0.073 S 
ATOM     10  C   UNL     1      -3.481  -0.712   0.026  0.00  0.00    +0.116 A 
ATOM     11  N   UNL     1      -2.337  -0.052   0.024  0.00  0.00    -0.207 NA
ATOM     12  C   UNL     1      -7.226  -2.611   0.043  0.00  0.00    +0.043 C 
ATOM     13  C   UNL     1      -6.874  -4.048  -0.399  0.00  0.00    +0.010 C 
ATOM     14  C   UNL     1      -5.400  -4.158   0.038  0.00  0.00    +0.037 C 
ATOM     15  N   UNL     1      -2.183  -4.152   0.011  0.00  0.00    -0.262 N 
ATOM     16  H   UNL     1       0.849  -0.478  -0.009  0.00  0.00    +0.149 HD
ATOM     17  H   UNL     1      -2.996  -4.681   0.016  0.00  0.00    +0.168 HD
ENDROOT
BRANCH  15  18
ATOM     18  N   UNL     1      -0.965  -4.770   0.001  0.00  0.00    -0.228 NA
ATOM     19  C   UNL     1      -0.788  -5.612   1.204  0.00  0.00    +0.105 C 
ATOM     20  C   UNL     1      -1.139  -7.047   0.738  0.00  0.00    +0.018 C 
ATOM     21  C   UNL     1      -0.556  -7.060  -0.700  0.00  0.00    +0.018 C 
ATOM     22  C   UNL     1      -0.814  -5.621  -1.193  0.00  0.00    +0.105 C 
ENDBRANCH  15  18
TORSDOF 1
