REMARK  Name = ZINC63588623
REMARK  8 active torsions:
REMARK  status: ('A' for Active; 'I' for Inactive)
REMARK    1  A    between atoms: C_1  and  C_2
REMARK    2  A    between atoms: C_5  and  N_9
REMARK    3  A    between atoms: C_6  and  C_8
REMARK    4  A    between atoms: N_11  and  C_12
REMARK    5  A    between atoms: C_12  and  C_13
REMARK    6  A    between atoms: C_13  and  C_14
REMARK    7  A    between atoms: N_23  and  C_24
REMARK    8  A    between atoms: C_24  and  C_26
REMARK                            x       y       z     vdW  Elec       q    Type
REMARK                         _______ _______ _______ _____ _____    ______ ____
ROOT
ATOM      1  N   UNL     1      -1.060  -4.530  -0.992  0.00  0.00    -0.328 N 
ATOM      2  C   UNL     1      -0.216  -5.282  -1.759  0.00  0.00    +0.194 C 
ATOM      3  N   UNL     1       0.263  -6.468  -1.285  0.00  0.00    -0.357 N 
ATOM      4  N   UNL     1       0.136  -4.860  -2.964  0.00  0.00    -0.143 NA
ATOM      5  H   UNL     1       0.905  -6.975  -1.806  0.00  0.00    +0.162 HD
ATOM      6  H   UNL     1      -2.000  -4.469  -1.222  0.00  0.00    +0.169 HD
ENDROOT
BRANCH   1  11
ATOM      7  C   UNL     1       0.937  -1.764   3.540  0.00  0.00    +0.044 C 
ATOM      8  C   UNL     1       0.407  -2.498   2.336  0.00  0.00    -0.050 A 
ATOM      9  C   UNL     1       1.282  -3.139   1.478  0.00  0.00    +0.005 A 
ATOM     10  C   UNL     1       0.799  -3.814   0.374  0.00  0.00    +0.026 A 
ATOM     11  C   UNL     1      -0.567  -3.848   0.126  0.00  0.00    +0.045 A 
ATOM     12  C   UNL     1      -1.443  -3.204   0.989  0.00  0.00    -0.027 A 
ATOM     13  C   UNL     1      -0.954  -2.535   2.095  0.00  0.00    +0.008 A 
ATOM     14  C   UNL     1      -2.926  -3.238   0.723  0.00  0.00    +0.046 C 
ENDBRANCH   1  11
BRANCH   4  15
ATOM     15  C   UNL     1      -0.185  -3.620  -3.360  0.00  0.00    +0.270 C 
ATOM     16  O   UNL     1      -0.692  -2.841  -2.572  0.00  0.00    -0.268 OA
BRANCH  15  17
ATOM     17  C   UNL     1       0.075  -3.198  -4.753  0.00  0.00    +0.043 A 
ATOM     18  C   UNL     1       0.545  -4.123  -5.688  0.00  0.00    +0.017 A 
ATOM     19  C   UNL     1       0.787  -3.729  -6.986  0.00  0.00    +0.050 A 
ATOM     20  C   UNL     1       0.566  -2.413  -7.369  0.00  0.00    +0.166 A 
ATOM     21  C   UNL     1       0.097  -1.484  -6.439  0.00  0.00    +0.167 A 
ATOM     22  C   UNL     1      -0.153  -1.876  -5.138  0.00  0.00    +0.062 A 
ATOM     23  O   UNL     1      -0.036  -0.275  -7.060  0.00  0.00    -0.453 OA
ATOM     24  C   UNL     1       0.742  -0.377  -8.268  0.00  0.00    +0.466 C 
ATOM     25  O   UNL     1       0.725  -1.784  -8.569  0.00  0.00    -0.453 OA
ENDBRANCH  15  17
ENDBRANCH   4  15
BRANCH   3  26
ATOM     26  C   UNL     1      -0.190  -6.975   0.013  0.00  0.00    +0.120 C 
BRANCH  26  27
ATOM     27  C   UNL     1       0.537  -8.283   0.332  0.00  0.00    +0.054 C 
BRANCH  27  28
ATOM     28  C   UNL     1      -0.014  -8.865   1.608  0.00  0.00    -0.040 C 
ATOM     29  C   UNL     1      -1.123  -9.628   1.741  0.00  0.00    -0.001 A 
ATOM     30  C   UNL     1      -2.110 -10.124   0.775  0.00  0.00    +0.010 A 
ATOM     31  C   UNL     1      -3.137 -10.884   1.219  0.00  0.00    +0.001 A 
ATOM     32  C   UNL     1      -3.282 -11.209   2.575  0.00  0.00    +0.002 A 
ATOM     33  C   UNL     1      -2.415 -10.791   3.521  0.00  0.00    +0.026 A 
ATOM     34  C   UNL     1      -1.297  -9.986   3.167  0.00  0.00    +0.043 A 
ATOM     35  N   UNL     1      -0.334  -9.464   3.887  0.00  0.00    -0.380 N 
ATOM     36  C   UNL     1       0.565  -8.721   2.997  0.00  0.00    +0.144 C 
ATOM     37  H   UNL     1      -0.231  -9.557   4.847  0.00  0.00    +0.160 HD
ENDBRANCH  27  28
ENDBRANCH  26  27
ENDBRANCH   3  26
TORSDOF 6
