REMARK  Name = ZINC39586079
REMARK  7 active torsions:
REMARK  status: ('A' for Active; 'I' for Inactive)
REMARK    1  A    between atoms: C_1  and  C_2
REMARK    2  A    between atoms: C_2  and  C_4
REMARK    3  A    between atoms: C_2  and  S_15
REMARK    4  A    between atoms: C_7  and  C_9
REMARK    5  A    between atoms: S_15  and  C_16
REMARK    6  A    between atoms: C_20  and  C_29
REMARK    7  A    between atoms: N_21  and  C_22
REMARK                            x       y       z     vdW  Elec       q    Type
REMARK                         _______ _______ _______ _____ _____    ______ ____
ROOT
ATOM      1  C   UNL     1      -2.297  -0.168  -1.314  0.00  0.00    +0.242 C 
ATOM      2  N   UNL     1      -1.711  -0.893  -2.454  0.00  0.00    -0.237 N 
ATOM      3  N   UNL     1      -1.398   0.071  -3.420  0.00  0.00    -0.169 NA
ATOM      4  C   UNL     1      -1.717   1.272  -3.013  0.00  0.00    +0.151 C 
ATOM      5  N   UNL     1      -2.280   1.244  -1.731  0.00  0.00    -0.254 N 
ATOM      6  H   UNL     1      -1.569  -1.850  -2.522  0.00  0.00    +0.171 HD
ENDROOT
BRANCH   4   7
ATOM      7  C   UNL     1      -1.522   2.440  -3.765  0.00  0.00    +0.022 C 
ATOM      8  C   UNL     1      -0.876   2.552  -4.997  0.00  0.00    +0.006 A 
ATOM      9  C   UNL     1      -0.251   1.604  -5.835  0.00  0.00    +0.010 A 
ATOM     10  C   UNL     1       0.308   2.005  -7.006  0.00  0.00    +0.001 A 
ATOM     11  C   UNL     1       0.283   3.342  -7.408  0.00  0.00    +0.002 A 
ATOM     12  C   UNL     1      -0.300   4.306  -6.652  0.00  0.00    +0.026 A 
ATOM     13  C   UNL     1      -0.906   3.963  -5.416  0.00  0.00    +0.043 A 
ATOM     14  N   UNL     1      -1.526   4.699  -4.515  0.00  0.00    -0.380 N 
ATOM     15  C   UNL     1      -1.973   3.841  -3.413  0.00  0.00    +0.152 C 
ATOM     16  H   UNL     1      -1.668   5.657  -4.574  0.00  0.00    +0.160 HD
ENDBRANCH   4   7
BRANCH   5  17
ATOM     17  C   UNL     1      -2.736   2.339  -0.991  0.00  0.00    +0.038 A 
ATOM     18  C   UNL     1      -1.844   3.323  -0.585  0.00  0.00    +0.025 A 
ATOM     19  C   UNL     1      -2.297   4.404   0.146  0.00  0.00    +0.022 A 
ATOM     20  C   UNL     1      -3.637   4.506   0.474  0.00  0.00    +0.041 A 
ATOM     21  C   UNL     1      -4.528   3.527   0.071  0.00  0.00    +0.022 A 
ATOM     22  C   UNL     1      -4.082   2.447  -0.666  0.00  0.00    +0.025 A 
ATOM     23 CL   UNL     1      -4.203   5.866   1.393  0.00  0.00    -0.084 Cl
ENDBRANCH   5  17
BRANCH   1  24
ATOM     24  S   UNL     1      -1.288  -0.403   0.174  0.00  0.00    -0.105 S 
BRANCH  24  26
ATOM     25  C   UNL     1       0.609   1.324  -0.774  0.00  0.00    +0.029 C 
ATOM     26  C   UNL     1       0.412  -0.147  -0.404  0.00  0.00    +0.134 C 
BRANCH  26  27
ATOM     27  C   UNL     1       1.377  -0.522   0.691  0.00  0.00    +0.230 A 
ATOM     28  N   UNL     1       1.278  -0.197   1.950  0.00  0.00    -0.111 NA
ATOM     29  N   UNL     1       2.274  -0.686   2.600  0.00  0.00    -0.107 NA
ATOM     30  C   UNL     1       3.050  -1.345   1.772  0.00  0.00    +0.248 A 
ATOM     31  O   UNL     1       2.493  -1.258   0.548  0.00  0.00    -0.419 OA
BRANCH  30  32
ATOM     32  C   UNL     1       4.299  -2.056   2.119  0.00  0.00    +0.038 A 
ATOM     33  C   UNL     1       5.030  -2.713   1.128  0.00  0.00    +0.013 A 
ATOM     34  C   UNL     1       6.195  -3.374   1.458  0.00  0.00    +0.001 A 
ATOM     35  C   UNL     1       6.639  -3.387   2.768  0.00  0.00    +0.000 A 
ATOM     36  C   UNL     1       5.920  -2.738   3.755  0.00  0.00    +0.001 A 
ATOM     37  C   UNL     1       4.756  -2.068   3.438  0.00  0.00    +0.013 A 
ENDBRANCH  30  32
ENDBRANCH  26  27
ENDBRANCH  24  26
ENDBRANCH   1  24
TORSDOF 6
