REMARK  Name = ZINC13063087
REMARK  10 active torsions:
REMARK  status: ('A' for Active; 'I' for Inactive)
REMARK    1  A    between atoms: C_1  and  N_2
REMARK    2  A    between atoms: N_2  and  C_3
REMARK    3  A    between atoms: N_2  and  S_11
REMARK    4  A    between atoms: C_8  and  O_9
REMARK    5  A    between atoms: O_9  and  C_10
REMARK    6  A    between atoms: S_11  and  C_14
REMARK    7  A    between atoms: C_17  and  C_20
REMARK    8  A    between atoms: N_22  and  C_23
REMARK    9  A    between atoms: C_23  and  C_24
REMARK   10  A    between atoms: C_24  and  N_72
REMARK                            x       y       z     vdW  Elec       q    Type
REMARK                         _______ _______ _______ _____ _____    ______ ____
ROOT
ATOM      1  C   UNL     1      -4.978  -1.294  -1.019  0.00  0.00    +0.109 A 
ATOM      2  C   UNL     1      -4.379  -1.929  -2.092  0.00  0.00    +0.029 A 
ATOM      3  C   UNL     1      -5.024  -2.968  -2.731  0.00  0.00    +0.015 A 
ATOM      4  C   UNL     1      -6.289  -3.371  -2.298  0.00  0.00    +0.037 A 
ATOM      5  C   UNL     1      -6.889  -2.722  -1.218  0.00  0.00    +0.015 A 
ATOM      6  C   UNL     1      -6.231  -1.688  -0.586  0.00  0.00    +0.029 A 
ENDROOT
BRANCH   4   7
ATOM      7  C   UNL     1      -6.988  -4.480  -2.981  0.00  0.00    +0.244 C 
ATOM      8  O   UNL     1      -8.089  -4.829  -2.602  0.00  0.00    -0.270 OA
ATOM      9  N   UNL     1      -6.405  -5.104  -4.023  0.00  0.00    -0.313 N 
ATOM     10  H   UNL     1      -5.527  -4.826  -4.325  0.00  0.00    +0.149 HD
BRANCH   9  11
ATOM     11  C   UNL     1      -7.099  -6.204  -4.699  0.00  0.00    +0.092 C 
BRANCH  11  12
ATOM     12  C   UNL     1      -6.165  -6.837  -5.732  0.00  0.00    -0.050 C 
ATOM     13  C   UNL     1      -5.613  -5.749  -6.656  0.00  0.00    -0.010 C 
ATOM     14  C   UNL     1      -6.772  -5.054  -7.374  0.00  0.00    -0.001 C 
ATOM     15  C   UNL     1      -7.548  -6.081  -8.202  0.00  0.00    -0.000 C 
ATOM     16  C   UNL     1      -8.099  -7.169  -7.278  0.00  0.00    -0.001 C 
ATOM     17  C   UNL     1      -6.941  -7.864  -6.560  0.00  0.00    -0.010 C 
BRANCH  12  23
ATOM     18  C   UNL     1      -5.547  -8.533  -4.119  0.00  0.00    -0.078 C 
ATOM     19  C   UNL     1      -4.362  -9.303  -3.530  0.00  0.00    -0.019 C 
ATOM     20  C   UNL     1      -3.443  -8.327  -2.791  0.00  0.00    -0.004 C 
ATOM     21  C   UNL     1      -2.980  -7.238  -3.763  0.00  0.00    -0.019 C 
ATOM     22  C   UNL     1      -4.204  -6.528  -4.346  0.00  0.00    -0.078 C 
ATOM     23  N   UNL     1      -5.036  -7.517  -5.064  0.00  0.00    +0.384 N 
ATOM     24  H   UNL     1      -4.460  -7.983  -5.775  0.00  0.00    -0.081 HD
ENDBRANCH  12  23
ENDBRANCH  11  12
ENDBRANCH   9  11
ENDBRANCH   4   7
BRANCH   1  25
ATOM     25  S   UNL     1      -4.144   0.029  -0.206  0.00  0.00    +0.075 S 
ATOM     26  O   UNL     1      -5.147   0.820   0.416  0.00  0.00    -0.150 OA
ATOM     27  O   UNL     1      -3.222   0.566  -1.144  0.00  0.00    -0.150 OA
BRANCH  25  29
ATOM     28  C   UNL     1      -3.825  -0.802   2.348  0.00  0.00    +0.158 C 
ATOM     29  N   UNL     1      -3.243  -0.637   1.014  0.00  0.00    -0.203 N 
BRANCH  29  30
ATOM     30  C   UNL     1      -1.926  -1.043   0.770  0.00  0.00    +0.092 A 
ATOM     31  C   UNL     1      -1.654  -2.363   0.443  0.00  0.00    +0.028 A 
ATOM     32  C   UNL     1      -0.352  -2.761   0.202  0.00  0.00    +0.002 A 
ATOM     33  C   UNL     1       0.681  -1.845   0.286  0.00  0.00    +0.004 A 
ATOM     34  C   UNL     1       0.416  -0.526   0.607  0.00  0.00    +0.047 A 
ATOM     35  C   UNL     1      -0.884  -0.121   0.855  0.00  0.00    +0.143 A 
BRANCH  35  36
ATOM     36  O   UNL     1      -1.145   1.175   1.176  0.00  0.00    -0.493 OA
ATOM     37  C   UNL     1      -0.029   2.064   1.245  0.00  0.00    +0.277 C 
ENDBRANCH  35  36
ENDBRANCH  29  30
ENDBRANCH  25  29
ENDBRANCH   1  25
TORSDOF 8
