REMARK  Name = ZINC09512415
REMARK  5 active torsions:
REMARK  status: ('A' for Active; 'I' for Inactive)
REMARK    1  A    between atoms: C_1  and  C_2
REMARK    2  A    between atoms: C_2  and  C_22
REMARK    3  A    between atoms: N_5  and  C_9
REMARK    4  A    between atoms: C_9  and  C_10
REMARK    5  A    between atoms: N_12  and  C_13
REMARK                            x       y       z     vdW  Elec       q    Type
REMARK                         _______ _______ _______ _____ _____    ______ ____
ROOT
ATOM      1  C   UNL     1      -1.228   4.373  -1.210  0.00  0.00    +0.042 C 
ATOM      2  C   UNL     1      -0.717   3.644   0.034  0.00  0.00    +0.113 C 
ATOM      3  C   UNL     1      -1.172   2.198   0.029  0.00  0.00    +0.247 C 
ATOM      4  O   UNL     1      -2.313   1.790   0.040  0.00  0.00    -0.273 OA
ATOM      5  N   UNL     1      -0.044   1.461   0.012  0.00  0.00    -0.215 N 
ATOM      6  C   UNL     1       1.050   2.232  -0.002  0.00  0.00    +0.310 C 
ATOM      7  O   UNL     1       2.184   1.796  -0.023  0.00  0.00    -0.252 OA
ATOM      8  N   UNL     1       0.753   3.544   0.010  0.00  0.00    -0.285 N 
ATOM      9  H   UNL     1       1.366   4.458   0.004  0.00  0.00    +0.151 HD
ENDROOT
BRANCH   2  10
ATOM     10  C   UNL     1      -1.187   4.356   1.304  0.00  0.00    +0.021 C 
ATOM     11  C   UNL     1      -2.714   4.304   1.383  0.00  0.00    +0.006 C 
ATOM     12  C   UNL     1      -3.184   5.016   2.653  0.00  0.00    +0.000 C 
ATOM     13  C   UNL     1      -2.724   6.475   2.619  0.00  0.00    +0.000 C 
ATOM     14  C   UNL     1      -1.197   6.528   2.540  0.00  0.00    +0.000 C 
ATOM     15  C   UNL     1      -0.727   5.815   1.270  0.00  0.00    +0.006 C 
ENDBRANCH   2  10
BRANCH   5  16
ATOM     16  C   UNL     1      -0.018  -0.004   0.003  0.00  0.00    +0.214 C 
BRANCH  16  17
ATOM     17  C   UNL     1       0.015  -0.514   1.421  0.00  0.00    +0.235 C 
ATOM     18  O   UNL     1       0.016   0.269   2.347  0.00  0.00    -0.274 OA
ATOM     19  N   UNL     1       0.042  -1.840   1.659  0.00  0.00    -0.282 N 
ATOM     20  H   UNL     1      -0.033  -2.551   0.823  0.00  0.00    +0.155 HD
BRANCH  19  21
ATOM     21  C   UNL     1       0.166  -2.314   2.972  0.00  0.00    +0.072 A 
ATOM     22  C   UNL     1      -0.425  -1.621   4.020  0.00  0.00    +0.029 A 
ATOM     23  C   UNL     1      -0.306  -2.091   5.313  0.00  0.00    +0.043 A 
ATOM     24  C   UNL     1       0.411  -3.247   5.569  0.00  0.00    +0.161 A 
ATOM     25  C   UNL     1       1.007  -3.940   4.527  0.00  0.00    +0.195 A 
ATOM     26  C   UNL     1       0.886  -3.475   3.228  0.00  0.00    +0.182 A 
ATOM     27  F   UNL     1       1.468  -4.148   2.211  0.00  0.00    -0.200 F 
ATOM     28  F   UNL     1       1.707  -5.068   4.778  0.00  0.00    -0.199 F 
ATOM     29  F   UNL     1       0.529  -3.701   6.836  0.00  0.00    -0.202 F 
ENDBRANCH  19  21
ENDBRANCH  16  17
ENDBRANCH   5  16
TORSDOF 4
