REMARK  Name = ZINC11025871
REMARK  7 active torsions:
REMARK  status: ('A' for Active; 'I' for Inactive)
REMARK    1  A    between atoms: C_5  and  N_7
REMARK    2  A    between atoms: C_12  and  C_14
REMARK    3  A    between atoms: C_12  and  C_27
REMARK    4  A    between atoms: C_12  and  N_54
REMARK    5  A    between atoms: C_14  and  N_15
REMARK    6  A    between atoms: N_15  and  S_16
REMARK    7  A    between atoms: S_16  and  C_19
REMARK                            x       y       z     vdW  Elec       q    Type
REMARK                         _______ _______ _______ _____ _____    ______ ____
ROOT
ATOM      1  C   UNL     1      -0.018   1.465   0.010  0.00  0.00    +0.015 C 
ENDROOT
BRANCH   1   7
ATOM      2  N   UNL     1       0.990  -2.489  -1.086  0.00  0.00    -0.331 N 
ATOM      3  C   UNL     1       0.122  -1.723  -1.991  0.00  0.00    +0.086 C 
ATOM      4  C   UNL     1       0.273  -0.229  -1.696  0.00  0.00    -0.059 C 
ATOM      5  C   UNL     1       0.791  -0.737   0.613  0.00  0.00    -0.059 C 
ATOM      6  C   UNL     1       0.640  -2.231   0.318  0.00  0.00    +0.086 C 
ATOM      7  N   UNL     1      -0.104   0.019  -0.289  0.00  0.00    +0.389 N 
ATOM      8  H   UNL     1      -1.070  -0.295  -0.141  0.00  0.00    -0.081 HD
BRANCH   2  13
ATOM      9  C   UNL     1       1.248  -5.670  -2.910  0.00  0.00    +0.002 A 
ATOM     10  C   UNL     1       0.820  -6.562  -1.945  0.00  0.00    +0.003 A 
ATOM     11  C   UNL     1       0.448  -6.106  -0.693  0.00  0.00    +0.040 A 
ATOM     12  C   UNL     1       0.503  -4.755  -0.404  0.00  0.00    +0.144 A 
ATOM     13  C   UNL     1       0.933  -3.856  -1.374  0.00  0.00    +0.065 A 
ATOM     14  C   UNL     1       1.301  -4.318  -2.630  0.00  0.00    +0.026 A 
ATOM     15  F   UNL     1       0.139  -4.310   0.818  0.00  0.00    -0.204 F 
ENDBRANCH   2  13
ENDBRANCH   1   7
BRANCH   1  16
ATOM     16  C   UNL     1       1.379   1.972  -0.237  0.00  0.00    +0.093 A 
ATOM     17  C   UNL     1       1.704   3.078  -0.931  0.00  0.00    +0.043 A 
ATOM     18  C   UNL     1       3.114   3.175  -0.912  0.00  0.00    +0.041 A 
ATOM     19  C   UNL     1       3.567   2.123  -0.207  0.00  0.00    +0.195 A 
ATOM     20  O   UNL     1       2.512   1.401   0.204  0.00  0.00    -0.469 OA
ENDBRANCH   1  16
BRANCH   1  21
ATOM     21  C   UNL     1      -0.392   1.693   1.476  0.00  0.00    +0.098 C 
BRANCH  21  22
ATOM     22  N   UNL     1      -1.701   1.093   1.745  0.00  0.00    -0.191 NA
ATOM     23  H   UNL     1      -2.277   0.836   1.008  0.00  0.00    +0.148 HD
BRANCH  22  24
ATOM     24  S   UNL     1      -2.198   0.855   3.307  0.00  0.00    +0.061 S 
ATOM     25  O   UNL     1      -3.500   0.291   3.237  0.00  0.00    -0.153 OA
ATOM     26  O   UNL     1      -1.124   0.212   3.980  0.00  0.00    -0.153 OA
BRANCH  24  27
ATOM     27  C   UNL     1      -2.376   2.445   4.045  0.00  0.00    +0.143 A 
ATOM     28  C   UNL     1      -3.625   2.887   4.440  0.00  0.00    +0.069 A 
ATOM     29  C   UNL     1      -3.764   4.134   5.023  0.00  0.00    +0.125 A 
ATOM     30  C   UNL     1      -2.655   4.943   5.204  0.00  0.00    +0.041 A 
ATOM     31  C   UNL     1      -1.407   4.503   4.805  0.00  0.00    +0.043 A 
ATOM     32  C   UNL     1      -1.267   3.253   4.225  0.00  0.00    +0.150 A 
ATOM     33  F   UNL     1      -0.047   2.822   3.835  0.00  0.00    -0.203 F 
ATOM     34  F   UNL     1      -4.984   4.565   5.413  0.00  0.00    -0.205 F 
ENDBRANCH  24  27
ENDBRANCH  22  24
ENDBRANCH  21  22
ENDBRANCH   1  21
TORSDOF 7
