REMARK  Name = ZINC25596683
REMARK  6 active torsions:
REMARK  status: ('A' for Active; 'I' for Inactive)
REMARK    1  A    between atoms: C_1  and  C_2
REMARK    2  A    between atoms: C_4  and  C_16
REMARK    3  A    between atoms: C_16  and  N_18
REMARK    4  A    between atoms: C_21  and  C_24
REMARK    5  A    between atoms: C_24  and  N_25
REMARK    6  A    between atoms: C_29  and  C_32
REMARK                            x       y       z     vdW  Elec       q    Type
REMARK                         _______ _______ _______ _____ _____    ______ ____
ROOT
ATOM      1  C   UNL     1       0.030  -2.822  -2.494  0.00  0.00    +0.272 C 
ATOM      2  O   UNL     1       0.047  -4.041  -2.482  0.00  0.00    -0.268 OA
ENDROOT
BRANCH   1   6
ATOM      3  C   UNL     1      -0.018   1.503   0.010  0.00  0.00    +0.065 C 
ATOM      4  C   UNL     1       0.002  -0.004   0.002  0.00  0.00    +0.041 A 
ATOM      5  C   UNL     1       0.005  -0.673  -1.209  0.00  0.00    +0.038 A 
ATOM      6  C   UNL     1       0.025  -2.068  -1.220  0.00  0.00    +0.069 A 
ATOM      7  C   UNL     1       0.040  -2.737   0.020  0.00  0.00    +0.120 A 
ATOM      8  C   UNL     1       0.035  -1.974   1.203  0.00  0.00    +0.161 A 
ATOM      9  N   UNL     1       0.022  -0.653   1.148  0.00  0.00    -0.233 NA
ATOM     10  N   UNL     1       0.048  -2.887   2.236  0.00  0.00    -0.312 N 
ATOM     11  C   UNL     1       0.070  -4.132   1.685  0.00  0.00    +0.112 A 
ATOM     12  N   UNL     1       0.060  -4.039   0.384  0.00  0.00    -0.230 NA
ATOM     13  C   UNL     1       0.109  -5.424   2.466  0.00  0.00    +0.074 C 
ATOM     14  C   UNL     1      -0.932  -5.371   3.586  0.00  0.00    +0.008 C 
ATOM     15  C   UNL     1      -0.310  -4.754   4.834  0.00  0.00    +0.002 C 
ATOM     16  C   UNL     1       0.719  -3.693   4.448  0.00  0.00    +0.022 C 
ATOM     17  C   UNL     1       0.031  -2.571   3.667  0.00  0.00    +0.125 C 
ENDBRANCH   1   6
BRANCH   1  18
ATOM     18  N   UNL     1       0.016  -2.167  -3.657  0.00  0.00    -0.152 NA
ATOM     19  C   UNL     1       0.021  -2.845  -4.804  0.00  0.00    +0.163 A 
ATOM     20  N   UNL     1       0.014  -2.357  -6.075  0.00  0.00    -0.341 N 
ATOM     21  C   UNL     1       0.020  -3.235  -7.113  0.00  0.00    +0.008 A 
ATOM     22  C   UNL     1       0.033  -4.539  -6.815  0.00  0.00    +0.067 A 
ATOM     23  S   UNL     1       0.043  -4.511  -5.032  0.00  0.00    -0.061 S 
ATOM     24  H   UNL     1       0.004  -1.401  -6.237  0.00  0.00    +0.167 HD
BRANCH  21  25
ATOM     25  C   UNL     1       0.013  -2.758  -8.543  0.00  0.00    -0.024 C 
BRANCH  25  26
ATOM     26  N   UNL     1      -1.250  -2.060  -8.819  0.00  0.00    +0.384 N 
ATOM     27  C   UNL     1      -2.365  -3.008  -8.712  0.00  0.00    -0.078 C 
ATOM     28  C   UNL     1      -3.689  -2.270  -8.919  0.00  0.00    -0.018 C 
ATOM     29  C   UNL     1      -3.696  -1.627 -10.309  0.00  0.00    -0.001 C 
ATOM     30  C   UNL     1      -2.487  -0.696 -10.436  0.00  0.00    -0.031 C 
ATOM     31  C   UNL     1      -1.207  -1.492 -10.172  0.00  0.00    -0.075 C 
ATOM     32  C   UNL     1      -2.442  -0.107 -11.847  0.00  0.00    +0.005 C 
ATOM     33  H   UNL     1      -1.377  -1.317  -8.148  0.00  0.00    -0.081 HD
ENDBRANCH  25  26
ENDBRANCH  21  25
ENDBRANCH   1  18
TORSDOF 4
