REMARK  Name = ZINC49441721
REMARK  0 active torsions:
REMARK  status: ('A' for Active; 'I' for Inactive)
REMARK                            x       y       z     vdW  Elec       q    Type
REMARK                         _______ _______ _______ _____ _____    ______ ____
ROOT
ATOM      1  C   UNL     1       0.004   1.377   0.218  0.00  0.00    +0.084 A 
ATOM      2  C   UNL     1       1.201   2.061   0.002  0.00  0.00    +0.128 A 
ATOM      3  N   UNL     1       2.313   1.364  -0.211  0.00  0.00    -0.200 NA
ATOM      4  C   UNL     1       2.288   0.039  -0.219  0.00  0.00    +0.216 A 
ATOM      5  N   UNL     1       1.167  -0.636  -0.017  0.00  0.00    -0.203 NA
ATOM      6  C   UNL     1       0.021  -0.005   0.202  0.00  0.00    +0.136 A 
ATOM      7 CL   UNL     1      -1.440  -0.905   0.466  0.00  0.00    -0.062 Cl
ATOM      8  N   UNL     1       3.464  -0.656  -0.444  0.00  0.00    -0.327 N 
ATOM      9  N   UNL     1       1.231   3.446   0.008  0.00  0.00    -0.312 N 
ATOM     10  C   UNL     1       2.507   4.102  -0.006  0.00  0.00    +0.110 C 
ATOM     11  C   UNL     1       2.516   5.384   0.770  0.00  0.00    +0.007 C 
ATOM     12  C   UNL     1       1.847   5.257   2.129  0.00  0.00    +0.008 C 
ATOM     13  C   UNL     1       0.351   5.500   2.112  0.00  0.00    -0.009 C 
ATOM     14  C   UNL     1       0.015   6.801   1.378  0.00  0.00    +0.007 C 
ATOM     15  C   UNL     1       0.545   6.665  -0.051  0.00  0.00    -0.009 C 
ATOM     16  C   UNL     1       2.072   6.601   0.008  0.00  0.00    +0.008 C 
ATOM     17  C   UNL     1      -0.013   5.441  -0.739  0.00  0.00    +0.026 C 
ATOM     18  C   UNL     1      -0.032   4.164   0.024  0.00  0.00    +0.075 C 
ATOM     19  C   UNL     1      -0.444   4.373   1.470  0.00  0.00    +0.026 C 
ATOM     20  H   UNL     1       4.292  -0.173  -0.594  0.00  0.00    +0.145 HD
ATOM     21  H   UNL     1       3.460  -1.626  -0.452  0.00  0.00    +0.145 HD
ENDROOT
TORSDOF 0
