REMARK  Name = ZINC01770063
REMARK  15 active torsions:
REMARK  status: ('A' for Active; 'I' for Inactive)
REMARK    1  A    between atoms: C_1  and  C_2
REMARK    2  A    between atoms: C_6  and  O_8
REMARK    3  A    between atoms: O_8  and  C_9
REMARK    4  A    between atoms: C_15  and  O_33
REMARK    5  A    between atoms: C_16  and  C_24
REMARK    6  A    between atoms: C_19  and  C_20
REMARK    7  A    between atoms: C_24  and  N_64
REMARK    8  A    between atoms: C_25  and  C_26
REMARK    9  A    between atoms: C_25  and  N_64
REMARK   10  A    between atoms: C_26  and  C_27
REMARK   11  A    between atoms: C_26  and  C_28
REMARK   12  A    between atoms: C_29  and  C_30
REMARK   13  A    between atoms: C_29  and  N_64
REMARK   14  A    between atoms: C_30  and  C_31
REMARK   15  A    between atoms: C_30  and  C_32
REMARK                            x       y       z     vdW  Elec       q    Type
REMARK                         _______ _______ _______ _____ _____    ______ ____
ROOT
ATOM      1  C   UNL     1      -3.657   2.308  -0.639  0.00  0.00    +0.222 A 
ATOM      2  C   UNL     1      -4.464   2.229  -1.810  0.00  0.00    +0.235 A 
ATOM      3  O   UNL     1      -4.038   2.573  -2.900  0.00  0.00    -0.283 OA
ATOM      4  C   UNL     1      -5.834   1.710  -1.650  0.00  0.00    +0.068 A 
ATOM      5  C   UNL     1      -6.698   1.592  -2.740  0.00  0.00    +0.019 A 
ATOM      6  C   UNL     1      -7.962   1.112  -2.552  0.00  0.00    +0.046 A 
ATOM      7  C   UNL     1      -8.393   0.741  -1.280  0.00  0.00    +0.122 A 
ATOM      8  C   UNL     1      -7.548   0.852  -0.189  0.00  0.00    +0.020 A 
ATOM      9  C   UNL     1      -6.260   1.338  -0.363  0.00  0.00    +0.144 A 
ATOM     10  O   UNL     1      -5.416   1.458   0.682  0.00  0.00    -0.447 OA
ATOM     11  C   UNL     1      -4.168   1.923   0.547  0.00  0.00    +0.254 A 
ENDROOT
BRANCH  11  12
ATOM     12  C   UNL     1      -3.297   2.021   1.773  0.00  0.00    +0.454 C 
ATOM     13  F   UNL     1      -3.462   3.278   2.364  0.00  0.00    -0.163 F 
ATOM     14  F   UNL     1      -3.663   1.025   2.686  0.00  0.00    -0.163 F 
ATOM     15  F   UNL     1      -1.957   1.849   1.409  0.00  0.00    -0.163 F 
ENDBRANCH  11  12
BRANCH   7  16
ATOM     16  O   UNL     1      -9.653   0.265  -1.109  0.00  0.00    -0.506 OA
ATOM     17  H   UNL     1     -10.323   0.954  -1.002  0.00  0.00    +0.292 HD
ENDBRANCH   7  16
BRANCH   1  18
ATOM     18  O   UNL     1      -2.381   2.774  -0.718  0.00  0.00    -0.448 OA
BRANCH  18  24
ATOM     19  C   UNL     1       2.370   1.856  -1.361  0.00  0.00    +0.044 C 
ATOM     20  C   UNL     1       0.939   1.391  -1.265  0.00  0.00    -0.047 A 
ATOM     21  C   UNL     1       0.638   0.049  -1.410  0.00  0.00    +0.003 A 
ATOM     22  C   UNL     1      -0.673  -0.381  -1.323  0.00  0.00    +0.004 A 
ATOM     23  C   UNL     1      -1.687   0.531  -1.097  0.00  0.00    +0.046 A 
ATOM     24  C   UNL     1      -1.386   1.877  -0.946  0.00  0.00    +0.129 A 
ATOM     25  C   UNL     1      -0.069   2.305  -1.033  0.00  0.00    +0.049 A 
ENDBRANCH  18  24
ENDBRANCH   1  18
BRANCH   8  26
ATOM     26  C   UNL     1      -8.025   0.448   1.182  0.00  0.00    -0.036 C 
BRANCH  26  27
ATOM     27  N   UNL     1      -8.441   1.661   1.918  0.00  0.00    +0.383 N 
ATOM     28  H   UNL     1      -7.707   2.374   1.827  0.00  0.00    -0.081 HD
BRANCH  27  29
ATOM     29  C   UNL     1      -9.698   2.191   1.349  0.00  0.00    -0.075 C 
BRANCH  29  30
ATOM     30  C   UNL     1      -9.907   3.617   1.863  0.00  0.00    -0.034 C 
ATOM     31  C   UNL     1      -8.766   4.509   1.369  0.00  0.00    +0.005 C 
ATOM     32  C   UNL     1     -11.239   4.157   1.340  0.00  0.00    +0.005 C 
ENDBRANCH  29  30
ENDBRANCH  27  29
BRANCH  27  33
ATOM     33  C   UNL     1      -8.627   1.345   3.349  0.00  0.00    -0.075 C 
BRANCH  33  34
ATOM     34  C   UNL     1      -7.253   1.261   4.016  0.00  0.00    -0.034 C 
ATOM     35  C   UNL     1      -6.573   2.630   3.956  0.00  0.00    +0.005 C 
ATOM     36  C   UNL     1      -7.420   0.838   5.477  0.00  0.00    +0.005 C 
ENDBRANCH  33  34
ENDBRANCH  27  33
ENDBRANCH  26  27
ENDBRANCH   8  26
TORSDOF 10
