REMARK  Name = ZINC39327227
REMARK  9 active torsions:
REMARK  status: ('A' for Active; 'I' for Inactive)
REMARK    1  A    between atoms: C_1  and  C_2
REMARK    2  A    between atoms: C_2  and  C_3
REMARK    3  A    between atoms: C_2  and  C_4
REMARK    4  A    between atoms: C_11  and  N_27
REMARK    5  A    between atoms: C_12  and  C_25
REMARK    6  A    between atoms: C_13  and  C_15
REMARK    7  A    between atoms: C_18  and  O_21
REMARK    8  A    between atoms: O_21  and  C_22
REMARK    9  A    between atoms: C_22  and  C_24
REMARK                            x       y       z     vdW  Elec       q    Type
REMARK                         _______ _______ _______ _____ _____    ______ ____
ROOT
ATOM      1  C   UNL     1       0.662  -0.411  -1.124  0.00  0.00    +0.046 A 
ATOM      2  C   UNL     1       1.732  -1.208  -1.257  0.00  0.00    +0.049 A 
ATOM      3  C   UNL     1       1.968  -1.402  -2.636  0.00  0.00    +0.245 A 
ATOM      4  N   UNL     1       1.062  -0.739  -3.295  0.00  0.00    -0.135 NA
ATOM      5  N   UNL     1       0.221  -0.107  -2.367  0.00  0.00    -0.278 N 
ATOM      6  H   UNL     1      -0.543   0.452  -2.579  0.00  0.00    +0.189 HD
ATOM      7  O   UNL     1       2.995  -2.168  -3.092  0.00  0.00    -0.421 OA
ATOM      8  C   UNL     1       3.947  -2.521  -2.205  0.00  0.00    +0.201 C 
ATOM      9  C   UNL     1       3.830  -2.395  -0.867  0.00  0.00    +0.098 C 
ATOM     10  C   UNL     1       2.599  -1.839  -0.197  0.00  0.00    +0.101 C 
ENDROOT
BRANCH  10  11
ATOM     11  C   UNL     1       1.844  -2.953   0.481  0.00  0.00    -0.034 A 
ATOM     12  C   UNL     1       1.395  -4.032  -0.257  0.00  0.00    +0.008 A 
ATOM     13  C   UNL     1       0.702  -5.054   0.362  0.00  0.00    +0.046 A 
ATOM     14  C   UNL     1       0.458  -4.997   1.727  0.00  0.00    +0.132 A 
ATOM     15  C   UNL     1       0.910  -3.914   2.466  0.00  0.00    +0.046 A 
ATOM     16  C   UNL     1       1.607  -2.897   1.843  0.00  0.00    +0.008 A 
BRANCH  14  17
ATOM     17  O   UNL     1      -0.224  -6.001   2.339  0.00  0.00    -0.426 OA
BRANCH  17  18
ATOM     18  C   UNL     1       0.377  -7.197   2.447  0.00  0.00    +0.309 C 
ATOM     19  O   UNL     1       1.527  -7.328   2.102  0.00  0.00    -0.251 OA
ATOM     20  C   UNL     1      -0.383  -8.375   2.999  0.00  0.00    +0.136 C 
ENDBRANCH  17  18
ENDBRANCH  14  17
ENDBRANCH  10  11
BRANCH   1  22
ATOM     21  C   UNL     1       0.090   1.587   0.230  0.00  0.00    +0.014 C 
ATOM     22  C   UNL     1       0.057   0.058   0.174  0.00  0.00    +0.031 C 
ATOM     23  C   UNL     1      -1.392  -0.424   0.265  0.00  0.00    +0.014 C 
ENDBRANCH   1  22
BRANCH   8  24
ATOM     24  N   UNL     1       5.116  -3.045  -2.698  0.00  0.00    -0.328 N 
ATOM     25  H   UNL     1       5.234  -3.150  -3.655  0.00  0.00    +0.145 HD
ATOM     26  H   UNL     1       5.823  -3.310  -2.090  0.00  0.00    +0.145 HD
ENDBRANCH   8  24
BRANCH   9  27
ATOM     27  C   UNL     1       4.928  -2.808  -0.044  0.00  0.00    +0.101 C 
ATOM     28  N   UNL     1       5.798  -3.135   0.608  0.00  0.00    -0.191 NA
ENDBRANCH   9  27
TORSDOF 6
