REMARK  Name = ZINC05981739
REMARK  4 active torsions:
REMARK  status: ('A' for Active; 'I' for Inactive)
REMARK    1  A    between atoms: C_1  and  C_2
REMARK    2  A    between atoms: C_6  and  C_8
REMARK    3  A    between atoms: N_14  and  N_15
REMARK    4  A    between atoms: C_16  and  C_17
REMARK                            x       y       z     vdW  Elec       q    Type
REMARK                         _______ _______ _______ _____ _____    ______ ____
ROOT
ATOM      1  C   UNL     1      -2.503   1.006   0.019  0.00  0.00    +0.184 A 
ATOM      2  N   UNL     1      -2.638  -0.263   0.287  0.00  0.00    -0.152 NA
ATOM      3  N   UNL     1      -3.998  -0.587   0.182  0.00  0.00    -0.253 N 
ATOM      4  H   UNL     1      -4.392  -1.461   0.327  0.00  0.00    +0.191 HD
ATOM      5  C   UNL     1      -4.659   0.539  -0.158  0.00  0.00    +0.197 A 
ATOM      6  S   UNL     1      -6.346   0.683  -0.411  0.00  0.00    -0.010 S 
ATOM      7  N   UNL     1      -3.752   1.531  -0.257  0.00  0.00    -0.188 N 
ENDROOT
BRANCH   1  13
ATOM      8  C   UNL     1       2.487   1.048  -0.016  0.00  0.00    +0.044 C 
ATOM      9  C   UNL     1       1.172   1.783   0.000  0.00  0.00    -0.050 A 
ATOM     10  C   UNL     1       1.155   3.167   0.008  0.00  0.00    +0.003 A 
ATOM     11  C   UNL     1      -0.048   3.849   0.022  0.00  0.00    +0.001 A 
ATOM     12  C   UNL     1      -1.240   3.153   0.030  0.00  0.00    +0.011 A 
ATOM     13  C   UNL     1      -1.230   1.758   0.017  0.00  0.00    +0.021 A 
ATOM     14  C   UNL     1      -0.013   1.076   0.008  0.00  0.00    +0.015 A 
ENDBRANCH   1  13
BRANCH   7  15
ATOM     15  N   UNL     1      -4.027   2.865  -0.587  0.00  0.00    -0.171 NA
ATOM     16  C   UNL     1      -4.014   3.242  -1.829  0.00  0.00    +0.141 C 
BRANCH  16  17
ATOM     17  C   UNL     1      -4.304   4.646  -2.176  0.00  0.00    -0.003 A 
ATOM     18  C   UNL     1      -4.292   5.055  -3.512  0.00  0.00    +0.009 A 
ATOM     19  C   UNL     1      -4.564   6.369  -3.830  0.00  0.00    +0.003 A 
ATOM     20  C   UNL     1      -4.849   7.282  -2.831  0.00  0.00    +0.038 A 
ATOM     21  C   UNL     1      -4.864   6.885  -1.504  0.00  0.00    +0.124 A 
ATOM     22  C   UNL     1      -4.598   5.570  -1.171  0.00  0.00    +0.047 A 
ATOM     23  F   UNL     1      -5.143   7.783  -0.534  0.00  0.00    -0.205 F 
ENDBRANCH  16  17
ENDBRANCH   7  15
TORSDOF 3
