REMARK  Name = ZINC13072963
REMARK  5 active torsions:
REMARK  status: ('A' for Active; 'I' for Inactive)
REMARK    1  A    between atoms: C_1  and  C_2
REMARK    2  A    between atoms: C_9  and  N_13
REMARK    3  A    between atoms: C_10  and  C_11
REMARK    4  A    between atoms: C_14  and  C_16
REMARK    5  A    between atoms: C_16  and  N_17
REMARK                            x       y       z     vdW  Elec       q    Type
REMARK                         _______ _______ _______ _____ _____    ______ ____
ROOT
ATOM      1  C   UNL     1      -1.198  -0.844   0.010  0.00  0.00    +0.214 C 
ENDROOT
BRANCH   1   2
ATOM      2  N   UNL     1       0.002  -0.004   0.002  0.00  0.00    -0.215 N 
ATOM      3  C   UNL     1       1.262  -0.484  -0.013  0.00  0.00    +0.251 C 
ATOM      4  O   UNL     1       1.605  -1.647  -0.023  0.00  0.00    -0.272 OA
ATOM      5  C   UNL     1       2.159   0.734  -0.015  0.00  0.00    +0.138 C 
ATOM      6  C   UNL     1       3.007   0.765  -1.280  0.00  0.00    +0.040 C 
ATOM      7  C   UNL     1       4.091  -0.315  -1.166  0.00  0.00    +0.008 C 
ATOM      8  C   UNL     1       5.082   0.108  -0.084  0.00  0.00    +0.035 C 
ATOM      9  C   UNL     1       4.361   0.458   1.191  0.00  0.00    -0.042 A 
ATOM     10  C   UNL     1       3.014   0.751   1.222  0.00  0.00    -0.012 A 
ATOM     11  C   UNL     1       2.409   1.073   2.429  0.00  0.00    +0.006 A 
ATOM     12  C   UNL     1       3.143   1.100   3.597  0.00  0.00    +0.000 A 
ATOM     13  C   UNL     1       4.493   0.804   3.566  0.00  0.00    +0.000 A 
ATOM     14  C   UNL     1       5.097   0.485   2.367  0.00  0.00    +0.004 A 
ATOM     15  N   UNL     1       1.221   1.865   0.000  0.00  0.00    -0.281 N 
ATOM     16  C   UNL     1      -0.016   1.334   0.009  0.00  0.00    +0.310 C 
ATOM     17  O   UNL     1      -1.035   1.996   0.018  0.00  0.00    -0.252 OA
ATOM     18  H   UNL     1       1.449   2.808   0.003  0.00  0.00    +0.152 HD
ENDBRANCH   1   2
BRANCH   1  20
ATOM     19  N   UNL     1      -2.712  -1.883  -1.648  0.00  0.00    -0.278 N 
ATOM     20  C   UNL     1      -1.624  -1.125  -1.409  0.00  0.00    +0.236 C 
ATOM     21  O   UNL     1      -0.987  -0.668  -2.334  0.00  0.00    -0.274 OA
ATOM     22  H   UNL     1      -3.221  -2.248  -0.907  0.00  0.00    +0.155 HD
BRANCH  19  30
ATOM     23  C   UNL     1      -4.641  -3.028  -9.143  0.00  0.00    +0.008 C 
ATOM     24  C   UNL     1      -4.760  -2.780  -7.638  0.00  0.00    -0.009 C 
ATOM     25  C   UNL     1      -5.151  -4.082  -6.932  0.00  0.00    +0.008 C 
ATOM     26  C   UNL     1      -5.513  -3.795  -5.474  0.00  0.00    +0.037 C 
ATOM     27  C   UNL     1      -4.376  -3.009  -4.832  0.00  0.00    -0.018 A 
ATOM     28  C   UNL     1      -3.463  -2.361  -5.590  0.00  0.00    -0.004 A 
ATOM     29  S   UNL     1      -2.363  -1.607  -4.426  0.00  0.00    -0.077 S 
ATOM     30  C   UNL     1      -3.104  -2.141  -2.954  0.00  0.00    +0.090 A 
ATOM     31  C   UNL     1      -4.180  -2.896  -3.397  0.00  0.00    +0.084 A 
ATOM     32  C   UNL     1      -3.409  -2.304  -7.085  0.00  0.00    +0.046 C 
BRANCH  31  33
ATOM     33  C   UNL     1      -5.068  -3.536  -2.474  0.00  0.00    +0.102 C 
ATOM     34  N   UNL     1      -5.772  -4.045  -1.742  0.00  0.00    -0.191 NA
ENDBRANCH  31  33
ENDBRANCH  19  30
ENDBRANCH   1  20
TORSDOF 4
