REMARK  Name = ZINC12478390
REMARK  10 active torsions:
REMARK  status: ('A' for Active; 'I' for Inactive)
REMARK    1  A    between atoms: C_1  and  C_2
REMARK    2  A    between atoms: C_5  and  N_9
REMARK    3  A    between atoms: C_13  and  S_14
REMARK    4  A    between atoms: S_14  and  C_15
REMARK    5  A    between atoms: C_15  and  C_16
REMARK    6  A    between atoms: N_18  and  C_19
REMARK    7  A    between atoms: C_20  and  C_31
REMARK    8  A    between atoms: C_21  and  C_30
REMARK    9  A    between atoms: C_22  and  C_29
REMARK   10  A    between atoms: N_23  and  C_24
REMARK                            x       y       z     vdW  Elec       q    Type
REMARK                         _______ _______ _______ _____ _____    ______ ____
ROOT
ATOM      1  C   UNL     1      -7.836   3.147  -3.702  0.00  0.00    +0.229 C 
ATOM      2  O   UNL     1      -8.981   2.793  -3.894  0.00  0.00    -0.275 OA
ATOM      3  N   UNL     1      -6.851   2.706  -4.509  0.00  0.00    -0.270 N 
ATOM      4  H   UNL     1      -5.926   2.918  -4.306  0.00  0.00    +0.156 HD
ENDROOT
BRANCH   3   5
ATOM      5  C   UNL     1      -7.159   1.949  -5.630  0.00  0.00    +0.124 A 
ATOM      6  C   UNL     1      -8.328   2.029  -6.374  0.00  0.00    +0.095 A 
ATOM      7  C   UNL     1      -8.190   1.042  -7.451  0.00  0.00    -0.011 A 
ATOM      8  C   UNL     1      -6.995   0.452  -7.283  0.00  0.00    +0.022 A 
ATOM      9  N   UNL     1      -6.373   0.994  -6.191  0.00  0.00    -0.329 N 
ATOM     10  C   UNL     1      -6.428  -0.635  -8.160  0.00  0.00    +0.064 C 
ATOM     11  C   UNL     1      -9.196   0.744  -8.533  0.00  0.00    +0.047 C 
BRANCH   9  12
ATOM     12  C   UNL     1      -5.050   0.601  -5.698  0.00  0.00    +0.089 C 
ATOM     13  C   UNL     1      -5.126   0.261  -4.195  0.00  0.00    +0.025 C 
ATOM     14  C   UNL     1      -3.792   0.797  -3.617  0.00  0.00    +0.002 C 
ATOM     15  C   UNL     1      -3.578   2.110  -4.410  0.00  0.00    +0.002 C 
ATOM     16  C   UNL     1      -4.066   1.776  -5.835  0.00  0.00    +0.025 C 
ENDBRANCH   9  12
BRANCH   6  17
ATOM     17  C   UNL     1      -9.441   2.899  -6.139  0.00  0.00    +0.103 C 
ATOM     18  N   UNL     1     -10.324   3.589  -5.952  0.00  0.00    -0.191 NA
ENDBRANCH   6  17
ENDBRANCH   3   5
BRANCH   1  19
ATOM     19  C   UNL     1      -7.516   4.078  -2.562  0.00  0.00    +0.173 C 
BRANCH  19  20
ATOM     20  S   UNL     1      -9.053   4.604  -1.762  0.00  0.00    -0.076 S 
BRANCH  20  25
ATOM     21  N   UNL     1      -9.119   6.345   0.430  0.00  0.00    -0.277 N 
ATOM     22  C   UNL     1      -8.193   7.010   1.189  0.00  0.00    +0.230 A 
ATOM     23  N   UNL     1      -7.017   6.717   0.710  0.00  0.00    -0.137 NA
ATOM     24  N   UNL     1      -7.133   5.920  -0.291  0.00  0.00    -0.122 NA
ATOM     25  C   UNL     1      -8.400   5.652  -0.505  0.00  0.00    +0.196 A 
BRANCH  21  30
ATOM     26  C   UNL     1     -14.761   6.429   1.055  0.00  0.00    +0.045 C 
ATOM     27  C   UNL     1     -13.263   6.407   0.889  0.00  0.00    -0.032 A 
ATOM     28  C   UNL     1     -12.451   6.155   1.979  0.00  0.00    +0.007 A 
ATOM     29  C   UNL     1     -11.079   6.134   1.830  0.00  0.00    +0.026 A 
ATOM     30  C   UNL     1     -10.513   6.366   0.584  0.00  0.00    +0.051 A 
ATOM     31  C   UNL     1     -11.329   6.613  -0.511  0.00  0.00    +0.046 A 
ATOM     32  C   UNL     1     -12.703   6.638  -0.355  0.00  0.00    +0.046 A 
ATOM     33 CL   UNL     1     -13.725   6.954  -1.722  0.00  0.00    -0.083 Cl
ENDBRANCH  21  30
ENDBRANCH  20  25
ENDBRANCH  19  20
ENDBRANCH   1  19
TORSDOF 7
