REMARK  Name = ZINC64643297
REMARK  7 active torsions:
REMARK  status: ('A' for Active; 'I' for Inactive)
REMARK    1  A    between atoms: C_2  and  C_3
REMARK    2  A    between atoms: C_3  and  N_4
REMARK    3  A    between atoms: C_5  and  C_7
REMARK    4  A    between atoms: C_7  and  C_8
REMARK    5  A    between atoms: C_8  and  N_9
REMARK    6  A    between atoms: N_12  and  C_13
REMARK    7  A    between atoms: C_13  and  C_14
REMARK                            x       y       z     vdW  Elec       q    Type
REMARK                         _______ _______ _______ _____ _____    ______ ____
ROOT
ATOM      1  N   UNL     1       4.348   5.866  -0.071  0.00  0.00    -0.299 N 
ATOM      2  C   UNL     1       4.578   7.194  -0.038  0.00  0.00    +0.300 C 
ATOM      3  O   UNL     1       3.644   7.972  -0.005  0.00  0.00    -0.253 OA
ATOM      4  N   UNL     1       5.843   7.659  -0.043  0.00  0.00    -0.295 N 
ATOM      5  H   UNL     1       5.093   5.246  -0.098  0.00  0.00    +0.150 HD
ATOM      6  H   UNL     1       6.588   7.039  -0.069  0.00  0.00    +0.151 HD
ENDROOT
BRANCH   1   7
ATOM      7  C   UNL     1       2.973   5.361  -0.067  0.00  0.00    +0.115 C 
BRANCH   7   8
ATOM      8  C   UNL     1       2.992   3.831  -0.108  0.00  0.00    +0.114 C 
BRANCH   8  10
ATOM      9  N   UNL     1       1.348   1.984  -0.136  0.00  0.00    -0.304 N 
ATOM     10  C   UNL     1       1.578   3.311  -0.103  0.00  0.00    +0.215 C 
ATOM     11  O   UNL     1       0.646   4.087  -0.070  0.00  0.00    -0.276 OA
ATOM     12  H   UNL     1       2.093   1.363  -0.163  0.00  0.00    +0.150 HD
BRANCH   9  13
ATOM     13  C   UNL     1      -0.027   1.478  -0.132  0.00  0.00    +0.193 C 
BRANCH  13  15
ATOM     14  C   UNL     1       0.006  -1.167  -0.203  0.00  0.00    +0.005 C 
ATOM     15  C   UNL     1      -0.009   0.006  -0.171  0.00  0.00    -0.087 C 
ENDBRANCH  13  15
ENDBRANCH   9  13
ENDBRANCH   8  10
ENDBRANCH   7   8
ENDBRANCH   1   7
BRANCH   4  16
ATOM     16  C   UNL     1       6.093   9.102  -0.007  0.00  0.00    +0.142 C 
BRANCH  16  17
ATOM     17  C   UNL     1       7.578   9.355  -0.020  0.00  0.00    -0.014 A 
ATOM     18  C   UNL     1       8.287   9.435   1.172  0.00  0.00    +0.010 A 
ATOM     19  C   UNL     1       9.649   9.669   1.116  0.00  0.00    +0.042 A 
ATOM     20  C   UNL     1      10.259   9.815  -0.125  0.00  0.00    +0.099 A 
ATOM     21  N   UNL     1       9.549   9.732  -1.240  0.00  0.00    -0.349 N 
ATOM     22  C   UNL     1       8.250   9.505  -1.217  0.00  0.00    +0.089 A 
ATOM     23  N   UNL     1      11.628  10.051  -0.196  0.00  0.00    -0.317 N 
ATOM     24  C   UNL     1      12.316  10.079  -1.494  0.00  0.00    +0.106 C 
ATOM     25  C   UNL     1      13.091  11.395  -1.613  0.00  0.00    +0.019 C 
ATOM     26  C   UNL     1      14.019  11.547  -0.406  0.00  0.00    +0.003 C 
ATOM     27  C   UNL     1      13.186  11.591   0.878  0.00  0.00    +0.019 C 
ATOM     28  C   UNL     1      12.412  10.283   1.024  0.00  0.00    +0.106 C 
ATOM     29  H   UNL     1       9.996   9.838  -2.094  0.00  0.00    +0.167 HD
ENDBRANCH  16  17
ENDBRANCH   4  16
TORSDOF 7
