REMARK  Name = ZINC04729457
REMARK  10 active torsions:
REMARK  status: ('A' for Active; 'I' for Inactive)
REMARK    1  A    between atoms: C_1  and  C_2
REMARK    2  A    between atoms: C_2  and  C_3
REMARK    3  A    between atoms: C_6  and  C_9
REMARK    4  A    between atoms: C_11  and  C_23
REMARK    5  A    between atoms: C_13  and  C_16
REMARK    6  A    between atoms: C_21  and  O_22
REMARK    7  A    between atoms: C_26  and  O_31
REMARK    8  A    between atoms: C_27  and  O_29
REMARK    9  A    between atoms: O_29  and  C_30
REMARK   10  A    between atoms: O_31  and  C_32
REMARK                            x       y       z     vdW  Elec       q    Type
REMARK                         _______ _______ _______ _____ _____    ______ ____
ROOT
ATOM      1  C   UNL     1      -1.548   3.619   1.901  0.00  0.00    +0.040 C 
ATOM      2  N   UNL     1      -1.165   3.389   0.702  0.00  0.00    -0.299 NA
ATOM      3  C   UNL     1      -1.333   2.112   0.020  0.00  0.00    +0.081 C 
ATOM      4  C   UNL     1      -2.037   1.201   2.139  0.00  0.00    -0.028 C 
ATOM      5  C   UNL     1      -2.233   2.589   2.756  0.00  0.00    +0.044 C 
ATOM      6  N   UNL     1      -2.344   1.287   0.699  0.00  0.00    +0.401 N 
ATOM      7  H   UNL     1      -2.342   0.344   0.292  0.00  0.00    -0.081 HD
ATOM      8  H   UNL     1      -3.270   1.712   0.573  0.00  0.00    -0.081 HD
ENDROOT
BRANCH   1  12
ATOM      9  C   UNL     1      -0.850   7.471   3.545  0.00  0.00    -0.048 A 
ATOM     10  C   UNL     1      -0.448   7.191   2.251  0.00  0.00    +0.004 A 
ATOM     11  C   UNL     1      -0.671   5.941   1.711  0.00  0.00    +0.010 A 
ATOM     12  C   UNL     1      -1.305   4.958   2.473  0.00  0.00    -0.004 A 
ATOM     13  C   UNL     1      -1.713   5.249   3.776  0.00  0.00    +0.010 A 
ATOM     14  C   UNL     1      -1.478   6.500   4.306  0.00  0.00    +0.004 A 
BRANCH   9  16
ATOM     15  C   UNL     1      -1.800   9.743   3.832  0.00  0.00    +0.009 C 
ATOM     16  C   UNL     1      -0.603   8.838   4.128  0.00  0.00    +0.032 C 
ENDBRANCH   9  16
ENDBRANCH   1  12
BRANCH   4  17
ATOM     17  C   UNL     1      -2.970   0.216   2.795  0.00  0.00    -0.019 A 
ATOM     18  C   UNL     1      -4.150  -0.141   2.171  0.00  0.00    +0.005 A 
ATOM     19  C   UNL     1      -5.004  -1.048   2.770  0.00  0.00    +0.000 A 
ATOM     20  C   UNL     1      -4.685  -1.592   4.001  0.00  0.00    +0.004 A 
ATOM     21  C   UNL     1      -3.510  -1.235   4.632  0.00  0.00    +0.045 A 
ATOM     22  C   UNL     1      -2.648  -0.329   4.030  0.00  0.00    +0.118 A 
BRANCH  22  23
ATOM     23  O   UNL     1      -1.491   0.025   4.649  0.00  0.00    -0.507 OA
ATOM     24  H   UNL     1      -1.575   0.793   5.231  0.00  0.00    +0.292 HD
ENDBRANCH  22  23
ENDBRANCH   4  17
BRANCH   3  25
ATOM     25  C   UNL     1      -0.017   1.378   0.010  0.00  0.00    -0.037 A 
ATOM     26  C   UNL     1       0.002  -0.004   0.002  0.00  0.00    +0.007 A 
ATOM     27  C   UNL     1       1.207  -0.682  -0.013  0.00  0.00    +0.049 A 
ATOM     28  C   UNL     1       2.399   0.024  -0.020  0.00  0.00    +0.161 A 
ATOM     29  C   UNL     1       2.380   1.415  -0.013  0.00  0.00    +0.162 A 
ATOM     30  C   UNL     1       1.169   2.089   0.002  0.00  0.00    +0.053 A 
BRANCH  29  31
ATOM     31  O   UNL     1       3.548   2.113  -0.020  0.00  0.00    -0.491 OA
ATOM     32  C   UNL     1       3.452   3.539  -0.012  0.00  0.00    +0.277 C 
ENDBRANCH  29  31
BRANCH  28  33
ATOM     33  O   UNL     1       3.585  -0.641  -0.035  0.00  0.00    -0.491 OA
ATOM     34  C   UNL     1       3.528  -2.069  -0.042  0.00  0.00    +0.277 C 
ENDBRANCH  28  33
ENDBRANCH   3  25
TORSDOF 7
