REMARK  Name = ZINC02244800
REMARK  5 active torsions:
REMARK  status: ('A' for Active; 'I' for Inactive)
REMARK    1  A    between atoms: C_9  and  S_22
REMARK    2  A    between atoms: C_10  and  N_21
REMARK    3  A    between atoms: N_11  and  C_14
REMARK    4  A    between atoms: C_14  and  C_15
REMARK    5  A    between atoms: S_22  and  C_25
REMARK                            x       y       z     vdW  Elec       q    Type
REMARK                         _______ _______ _______ _____ _____    ______ ____
ROOT
ATOM      1  C   UNL     1       4.923   2.947  -6.356  0.00  0.00    +0.002 A 
ATOM      2  C   UNL     1       4.756   4.059  -7.179  0.00  0.00    +0.002 A 
ATOM      3  C   UNL     1       4.222   5.213  -6.696  0.00  0.00    +0.030 A 
ATOM      4  C   UNL     1       3.830   5.293  -5.347  0.00  0.00    +0.092 A 
ATOM      5  C   UNL     1       4.000   4.162  -4.509  0.00  0.00    +0.090 A 
ATOM      6  C   UNL     1       4.556   2.985  -5.046  0.00  0.00    +0.030 A 
ATOM      7  N   UNL     1       3.637   4.209  -3.223  0.00  0.00    -0.240 NA
ATOM      8  C   UNL     1       3.115   5.322  -2.732  0.00  0.00    +0.135 A 
ATOM      9  C   UNL     1       2.636   5.711  -1.458  0.00  0.00    +0.160 A 
ATOM     10  C   UNL     1       2.216   6.995  -1.542  0.00  0.00    +0.126 A 
ATOM     11  N   UNL     1       2.388   7.479  -2.814  0.00  0.00    -0.309 N 
ATOM     12  C   UNL     1       2.937   6.491  -3.603  0.00  0.00    +0.163 A 
ATOM     13  N   UNL     1       3.296   6.423  -4.865  0.00  0.00    -0.226 NA
ENDROOT
BRANCH  10  14
ATOM     14  N   UNL     1       1.687   7.719  -0.489  0.00  0.00    -0.343 N 
ATOM     15  H   UNL     1       1.681   7.342   0.405  0.00  0.00    +0.144 HD
ATOM     16  H   UNL     1       1.321   8.604  -0.644  0.00  0.00    +0.144 HD
ENDBRANCH  10  14
BRANCH   9  17
ATOM     17  S   UNL     1       2.600   4.701  -0.015  0.00  0.00    +0.032 S 
ATOM     18  O   UNL     1       2.886   3.376  -0.439  0.00  0.00    -0.164 OA
ATOM     19  O   UNL     1       1.410   5.037   0.686  0.00  0.00    -0.164 OA
BRANCH  17  20
ATOM     20  C   UNL     1       3.944   5.205   1.007  0.00  0.00    +0.113 A 
ATOM     21  C   UNL     1       3.698   5.773   2.243  0.00  0.00    +0.048 A 
ATOM     22  C   UNL     1       4.754   6.169   3.045  0.00  0.00    +0.043 A 
ATOM     23  C   UNL     1       6.056   6.001   2.607  0.00  0.00    +0.021 A 
ATOM     24  C   UNL     1       6.302   5.428   1.374  0.00  0.00    +0.023 A 
ATOM     25  C   UNL     1       5.246   5.032   0.572  0.00  0.00    +0.066 A 
ATOM     26 CL   UNL     1       5.555   4.319  -0.980  0.00  0.00    -0.082 Cl
ATOM     27 CL   UNL     1       4.444   6.882   4.597  0.00  0.00    -0.083 Cl
ENDBRANCH  17  20
ENDBRANCH   9  17
BRANCH  11  28
ATOM     28  C   UNL     1       2.042   8.830  -3.263  0.00  0.00    +0.156 C 
BRANCH  28  29
ATOM     29  C   UNL     1       3.244   9.756  -3.067  0.00  0.00    +0.138 C 
ATOM     30  C   UNL     1       2.917  11.179  -3.587  0.00  0.00    +0.035 C 
ATOM     31  C   UNL     1       3.908  12.033  -2.749  0.00  0.00    +0.031 C 
ATOM     32  C   UNL     1       3.953  11.264  -1.411  0.00  0.00    +0.160 C 
ATOM     33  O   UNL     1       3.523   9.922  -1.668  0.00  0.00    -0.375 OA
ENDBRANCH  28  29
ENDBRANCH  11  28
TORSDOF 5
