REMARK  Name = ZINC01320195
REMARK  7 active torsions:
REMARK  status: ('A' for Active; 'I' for Inactive)
REMARK    1  A    between atoms: C_1  and  N_54
REMARK    2  A    between atoms: C_8  and  O_29
REMARK    3  A    between atoms: C_10  and  C_12
REMARK    4  A    between atoms: N_17  and  C_20
REMARK    5  A    between atoms: C_18  and  O_19
REMARK    6  A    between atoms: C_20  and  C_21
REMARK    7  A    between atoms: O_29  and  C_30
REMARK                            x       y       z     vdW  Elec       q    Type
REMARK                         _______ _______ _______ _____ _____    ______ ____
ROOT
ATOM      1  C   UNL     1       2.103   0.852   0.357  0.00  0.00    +0.069 A 
ATOM      2  C   UNL     1       2.011  -0.448   0.899  0.00  0.00    +0.279 A 
ATOM      3  O   UNL     1       3.026  -1.082   1.150  0.00  0.00    -0.265 OA
ATOM      4  N   UNL     1       0.805  -0.985   1.138  0.00  0.00    -0.184 NA
ATOM      5  C   UNL     1      -0.297  -0.315   0.872  0.00  0.00    +0.186 A 
ATOM      6  N   UNL     1      -0.249   0.942   0.349  0.00  0.00    -0.286 N 
ATOM      7  C   UNL     1       0.956   1.535   0.087  0.00  0.00    +0.202 A 
ATOM      8  S   UNL     1      -1.861  -1.057   1.201  0.00  0.00    -0.011 SA
ENDROOT
BRANCH   1  18
ATOM      9  C   UNL     1       3.668   0.279  -2.010  0.00  0.00    -0.095 C 
ATOM     10  C   UNL     1       5.639   1.046  -0.827  0.00  0.00    -0.073 C 
ATOM     11  C   UNL     1       6.329   0.944   0.534  0.00  0.00    +0.017 C 
ATOM     12  C   UNL     1       5.460   1.564   1.599  0.00  0.00    -0.040 A 
ATOM     13  C   UNL     1       6.041   1.890   2.816  0.00  0.00    +0.053 A 
ATOM     14  C   UNL     1       5.283   2.454   3.828  0.00  0.00    +0.170 A 
ATOM     15  C   UNL     1       3.929   2.697   3.621  0.00  0.00    +0.208 A 
ATOM     16  C   UNL     1       3.351   2.371   2.402  0.00  0.00    +0.167 A 
ATOM     17  C   UNL     1       4.119   1.805   1.389  0.00  0.00    -0.008 A 
ATOM     18  C   UNL     1       3.448   1.474   0.082  0.00  0.00    +0.007 C 
ATOM     19  O   UNL     1       3.406   3.251   4.755  0.00  0.00    -0.449 OA
ATOM     20  C   UNL     1       4.538   3.721   5.510  0.00  0.00    +0.467 C 
ATOM     21  O   UNL     1       5.611   2.857   5.090  0.00  0.00    -0.452 OA
ATOM     22  N   UNL     1       4.267   0.516  -0.678  0.00  0.00    +0.386 N 
ATOM     23  H   UNL     1       4.305  -0.374  -0.167  0.00  0.00    -0.081 HD
BRANCH  16  24
ATOM     24  O   UNL     1       2.028   2.607   2.196  0.00  0.00    -0.491 OA
ATOM     25  C   UNL     1       1.104   1.766   2.890  0.00  0.00    +0.277 C 
ENDBRANCH  16  24
ENDBRANCH   1  18
BRANCH   7  26
ATOM     26  O   UNL     1       1.008   2.781  -0.432  0.00  0.00    -0.493 OA
ATOM     27  H   UNL     1       1.032   3.483   0.232  0.00  0.00    +0.294 HD
ENDBRANCH   7  26
BRANCH   6  28
ATOM     28  C   UNL     1      -1.494   1.659   0.059  0.00  0.00    +0.162 C 
BRANCH  28  29
ATOM     29  C   UNL     1      -1.911   2.451   1.271  0.00  0.00    -0.027 A 
ATOM     30  C   UNL     1      -2.739   1.879   2.219  0.00  0.00    +0.008 A 
ATOM     31  C   UNL     1      -3.119   2.603   3.333  0.00  0.00    +0.038 A 
ATOM     32  C   UNL     1      -2.678   3.905   3.495  0.00  0.00    +0.123 A 
ATOM     33  C   UNL     1      -1.852   4.479   2.543  0.00  0.00    +0.038 A 
ATOM     34  C   UNL     1      -1.470   3.751   1.432  0.00  0.00    +0.008 A 
ATOM     35  F   UNL     1      -3.052   4.615   4.582  0.00  0.00    -0.205 F 
ENDBRANCH  28  29
ENDBRANCH   6  28
TORSDOF 5
