REMARK  Name = ZINC04537450
REMARK  8 active torsions:
REMARK  status: ('A' for Active; 'I' for Inactive)
REMARK    1  A    between atoms: C_1  and  C_2
REMARK    2  A    between atoms: C_7  and  C_9
REMARK    3  A    between atoms: C_7  and  C_10
REMARK    4  A    between atoms: C_13  and  C_15
REMARK    5  A    between atoms: C_15  and  S_16
REMARK    6  A    between atoms: S_16  and  C_17
REMARK    7  A    between atoms: C_20  and  C_23
REMARK    8  A    between atoms: N_21  and  N_22
REMARK                            x       y       z     vdW  Elec       q    Type
REMARK                         _______ _______ _______ _____ _____    ______ ____
ROOT
ATOM      1  C   UNL     1       1.304  -2.369  -3.553  0.00  0.00    +0.173 C 
ENDROOT
BRANCH   1  13
ATOM      2  C   UNL     1      -0.019   1.532   0.011  0.00  0.00    +0.013 C 
ATOM      3  C   UNL     1       0.002  -0.004   0.002  0.00  0.00    -0.014 C 
ATOM      4  C   UNL     1      -1.427  -0.614  -0.023  0.00  0.00    +0.030 C 
ATOM      5  C   UNL     1      -1.088  -2.044  -0.513  0.00  0.00    +0.077 C 
ATOM      6  C   UNL     1      -0.480  -2.795   0.669  0.00  0.00    +0.029 C 
ATOM      7  C   UNL     1       0.726  -2.106   1.280  0.00  0.00    -0.033 C 
ATOM      8  C   UNL     1       0.726  -0.590   1.212  0.00  0.00    +0.014 C 
ATOM      9  C   UNL     1       2.015  -2.662   0.657  0.00  0.00    +0.011 C 
ATOM     10  C   UNL     1       0.763  -2.497   2.779  0.00  0.00    +0.011 C 
ATOM     11  N   UNL     1      -0.055  -1.854  -1.550  0.00  0.00    -0.297 N 
ATOM     12  C   UNL     1       0.625  -0.576  -1.291  0.00  0.00    +0.114 C 
ATOM     13  C   UNL     1       0.214  -2.699  -2.566  0.00  0.00    +0.226 C 
ATOM     14  O   UNL     1      -0.423  -3.724  -2.687  0.00  0.00    -0.275 OA
ENDBRANCH   1  13
BRANCH   1  15
ATOM     15  S   UNL     1       1.420  -3.690  -4.790  0.00  0.00    -0.075 S 
BRANCH  15  16
ATOM     16  C   UNL     1       2.721  -3.163  -5.856  0.00  0.00    +0.209 A 
ATOM     17  N   UNL     1       3.425  -2.060  -5.739  0.00  0.00    -0.121 NA
ATOM     18  N   UNL     1       4.293  -1.986  -6.684  0.00  0.00    -0.126 NA
ATOM     19  C   UNL     1       4.196  -3.040  -7.465  0.00  0.00    +0.188 A 
ATOM     20  N   UNL     1       3.190  -3.829  -6.954  0.00  0.00    -0.223 N 
BRANCH  19  21
ATOM     21  C   UNL     1       5.013  -3.325  -8.656  0.00  0.00    +0.058 A 
ATOM     22  C   UNL     1       6.195  -2.751  -9.050  0.00  0.00    +0.019 A 
ATOM     23  C   UNL     1       6.784  -3.186 -10.216  0.00  0.00    +0.008 A 
ATOM     24  C   UNL     1       6.179  -4.165 -10.938  0.00  0.00    +0.046 A 
ATOM     25  S   UNL     1       4.727  -4.511  -9.959  0.00  0.00    -0.093 S 
ENDBRANCH  19  21
BRANCH  20  26
ATOM     26  N   UNL     1       2.750  -5.026  -7.444  0.00  0.00    -0.295 N 
ATOM     27  H   UNL     1       2.008  -4.891  -8.114  0.00  0.00    +0.163 HD
ATOM     28  H   UNL     1       3.510  -5.553  -7.847  0.00  0.00    +0.163 HD
ENDBRANCH  20  26
ENDBRANCH  15  16
ENDBRANCH   1  15
TORSDOF 5
