REMARK  Name = ZINC35781289
REMARK  10 active torsions:
REMARK  status: ('A' for Active; 'I' for Inactive)
REMARK    1  A    between atoms: C_1  and  C_2
REMARK    2  A    between atoms: C_2  and  C_3
REMARK    3  A    between atoms: C_2  and  C_4
REMARK    4  A    between atoms: C_2  and  O_31
REMARK    5  A    between atoms: C_4  and  N_5
REMARK    6  A    between atoms: N_5  and  C_6
REMARK    7  A    between atoms: N_5  and  C_14
REMARK    8  A    between atoms: C_6  and  C_7
REMARK    9  A    between atoms: C_7  and  N_8
REMARK   10  A    between atoms: C_14  and  C_15
REMARK                            x       y       z     vdW  Elec       q    Type
REMARK                         _______ _______ _______ _____ _____    ______ ____
ROOT
ATOM      1  C   UNL     1      -0.839  -2.386   0.825  0.00  0.00    -0.003 C 
ENDROOT
BRANCH   1   2
ATOM      2  C   UNL     1       0.591  -1.914   0.889  0.00  0.00    +0.094 A 
ATOM      3  N   UNL     1       1.409  -2.394   1.861  0.00  0.00    -0.312 N 
ATOM      4  H   UNL     1       1.061  -3.036   2.500  0.00  0.00    +0.170 HD
ATOM      5  C   UNL     1       2.692  -1.999   1.955  0.00  0.00    +0.260 A 
ATOM      6  O   UNL     1       3.414  -2.440   2.833  0.00  0.00    -0.267 OA
ATOM      7  C   UNL     1       3.195  -1.052   1.004  0.00  0.00    +0.075 A 
ATOM      8  C   UNL     1       4.545  -0.487   0.917  0.00  0.00    -0.023 A 
ATOM      9  C   UNL     1       4.769   0.398  -0.076  0.00  0.00    -0.004 A 
ATOM     10  S   UNL     1       3.226   0.520  -0.944  0.00  0.00    -0.073 S 
ATOM     11  C   UNL     1       2.278  -0.614   0.038  0.00  0.00    +0.116 A 
ATOM     12  N   UNL     1       1.023  -1.054   0.005  0.00  0.00    -0.229 NA
ATOM     13  C   UNL     1       6.035   1.135  -0.382  0.00  0.00    +0.043 C 
ATOM     14  C   UNL     1       7.205   0.142  -0.409  0.00  0.00    +0.005 C 
ATOM     15  C   UNL     1       7.780   0.039   1.000  0.00  0.00    +0.001 C 
ATOM     16  C   UNL     1       6.668   0.213   2.033  0.00  0.00    +0.005 C 
ATOM     17  C   UNL     1       5.636  -0.900   1.901  0.00  0.00    +0.037 C 
ENDBRANCH   1   2
BRANCH   1  18
ATOM     18  N   UNL     1      -1.494  -1.805  -0.355  0.00  0.00    +0.387 N 
ATOM     19  H   UNL     1      -0.941  -2.001  -1.177  0.00  0.00    -0.081 HD
BRANCH  18  20
ATOM     20  C   UNL     1      -1.615  -0.351  -0.181  0.00  0.00    -0.044 C 
BRANCH  20  22
ATOM     21  C   UNL     1      -2.279   1.452   1.416  0.00  0.00    +0.039 C 
ATOM     22  C   UNL     1      -1.963  -0.039   1.275  0.00  0.00    +0.046 C 
ATOM     23  C   UNL     1      -3.184  -0.860   1.695  0.00  0.00    +0.039 C 
BRANCH  22  24
ATOM     24  O   UNL     1      -0.854  -0.372   2.112  0.00  0.00    -0.391 OA
ATOM     25  H   UNL     1      -1.030  -0.272   3.058  0.00  0.00    +0.210 HD
ENDBRANCH  22  24
ENDBRANCH  20  22
ENDBRANCH  18  20
BRANCH  18  26
ATOM     26  C   UNL     1      -2.830  -2.393  -0.512  0.00  0.00    -0.063 C 
BRANCH  26  27
ATOM     27  C   UNL     1      -3.441  -1.926  -1.835  0.00  0.00    +0.066 C 
BRANCH  27  28
ATOM     28  N   UNL     1      -4.778  -2.514  -1.992  0.00  0.00    -0.300 NA
ATOM     29  C   UNL     1      -4.696  -3.974  -2.149  0.00  0.00    +0.112 C 
ATOM     30  C   UNL     1      -6.111  -4.551  -2.249  0.00  0.00    +0.175 C 
ATOM     31  O   UNL     1      -6.798  -3.927  -3.337  0.00  0.00    -0.377 OA
ATOM     32  C   UNL     1      -6.896  -2.505  -3.217  0.00  0.00    +0.175 C 
ATOM     33  C   UNL     1      -5.490  -1.908  -3.127  0.00  0.00    +0.112 C 
ENDBRANCH  27  28
ENDBRANCH  26  27
ENDBRANCH  18  26
ENDBRANCH   1  18
TORSDOF 8
