REMARK  Name = ZINC11214671
REMARK  12 active torsions:
REMARK  status: ('A' for Active; 'I' for Inactive)
REMARK    1  A    between atoms: C_1  and  C_2
REMARK    2  A    between atoms: C_2  and  C_3
REMARK    3  A    between atoms: C_3  and  C_5
REMARK    4  A    between atoms: C_3  and  C_6
REMARK    5  A    between atoms: C_11  and  N_12
REMARK    6  A    between atoms: C_13  and  C_15
REMARK    7  A    between atoms: C_15  and  S_16
REMARK    8  A    between atoms: S_16  and  C_17
REMARK    9  A    between atoms: C_20  and  C_28
REMARK   10  A    between atoms: N_21  and  C_22
REMARK   11  A    between atoms: C_28  and  C_30
REMARK   12  A    between atoms: C_28  and  N_69
REMARK                            x       y       z     vdW  Elec       q    Type
REMARK                         _______ _______ _______ _____ _____    ______ ____
ROOT
ATOM      1  C   UNL     1      -2.681   4.460   0.067  0.00  0.00    +0.197 A 
ATOM      2  N   UNL     1      -3.773   3.731   0.073  0.00  0.00    -0.122 NA
ATOM      3  N   UNL     1      -4.808   4.492   0.090  0.00  0.00    -0.135 NA
ATOM      4  C   UNL     1      -4.444   5.744   0.096  0.00  0.00    +0.125 A 
ATOM      5  N   UNL     1      -3.075   5.770   0.087  0.00  0.00    -0.275 N 
ENDROOT
BRANCH   5   6
ATOM      6  C   UNL     1      -2.248   6.903   0.094  0.00  0.00    +0.050 A 
ATOM      7  C   UNL     1      -2.243   7.753   1.192  0.00  0.00    +0.026 A 
ATOM      8  C   UNL     1      -1.423   8.865   1.198  0.00  0.00    +0.002 A 
ATOM      9  C   UNL     1      -0.618   9.138   0.108  0.00  0.00    +0.000 A 
ATOM     10  C   UNL     1      -0.626   8.297  -0.989  0.00  0.00    +0.002 A 
ATOM     11  C   UNL     1      -1.439   7.180  -0.999  0.00  0.00    +0.026 A 
ENDBRANCH   5   6
BRANCH   4  12
ATOM     12  C   UNL     1      -5.360   6.940   0.115  0.00  0.00    -0.002 C 
ATOM     13  C   UNL     1      -5.951   7.108   1.516  0.00  0.00    -0.005 C 
BRANCH  12  19
ATOM     14  C   UNL     1      -5.912   6.476  -2.197  0.00  0.00    -0.078 C 
ATOM     15  C   UNL     1      -7.061   6.131  -3.146  0.00  0.00    -0.019 C 
ATOM     16  C   UNL     1      -8.049   7.300  -3.190  0.00  0.00    -0.004 C 
ATOM     17  C   UNL     1      -8.553   7.586  -1.773  0.00  0.00    -0.019 C 
ATOM     18  C   UNL     1      -7.361   7.890  -0.864  0.00  0.00    -0.078 C 
ATOM     19  N   UNL     1      -6.461   6.716  -0.845  0.00  0.00    +0.386 N 
ATOM     20  H   UNL     1      -6.996   5.891  -0.552  0.00  0.00    -0.081 HD
ENDBRANCH  12  19
ENDBRANCH   4  12
BRANCH   1  21
ATOM     21  S   UNL     1      -1.023   3.864   0.044  0.00  0.00    -0.076 S 
BRANCH  21  22
ATOM     22  C   UNL     1      -1.330   2.080   0.033  0.00  0.00    +0.173 C 
BRANCH  22  24
ATOM     23  N   UNL     1       0.002  -0.004   0.001  0.00  0.00    -0.285 N 
ATOM     24  C   UNL     1      -0.015   1.344   0.013  0.00  0.00    +0.227 C 
ATOM     25  O   UNL     1       1.027   1.964   0.001  0.00  0.00    -0.275 OA
ATOM     26  H   UNL     1      -0.828  -0.500   0.077  0.00  0.00    +0.155 HD
BRANCH  23  32
ATOM     27  C   UNL     1       1.278  -1.879  -0.827  0.00  0.00    -0.023 A 
ATOM     28  C   UNL     1       2.480  -2.551  -0.944  0.00  0.00    +0.006 A 
ATOM     29  C   UNL     1       3.621  -2.037  -0.357  0.00  0.00    +0.000 A 
ATOM     30  C   UNL     1       3.564  -0.849   0.348  0.00  0.00    +0.002 A 
ATOM     31  C   UNL     1       2.367  -0.169   0.464  0.00  0.00    +0.023 A 
ATOM     32  C   UNL     1       1.218  -0.686  -0.119  0.00  0.00    +0.037 A 
BRANCH  27  33
ATOM     33  C   UNL     1       0.035  -2.441  -1.467  0.00  0.00    +0.017 C 
ATOM     34  C   UNL     1       0.289  -2.674  -2.958  0.00  0.00    +0.012 C 
BRANCH  33  36
ATOM     35  C   UNL     1      -1.658  -4.276  -1.361  0.00  0.00    +0.004 C 
ATOM     36  C   UNL     1      -0.329  -3.768  -0.798  0.00  0.00    +0.004 C 
ENDBRANCH  33  36
ENDBRANCH  27  33
ENDBRANCH  23  32
ENDBRANCH  22  24
ENDBRANCH  21  22
ENDBRANCH   1  21
TORSDOF 9
