REMARK  Name = ZINC51994609
REMARK  5 active torsions:
REMARK  status: ('A' for Active; 'I' for Inactive)
REMARK    1  A    between atoms: C_1  and  C_2
REMARK    2  A    between atoms: C_2  and  C_4
REMARK    3  A    between atoms: C_2  and  N_15
REMARK    4  A    between atoms: N_15  and  C_16
REMARK    5  A    between atoms: C_22  and  O_24
REMARK                            x       y       z     vdW  Elec       q    Type
REMARK                         _______ _______ _______ _____ _____    ______ ____
ROOT
ATOM      1  C   UNL     1      -0.019   1.526   0.010  0.00  0.00    -0.009 C 
ATOM      2  C   UNL     1       0.002  -0.004   0.002  0.00  0.00    -0.044 C 
ENDROOT
BRANCH   2   3
ATOM      3  C   UNL     1      -1.412  -0.526   0.013  0.00  0.00    -0.060 A 
ATOM      4  C   UNL     1      -2.140  -0.568  -1.162  0.00  0.00    +0.006 A 
ATOM      5  C   UNL     1      -3.438  -1.046  -1.161  0.00  0.00    +0.048 A 
ATOM      6  C   UNL     1      -4.010  -1.484   0.021  0.00  0.00    +0.142 A 
ATOM      7  C   UNL     1      -3.276  -1.440   1.205  0.00  0.00    +0.076 A 
ATOM      8  C   UNL     1      -1.975  -0.966   1.196  0.00  0.00    +0.029 A 
ATOM      9  N   UNL     1      -3.869  -1.884   2.396  0.00  0.00    -0.280 N 
ATOM     10  C   UNL     1      -4.996  -2.626   2.329  0.00  0.00    +0.255 C 
ATOM     11  O   UNL     1      -5.544  -2.995   3.346  0.00  0.00    -0.272 OA
ATOM     12  C   UNL     1      -5.571  -2.994   0.984  0.00  0.00    +0.325 C 
ATOM     13  O   UNL     1      -5.284  -1.958   0.040  0.00  0.00    -0.481 OA
ATOM     14  H   UNL     1      -3.476  -1.663   3.254  0.00  0.00    +0.155 HD
ENDBRANCH   2   3
BRANCH   2  15
ATOM     15  N   UNL     1       0.690  -0.478  -1.207  0.00  0.00    +0.387 N 
ATOM     16  H   UNL     1       0.632  -1.484  -1.254  0.00  0.00    -0.085 HD
ATOM     17  H   UNL     1       0.251  -0.077  -2.022  0.00  0.00    -0.085 HD
BRANCH  15  18
ATOM     18  C   UNL     1       2.100  -0.070  -1.159  0.00  0.00    -0.042 C 
ATOM     19  C   UNL     1       2.796  -0.777   0.006  0.00  0.00    -0.013 C 
ATOM     20  C   UNL     1       4.265  -0.352   0.055  0.00  0.00    -0.001 C 
ATOM     21  C   UNL     1       4.952  -0.736  -1.257  0.00  0.00    +0.002 C 
ATOM     22  C   UNL     1       4.255  -0.029  -2.422  0.00  0.00    +0.030 C 
ATOM     23  C   UNL     1       2.786  -0.454  -2.472  0.00  0.00    +0.101 C 
BRANCH  23  24
ATOM     24  O   UNL     1       2.136   0.206  -3.560  0.00  0.00    -0.393 OA
ATOM     25  H   UNL     1       2.520   0.009  -4.425  0.00  0.00    +0.210 HD
ENDBRANCH  23  24
ENDBRANCH  15  18
ENDBRANCH   2  15
TORSDOF 4
