REMARK  Name = ZINC67287570
REMARK  8 active torsions:
REMARK  status: ('A' for Active; 'I' for Inactive)
REMARK    1  A    between atoms: C_1  and  C_2
REMARK    2  A    between atoms: C_10  and  C_11
REMARK    3  A    between atoms: N_13  and  N_14
REMARK    4  A    between atoms: C_15  and  C_17
REMARK    5  A    between atoms: C_17  and  C_19
REMARK    6  A    between atoms: C_17  and  N_22
REMARK    7  A    between atoms: C_19  and  C_20
REMARK    8  A    between atoms: C_19  and  C_21
REMARK                            x       y       z     vdW  Elec       q    Type
REMARK                         _______ _______ _______ _____ _____    ______ ____
ROOT
ATOM      1  N   UNL     1       0.264  -1.223   4.745  0.00  0.00    -0.235 N 
ATOM      2  C   UNL     1      -0.018  -1.943   5.849  0.00  0.00    +0.216 C 
ATOM      3  O   UNL     1      -0.513  -3.045   5.745  0.00  0.00    -0.276 OA
ATOM      4  H   UNL     1       0.590  -0.314   4.828  0.00  0.00    +0.173 HD
ENDROOT
BRANCH   1   7
ATOM      5  C   UNL     1       0.367  -1.070   2.371  0.00  0.00    +0.296 C 
ATOM      6  O   UNL     1       0.776   0.071   2.476  0.00  0.00    -0.265 OA
ATOM      7  N   UNL     1       0.086  -1.789   3.475  0.00  0.00    -0.228 N 
ATOM      8  H   UNL     1      -0.241  -2.699   3.392  0.00  0.00    +0.173 HD
BRANCH   5  18
ATOM      9  C   UNL     1       0.940   0.370  -0.325  0.00  0.00    +0.048 C 
ATOM     10  C   UNL     1       0.430  -1.036  -0.138  0.00  0.00    +0.008 A 
ATOM     11  C   UNL     1       0.110  -2.002  -1.188  0.00  0.00    +0.024 A 
ATOM     12  C   UNL     1       0.155  -1.974  -2.584  0.00  0.00    +0.012 A 
ATOM     13  C   UNL     1      -0.223  -3.077  -3.296  0.00  0.00    +0.001 A 
ATOM     14  C   UNL     1      -0.652  -4.224  -2.642  0.00  0.00    +0.004 A 
ATOM     15  C   UNL     1      -0.704  -4.272  -1.266  0.00  0.00    +0.047 A 
ATOM     16  C   UNL     1      -0.324  -3.162  -0.520  0.00  0.00    +0.136 A 
ATOM     17  O   UNL     1      -0.269  -2.914   0.803  0.00  0.00    -0.450 OA
ATOM     18  C   UNL     1       0.180  -1.664   1.040  0.00  0.00    +0.195 A 
ENDBRANCH   5  18
ENDBRANCH   1   7
BRANCH   2  19
ATOM     19  C   UNL     1       0.283  -1.377   7.213  0.00  0.00    +0.023 C 
BRANCH  19  20
ATOM     20  N   UNL     1       0.544  -2.477   8.152  0.00  0.00    +0.388 N 
ATOM     21  C   UNL     1       0.838  -1.925   9.480  0.00  0.00    -0.078 C 
ATOM     22  C   UNL     1       1.031  -3.067  10.480  0.00  0.00    -0.019 C 
ATOM     23  C   UNL     1       2.198  -3.946  10.022  0.00  0.00    -0.004 C 
ATOM     24  C   UNL     1       1.915  -4.456   8.606  0.00  0.00    -0.019 C 
ATOM     25  C   UNL     1       1.689  -3.263   7.676  0.00  0.00    -0.078 C 
ATOM     26  H   UNL     1      -0.270  -3.070   8.209  0.00  0.00    -0.081 HD
ENDBRANCH  19  20
BRANCH  19  27
ATOM     27  C   UNL     1      -0.916  -0.563   7.703  0.00  0.00    -0.022 C 
ATOM     28  C   UNL     1      -1.157   0.612   6.753  0.00  0.00    +0.006 C 
ATOM     29  C   UNL     1      -2.159  -1.454   7.736  0.00  0.00    +0.006 C 
ENDBRANCH  19  27
ENDBRANCH   2  19
TORSDOF 5
