REMARK  Name = ZINC02747190
REMARK  7 active torsions:
REMARK  status: ('A' for Active; 'I' for Inactive)
REMARK    1  A    between atoms: C_1  and  C_2
REMARK    2  A    between atoms: C_2  and  S_3
REMARK    3  A    between atoms: S_3  and  C_4
REMARK    4  A    between atoms: C_17  and  C_20
REMARK    5  A    between atoms: C_22  and  O_28
REMARK    6  A    between atoms: C_23  and  O_27
REMARK    7  A    between atoms: O_28  and  C_29
REMARK                            x       y       z     vdW  Elec       q    Type
REMARK                         _______ _______ _______ _____ _____    ______ ____
ROOT
ATOM      1  C   UNL     1       0.203   0.952   2.735  0.00  0.00    +0.212 A 
ATOM      2  N   UNL     1      -0.083   1.156   4.017  0.00  0.00    -0.184 NA
ATOM      3  C   UNL     1       0.685   0.612   4.946  0.00  0.00    +0.248 A 
ATOM      4  C   UNL     1       1.787  -0.175   4.540  0.00  0.00    +0.156 A 
ATOM      5  N   UNL     1       2.019  -0.336   3.247  0.00  0.00    -0.141 NA
ATOM      6  N   UNL     1       1.243   0.210   2.375  0.00  0.00    -0.122 NA
ATOM      7  C   UNL     1       2.651  -0.802   5.562  0.00  0.00    +0.028 A 
ATOM      8  C   UNL     1       4.036  -0.731   5.486  0.00  0.00    +0.012 A 
ATOM      9  C   UNL     1       4.809  -1.358   6.444  0.00  0.00    +0.001 A 
ATOM     10  C   UNL     1       4.212  -2.056   7.479  0.00  0.00    +0.002 A 
ATOM     11  C   UNL     1       2.834  -2.129   7.571  0.00  0.00    +0.024 A 
ATOM     12  C   UNL     1       2.047  -1.502   6.623  0.00  0.00    +0.039 A 
ATOM     13  N   UNL     1       0.651  -1.542   6.693  0.00  0.00    -0.305 N 
ATOM     14  C   UNL     1      -0.073  -0.312   6.997  0.00  0.00    +0.294 C 
ATOM     15  O   UNL     1       0.437   0.796   6.264  0.00  0.00    -0.449 OA
ATOM     16  H   UNL     1       0.172  -2.373   6.543  0.00  0.00    +0.150 HD
ENDROOT
BRANCH  14  17
ATOM     17  C   UNL     1       0.046  -0.023   8.471  0.00  0.00    +0.016 A 
ATOM     18  C   UNL     1       0.174   1.282   8.910  0.00  0.00    +0.058 A 
ATOM     19  C   UNL     1       0.278   1.550  10.265  0.00  0.00    +0.163 A 
ATOM     20  C   UNL     1       0.265   0.503  11.182  0.00  0.00    +0.177 A 
ATOM     21  C   UNL     1       0.142  -0.803  10.735  0.00  0.00    +0.086 A 
ATOM     22  C   UNL     1       0.033  -1.063   9.380  0.00  0.00    +0.032 A 
ATOM     23 CL   UNL     1       0.125  -2.112  11.875  0.00  0.00    -0.080 Cl
BRANCH  20  24
ATOM     24  O   UNL     1       0.374   0.762  12.513  0.00  0.00    -0.502 OA
ATOM     25  H   UNL     1       1.284   0.774  12.838  0.00  0.00    +0.292 HD
ENDBRANCH  20  24
BRANCH  19  26
ATOM     26  O   UNL     1       0.399   2.834  10.698  0.00  0.00    -0.491 OA
ATOM     27  C   UNL     1       0.405   3.857   9.701  0.00  0.00    +0.277 C 
ENDBRANCH  19  26
ENDBRANCH  14  17
BRANCH   1  28
ATOM     28  S   UNL     1      -0.817   1.674   1.493  0.00  0.00    -0.085 S 
BRANCH  28  30
ATOM     29  C   UNL     1      -0.704   1.593  -1.235  0.00  0.00    +0.016 C 
ATOM     30  C   UNL     1       0.026   1.077   0.007  0.00  0.00    +0.074 C 
ENDBRANCH  28  30
ENDBRANCH   1  28
TORSDOF 5
