REMARK  Name = ZINC12525793
REMARK  14 active torsions:
REMARK  status: ('A' for Active; 'I' for Inactive)
REMARK    1  A    between atoms: C_1  and  C_2
REMARK    2  A    between atoms: C_5  and  C_32
REMARK    3  A    between atoms: C_6  and  O_8
REMARK    4  A    between atoms: O_8  and  C_9
REMARK    5  A    between atoms: C_9  and  C_10
REMARK    6  A    between atoms: N_12  and  C_13
REMARK    7  A    between atoms: C_15  and  S_20
REMARK    8  A    between atoms: C_18  and  O_19
REMARK    9  A    between atoms: S_20  and  N_23
REMARK   10  A    between atoms: N_23  and  C_24
REMARK   11  A    between atoms: C_29  and  O_30
REMARK   12  A    between atoms: O_30  and  C_31
REMARK   13  A    between atoms: C_32  and  C_33
REMARK   14  A    between atoms: C_32  and  C_34
REMARK                            x       y       z     vdW  Elec       q    Type
REMARK                         _______ _______ _______ _____ _____    ______ ____
ROOT
ATOM      1  C   UNL     1       2.277   3.206   3.430  0.00  0.00    +0.077 A 
ATOM      2  C   UNL     1       1.617   2.287   2.628  0.00  0.00    +0.055 A 
ATOM      3  C   UNL     1       0.934   2.714   1.505  0.00  0.00    +0.110 A 
ATOM      4  C   UNL     1       0.910   4.057   1.175  0.00  0.00    +0.032 A 
ATOM      5  C   UNL     1       1.561   4.980   1.973  0.00  0.00    +0.049 A 
ATOM      6  C   UNL     1       2.248   4.559   3.100  0.00  0.00    +0.138 A 
ENDROOT
BRANCH   1   9
ATOM      7  C   UNL     1       3.598   1.582   4.564  0.00  0.00    +0.255 C 
ATOM      8  O   UNL     1       3.496   0.847   3.605  0.00  0.00    -0.272 OA
ATOM      9  N   UNL     1       2.971   2.775   4.569  0.00  0.00    -0.280 N 
ATOM     10  H   UNL     1       2.999   3.336   5.360  0.00  0.00    +0.155 HD
BRANCH   7  11
ATOM     11  C   UNL     1       4.425   1.162   5.751  0.00  0.00    +0.324 C 
BRANCH  11  12
ATOM     12  O   UNL     1       4.984  -0.131   5.509  0.00  0.00    -0.482 OA
BRANCH  12  18
ATOM     13  C   UNL     1       7.020   0.282   9.925  0.00  0.00    +0.044 C 
ATOM     14  C   UNL     1       6.778  -0.490   8.653  0.00  0.00    -0.047 A 
ATOM     15  C   UNL     1       7.348  -1.738   8.483  0.00  0.00    +0.004 A 
ATOM     16  C   UNL     1       7.128  -2.448   7.317  0.00  0.00    +0.008 A 
ATOM     17  C   UNL     1       6.337  -1.912   6.320  0.00  0.00    -0.003 A 
ATOM     18  C   UNL     1       5.763  -0.660   6.489  0.00  0.00    +0.125 A 
ATOM     19  C   UNL     1       5.990   0.053   7.657  0.00  0.00    +0.049 A 
BRANCH  17  20
ATOM     20  C   UNL     1       6.096  -2.686   5.050  0.00  0.00    +0.016 C 
ATOM     21  C   UNL     1       7.433  -2.955   4.356  0.00  0.00    +0.012 C 
ATOM     22  C   UNL     1       5.419  -4.017   5.384  0.00  0.00    +0.012 C 
ENDBRANCH  17  20
ENDBRANCH  12  18
ENDBRANCH  11  12
ENDBRANCH   7  11
ENDBRANCH   1   9
BRANCH   3  23
ATOM     23  S   UNL     1       0.097   1.544   0.487  0.00  0.00    +0.073 S 
ATOM     24  O   UNL     1       0.730   0.291   0.704  0.00  0.00    -0.150 OA
ATOM     25  O   UNL     1      -0.009   2.131  -0.803  0.00  0.00    -0.150 OA
BRANCH  23  26
ATOM     26  N   UNL     1      -1.446   1.402   1.071  0.00  0.00    -0.213 N 
ATOM     27  H   UNL     1      -1.768   0.543   1.386  0.00  0.00    +0.174 HD
BRANCH  26  28
ATOM     28  C   UNL     1      -2.287   2.521   1.106  0.00  0.00    +0.090 A 
ATOM     29  C   UNL     1      -2.221   3.471   0.098  0.00  0.00    +0.028 A 
ATOM     30  C   UNL     1      -3.056   4.572   0.131  0.00  0.00    +0.002 A 
ATOM     31  C   UNL     1      -3.950   4.734   1.173  0.00  0.00    +0.004 A 
ATOM     32  C   UNL     1      -4.018   3.794   2.184  0.00  0.00    +0.047 A 
ATOM     33  C   UNL     1      -3.188   2.685   2.156  0.00  0.00    +0.142 A 
BRANCH  33  34
ATOM     34  O   UNL     1      -3.252   1.759   3.150  0.00  0.00    -0.493 OA
ATOM     35  C   UNL     1      -4.199   1.993   4.194  0.00  0.00    +0.277 C 
ENDBRANCH  33  34
ENDBRANCH  26  28
ENDBRANCH  23  26
ENDBRANCH   3  23
BRANCH   6  36
ATOM     36  O   UNL     1       2.893   5.465   3.882  0.00  0.00    -0.505 OA
ATOM     37  H   UNL     1       3.812   5.625   3.624  0.00  0.00    +0.292 HD
ENDBRANCH   6  36
TORSDOF 10
