REMARK  Name = ZINC07554809
REMARK  4 active torsions:
REMARK  status: ('A' for Active; 'I' for Inactive)
REMARK    1  A    between atoms: C_1  and  C_2
REMARK    2  A    between atoms: C_2  and  C_4
REMARK    3  A    between atoms: C_2  and  N_54
REMARK    4  A    between atoms: C_20  and  C_23
REMARK                            x       y       z     vdW  Elec       q    Type
REMARK                         _______ _______ _______ _____ _____    ______ ____
ROOT
ATOM      1  C   UNL     1      -2.065   1.648   1.354  0.00  0.00    -0.004 C 
ATOM      2  C   UNL     1      -1.362   2.005   0.042  0.00  0.00    +0.017 C 
ENDROOT
BRANCH   2   3
ATOM      3  C   UNL     1      -0.041   1.283  -0.032  0.00  0.00    +0.206 C 
ATOM      4  O   UNL     1       0.994   1.893   0.133  0.00  0.00    -0.277 OA
ATOM      5  N   UNL     1      -0.010  -0.040  -0.287  0.00  0.00    -0.262 N 
ATOM      6  C   UNL     1      -1.250  -0.825  -0.380  0.00  0.00    +0.209 C 
ATOM      7  C   UNL     1      -1.059  -2.139   0.325  0.00  0.00    +0.235 C 
ATOM      8  O   UNL     1      -2.014  -2.693   0.828  0.00  0.00    -0.274 OA
ATOM      9  N   UNL     1       0.159  -2.706   0.409  0.00  0.00    -0.283 N 
ATOM     10  C   UNL     1       1.285  -2.064  -0.119  0.00  0.00    +0.055 A 
ATOM     11  C   UNL     1       1.208  -0.714  -0.467  0.00  0.00    +0.058 A 
ATOM     12  C   UNL     1       2.316  -0.064  -0.979  0.00  0.00    +0.025 A 
ATOM     13  C   UNL     1       3.502  -0.758  -1.149  0.00  0.00    +0.002 A 
ATOM     14  C   UNL     1       3.579  -2.095  -0.808  0.00  0.00    +0.002 A 
ATOM     15  C   UNL     1       2.475  -2.751  -0.294  0.00  0.00    +0.025 A 
ATOM     16  H   UNL     1       0.257  -3.570   0.840  0.00  0.00    +0.155 HD
ENDBRANCH   2   3
BRANCH   2  22
ATOM     17  C   UNL     1      -0.305   3.898   1.119  0.00  0.00    -0.078 C 
ATOM     18  C   UNL     1       0.035   5.381   0.953  0.00  0.00    -0.018 C 
ATOM     19  C   UNL     1      -1.261   6.194   0.894  0.00  0.00    +0.006 C 
ATOM     20  C   UNL     1      -2.124   5.680  -0.262  0.00  0.00    +0.028 C 
ATOM     21  C   UNL     1      -2.402   4.188  -0.060  0.00  0.00    -0.068 C 
ATOM     22  N   UNL     1      -1.116   3.460  -0.037  0.00  0.00    +0.388 N 
ATOM     23  H   UNL     1      -0.601   3.664  -0.901  0.00  0.00    -0.081 HD
BRANCH  20  24
ATOM     24  C   UNL     1      -3.428   6.435  -0.291  0.00  0.00    +0.081 A 
ATOM     25  N   UNL     1      -3.917   7.168  -1.251  0.00  0.00    -0.244 NA
ATOM     26  C   UNL     1      -5.106   7.796  -1.150  0.00  0.00    +0.078 A 
ATOM     27  C   UNL     1      -5.763   8.617  -2.094  0.00  0.00    +0.029 A 
ATOM     28  C   UNL     1      -6.973   9.171  -1.810  0.00  0.00    +0.002 A 
ATOM     29  C   UNL     1      -7.605   8.954  -0.593  0.00  0.00    +0.001 A 
ATOM     30  C   UNL     1      -6.995   8.158   0.357  0.00  0.00    +0.017 A 
ATOM     31  C   UNL     1      -5.773   7.594   0.080  0.00  0.00    +0.039 A 
ATOM     32  S   UNL     1      -4.644   6.532   0.945  0.00  0.00    -0.072 S 
ENDBRANCH  20  24
ENDBRANCH   2  22
TORSDOF 3
