REMARK  Name = ZINC24854686
REMARK  8 active torsions:
REMARK  status: ('A' for Active; 'I' for Inactive)
REMARK    1  A    between atoms: C_1  and  C_2
REMARK    2  A    between atoms: C_5  and  N_9
REMARK    3  A    between atoms: C_6  and  C_8
REMARK    4  A    between atoms: C_13  and  C_15
REMARK    5  A    between atoms: C_15  and  C_17
REMARK    6  A    between atoms: C_15  and  N_18
REMARK    7  A    between atoms: N_21  and  S_24
REMARK    8  A    between atoms: S_24  and  C_27
REMARK                            x       y       z     vdW  Elec       q    Type
REMARK                         _______ _______ _______ _____ _____    ______ ____
ROOT
ATOM      1  C   UNL     1      -0.085   1.546   0.051  0.00  0.00    +0.017 C 
ATOM      2  C   UNL     1      -0.680   1.920   1.410  0.00  0.00    -0.004 C 
ENDROOT
BRANCH   1   7
ATOM      3  N   UNL     1       0.576  -3.115   1.023  0.00  0.00    -0.269 N 
ATOM      4  C   UNL     1      -0.009  -2.163   0.269  0.00  0.00    +0.310 C 
ATOM      5  O   UNL     1      -0.753  -2.479  -0.638  0.00  0.00    -0.252 OA
ATOM      6  N   UNL     1       0.231  -0.862   0.522  0.00  0.00    -0.241 N 
ATOM      7  C   UNL     1      -0.354   0.090  -0.232  0.00  0.00    +0.207 C 
ATOM      8  O   UNL     1      -1.096  -0.224  -1.137  0.00  0.00    -0.277 OA
ATOM      9  H   UNL     1       1.187  -2.830   1.892  0.00  0.00    +0.156 HD
ATOM     10  H   UNL     1       0.905  -0.576   1.343  0.00  0.00    +0.159 HD
BRANCH   3  15
ATOM     11  C   UNL     1      -0.109  -8.592  -0.291  0.00  0.00    +0.044 C 
ATOM     12  C   UNL     1       0.073  -7.137   0.059  0.00  0.00    -0.050 A 
ATOM     13  C   UNL     1      -0.956  -6.240  -0.165  0.00  0.00    +0.005 A 
ATOM     14  C   UNL     1      -0.792  -4.906   0.153  0.00  0.00    +0.024 A 
ATOM     15  C   UNL     1       0.407  -4.466   0.699  0.00  0.00    +0.038 A 
ATOM     16  C   UNL     1       1.440  -5.369   0.918  0.00  0.00    -0.029 A 
ATOM     17  C   UNL     1       1.268  -6.702   0.602  0.00  0.00    +0.008 A 
ATOM     18  C   UNL     1       2.744  -4.894   1.504  0.00  0.00    +0.045 C 
ENDBRANCH   3  15
ENDBRANCH   1   7
BRANCH   1  19
ATOM     19  N   UNL     1      -0.702   2.370  -0.997  0.00  0.00    +0.389 N 
ATOM     20  C   UNL     1      -0.174   3.741  -0.968  0.00  0.00    -0.060 C 
ATOM     21  C   UNL     1      -0.702   4.514  -2.181  0.00  0.00    +0.091 C 
ATOM     22  N   UNL     1      -2.170   4.414  -2.195  0.00  0.00    -0.180 NA
ATOM     23  C   UNL     1      -2.777   3.078  -2.088  0.00  0.00    +0.091 C 
ATOM     24  C   UNL     1      -2.167   2.362  -0.879  0.00  0.00    -0.060 C 
ATOM     25  H   UNL     1      -0.442   1.932  -1.971  0.00  0.00    -0.081 HD
BRANCH  22  26
ATOM     26  S   UNL     1      -3.113   5.768  -2.329  0.00  0.00    +0.064 S 
ATOM     27  O   UNL     1      -2.312   6.760  -2.957  0.00  0.00    -0.153 OA
ATOM     28  O   UNL     1      -4.359   5.344  -2.866  0.00  0.00    -0.153 OA
BRANCH  26  29
ATOM     29  C   UNL     1      -3.437   6.341  -0.695  0.00  0.00    +0.143 A 
ATOM     30  C   UNL     1      -2.941   7.562  -0.280  0.00  0.00    +0.069 A 
ATOM     31  C   UNL     1      -3.198   8.014   1.003  0.00  0.00    +0.125 A 
ATOM     32  C   UNL     1      -3.946   7.239   1.873  0.00  0.00    +0.041 A 
ATOM     33  C   UNL     1      -4.438   6.016   1.460  0.00  0.00    +0.043 A 
ATOM     34  C   UNL     1      -4.184   5.566   0.175  0.00  0.00    +0.150 A 
ATOM     35  F   UNL     1      -4.665   4.370  -0.229  0.00  0.00    -0.203 F 
ATOM     36  F   UNL     1      -2.717   9.210   1.407  0.00  0.00    -0.205 F 
ENDBRANCH  26  29
ENDBRANCH  22  26
ENDBRANCH   1  19
TORSDOF 5
