REMARK  Name = ZINC05505954
REMARK  5 active torsions:
REMARK  status: ('A' for Active; 'I' for Inactive)
REMARK    1  A    between atoms: C_1  and  C_2
REMARK    2  A    between atoms: C_2  and  C_14
REMARK    3  A    between atoms: N_3  and  N_4
REMARK    4  A    between atoms: N_7  and  C_8
REMARK    5  A    between atoms: C_17  and  C_20
REMARK                            x       y       z     vdW  Elec       q    Type
REMARK                         _______ _______ _______ _____ _____    ______ ____
ROOT
ATOM      1  N   UNL     1      -2.345   0.934   0.018  0.00  0.00    -0.191 N 
ATOM      2  C   UNL     1      -1.187   1.624   0.017  0.00  0.00    +0.319 C 
ATOM      3  O   UNL     1      -1.204   2.840   0.023  0.00  0.00    -0.251 OA
ATOM      4  N   UNL     1      -0.011   0.966   0.007  0.00  0.00    -0.295 N 
ATOM      5  H   UNL     1      -3.192   1.408   0.025  0.00  0.00    +0.179 HD
ATOM      6  H   UNL     1       0.002  -0.004   0.002  0.00  0.00    +0.151 HD
ENDROOT
BRANCH   4   7
ATOM      7  C   UNL     1       1.248   1.716  -0.001  0.00  0.00    +0.074 C 
ATOM      8  C   UNL     1       1.608   2.092  -1.439  0.00  0.00    +0.022 C 
ATOM      9  C   UNL     1       2.922   2.875  -1.448  0.00  0.00    +0.002 C 
ATOM     10  C   UNL     1       4.035   2.010  -0.853  0.00  0.00    +0.000 C 
ATOM     11  C   UNL     1       3.675   1.633   0.585  0.00  0.00    +0.002 C 
ATOM     12  C   UNL     1       2.361   0.850   0.594  0.00  0.00    +0.022 C 
ENDBRANCH   4   7
BRANCH   1  15
ATOM     13  C   UNL     1      -4.757  -0.395   0.022  0.00  0.00    +0.068 C 
ATOM     14  C   UNL     1      -3.442  -1.131   0.012  0.00  0.00    +0.063 C 
ATOM     15  N   UNL     1      -2.326  -0.467   0.011  0.00  0.00    -0.183 NA
BRANCH  14  16
ATOM     16  C   UNL     1      -3.422  -2.604   0.004  0.00  0.00    -0.002 A 
ATOM     17  C   UNL     1      -4.623  -3.320   0.012  0.00  0.00    +0.011 A 
ATOM     18  C   UNL     1      -4.604  -4.686  -0.002  0.00  0.00    +0.019 A 
ATOM     19  C   UNL     1      -3.384  -5.368  -0.011  0.00  0.00    +0.052 A 
ATOM     20  C   UNL     1      -2.183  -4.653  -0.013  0.00  0.00    +0.019 A 
ATOM     21  C   UNL     1      -2.201  -3.287  -0.005  0.00  0.00    +0.011 A 
BRANCH  19  22
ATOM     22  C   UNL     1      -3.365  -6.800  -0.020  0.00  0.00    +0.099 C 
ATOM     23  N   UNL     1      -3.349  -7.936  -0.026  0.00  0.00    -0.191 NA
ENDBRANCH  19  22
ENDBRANCH  14  16
ENDBRANCH   1  15
TORSDOF 4
