REMARK  Name = ZINC01916174
REMARK  14 active torsions:
REMARK  status: ('A' for Active; 'I' for Inactive)
REMARK    1  A    between atoms: C_1  and  C_2
REMARK    2  A    between atoms: C_2  and  C_3
REMARK    3  A    between atoms: C_3  and  N_61
REMARK    4  A    between atoms: C_4  and  C_5
REMARK    5  A    between atoms: C_4  and  N_61
REMARK    6  A    between atoms: C_5  and  C_6
REMARK    7  A    between atoms: C_7  and  C_8
REMARK    8  A    between atoms: C_7  and  N_61
REMARK    9  A    between atoms: C_9  and  O_33
REMARK   10  A    between atoms: C_15  and  C_29
REMARK   11  A    between atoms: C_16  and  O_19
REMARK   12  A    between atoms: O_19  and  C_20
REMARK   13  A    between atoms: C_22  and  C_28
REMARK   14  A    between atoms: C_24  and  C_26
REMARK                            x       y       z     vdW  Elec       q    Type
REMARK                         _______ _______ _______ _____ _____    ______ ____
ROOT
ATOM      1  C   UNL     1      -0.018   1.957   0.478  0.00  0.00    +0.020 A 
ATOM      2  C   UNL     1       1.175   2.632   0.670  0.00  0.00    +0.122 A 
ATOM      3  C   UNL     1       1.178   3.977   1.036  0.00  0.00    +0.046 A 
ATOM      4  C   UNL     1       0.001   4.648   1.210  0.00  0.00    +0.019 A 
ATOM      5  C   UNL     1      -1.210   3.981   1.020  0.00  0.00    +0.068 A 
ATOM      6  C   UNL     1      -1.222   2.625   0.645  0.00  0.00    +0.144 A 
ATOM      7  O   UNL     1      -2.398   1.993   0.459  0.00  0.00    -0.447 OA
ATOM      8  C   UNL     1      -3.578   2.610   0.611  0.00  0.00    +0.254 A 
ATOM      9  C   UNL     1      -3.682   3.907   0.963  0.00  0.00    +0.222 A 
ATOM     10  C   UNL     1      -2.501   4.668   1.197  0.00  0.00    +0.235 A 
ATOM     11  O   UNL     1      -2.556   5.844   1.516  0.00  0.00    -0.283 OA
ENDROOT
BRANCH   8  12
ATOM     12  C   UNL     1      -4.840   1.821   0.381  0.00  0.00    +0.454 C 
ATOM     13  F   UNL     1      -5.216   1.922  -0.963  0.00  0.00    -0.163 F 
ATOM     14  F   UNL     1      -4.616   0.478   0.703  0.00  0.00    -0.163 F 
ATOM     15  F   UNL     1      -5.862   2.330   1.190  0.00  0.00    -0.163 F 
ENDBRANCH   8  12
BRANCH   2  16
ATOM     16  O   UNL     1       2.353   1.979   0.501  0.00  0.00    -0.506 OA
ATOM     17  H   UNL     1       2.701   2.022  -0.400  0.00  0.00    +0.292 HD
ENDBRANCH   2  16
BRANCH   1  18
ATOM     18  C   UNL     1      -0.009   0.502   0.083  0.00  0.00    -0.036 C 
BRANCH  18  19
ATOM     19  N   UNL     1      -0.037  -0.325   1.308  0.00  0.00    +0.383 N 
ATOM     20  H   UNL     1      -0.813  -0.012   1.903  0.00  0.00    -0.081 HD
BRANCH  19  21
ATOM     21  C   UNL     1      -0.245  -1.744   0.954  0.00  0.00    -0.079 C 
BRANCH  21  23
ATOM     22  C   UNL     1      -1.986  -3.444   0.389  0.00  0.00    +0.002 C 
ATOM     23  C   UNL     1      -1.723  -1.955   0.620  0.00  0.00    -0.022 C 
ENDBRANCH  21  23
ENDBRANCH  19  21
BRANCH  19  24
ATOM     24  C   UNL     1       1.231  -0.170   2.051  0.00  0.00    -0.079 C 
BRANCH  24  25
ATOM     25  C   UNL     1       1.051  -0.746   3.457  0.00  0.00    -0.022 C 
ATOM     26  C   UNL     1       2.353  -0.588   4.244  0.00  0.00    +0.002 C 
ENDBRANCH  24  25
ENDBRANCH  19  24
ENDBRANCH  18  19
ENDBRANCH   1  18
BRANCH   9  27
ATOM     27  O   UNL     1      -4.907   4.483   1.103  0.00  0.00    -0.448 OA
BRANCH  27  28
ATOM     28  C   UNL     1      -5.496   4.438   2.327  0.00  0.00    +0.129 A 
ATOM     29  C   UNL     1      -4.851   3.814   3.386  0.00  0.00    +0.051 A 
ATOM     30  C   UNL     1      -5.449   3.774   4.630  0.00  0.00    -0.028 A 
ATOM     31  C   UNL     1      -6.695   4.347   4.819  0.00  0.00    +0.047 A 
ATOM     32  C   UNL     1      -7.342   4.965   3.763  0.00  0.00    -0.028 A 
ATOM     33  C   UNL     1      -6.745   5.011   2.519  0.00  0.00    +0.051 A 
ATOM     34  C   UNL     1      -8.698   5.587   3.972  0.00  0.00    +0.045 C 
ATOM     35 CL   UNL     1      -7.447   4.290   6.383  0.00  0.00    -0.083 Cl
ATOM     36  C   UNL     1      -4.747   3.102   5.782  0.00  0.00    +0.045 C 
ENDBRANCH  27  28
ENDBRANCH   9  27
TORSDOF 10
