REMARK  Name = ZINC33652553
REMARK  10 active torsions:
REMARK  status: ('A' for Active; 'I' for Inactive)
REMARK    1  A    between atoms: C_1  and  C_2
REMARK    2  A    between atoms: C_13  and  C_14
REMARK    3  A    between atoms: C_13  and  O_15
REMARK    4  A    between atoms: N_21  and  O_22
REMARK    5  A    between atoms: O_22  and  C_23
REMARK    6  A    between atoms: C_23  and  C_24
REMARK    7  A    between atoms: N_26  and  C_27
REMARK    8  A    between atoms: C_27  and  C_28
REMARK    9  A    between atoms: C_28  and  C_29
REMARK   10  A    between atoms: C_41  and  C_42
REMARK                            x       y       z     vdW  Elec       q    Type
REMARK                         _______ _______ _______ _____ _____    ______ ____
ROOT
ATOM      1  C   UNL     1       1.726   3.044  -2.758  0.00  0.00    +0.014 C 
ATOM      2  C   UNL     1       1.478   1.554  -2.513  0.00  0.00    -0.000 C 
ATOM      3  C   UNL     1       2.148   1.069  -1.225  0.00  0.00    +0.010 C 
ATOM      4  C   UNL     1       1.423   1.624  -0.003  0.00  0.00    +0.005 C 
ATOM      5  C   UNL     1      -0.013   1.086   0.008  0.00  0.00    +0.006 C 
ATOM      6  C   UNL     1      -0.735   1.599  -1.237  0.00  0.00    -0.003 C 
ATOM      7  C   UNL     1      -0.020   1.203  -2.506  0.00  0.00    +0.001 C 
ATOM      8  C   UNL     1      -0.034  -0.319  -2.742  0.00  0.00    +0.007 C 
ATOM      9  C   UNL     1       1.086  -0.532  -3.786  0.00  0.00    +0.035 C 
ATOM     10  C   UNL     1       2.037   0.674  -3.663  0.00  0.00    +0.069 C 
ATOM     11  C   UNL     1       3.449   0.196  -3.320  0.00  0.00    +0.042 C 
ATOM     12  C   UNL     1      -2.172   1.072  -1.263  0.00  0.00    +0.008 C 
ATOM     13  C   UNL     1      -2.945   1.616  -0.057  0.00  0.00    +0.032 C 
ATOM     14  C   UNL     1      -2.177   1.249   1.198  0.00  0.00    -0.058 C 
ATOM     15  C   UNL     1      -2.812   0.634   2.181  0.00  0.00    +0.031 C 
ATOM     16  C   UNL     1      -2.091   0.242   3.409  0.00  0.00    +0.102 C 
ATOM     17  N   UNL     1      -2.720  -0.329   4.400  0.00  0.00    -0.085 NA
ATOM     18  C   UNL     1      -0.640   0.513   3.488  0.00  0.00    +0.027 C 
ATOM     19  C   UNL     1      -0.034   1.135   2.494  0.00  0.00    -0.014 C 
ATOM     20  C   UNL     1      -0.714   1.587   1.274  0.00  0.00    +0.011 C 
ATOM     21  C   UNL     1      -0.611   3.114   1.288  0.00  0.00    +0.020 C 
ENDROOT
BRANCH  10  22
ATOM     22  O   UNL     1       2.053   1.414  -4.885  0.00  0.00    -0.388 OA
ATOM     23  H   UNL     1       2.420   0.944  -5.809  0.00  0.00    +0.210 HD
ENDBRANCH  10  22
BRANCH  17  24
ATOM     24  O   UNL     1      -2.011  -0.697   5.569  0.00  0.00    -0.384 OA
BRANCH  24  25
ATOM     25  C   UNL     1      -2.823  -1.312   6.572  0.00  0.00    +0.358 C 
BRANCH  25  26
ATOM     26  C   UNL     1      -1.971  -1.661   7.765  0.00  0.00    +0.253 C 
ATOM     27  O   UNL     1      -0.785  -1.407   7.758  0.00  0.00    -0.272 OA
ATOM     28  N   UNL     1      -2.527  -2.254   8.840  0.00  0.00    -0.312 N 
ATOM     29  H   UNL     1      -3.603  -2.484   8.846  0.00  0.00    +0.149 HD
BRANCH  28  30
ATOM     30  C   UNL     1      -1.699  -2.593  10.000  0.00  0.00    +0.109 C 
BRANCH  30  31
ATOM     31  C   UNL     1      -2.569  -3.251  11.072  0.00  0.00    +0.056 C 
BRANCH  31  32
ATOM     32  C   UNL     1      -1.717  -3.599  12.266  0.00  0.00    -0.021 A 
ATOM     33  C   UNL     1      -1.142  -4.786  12.517  0.00  0.00    +0.087 A 
ATOM     34  N   UNL     1      -0.443  -4.726  13.692  0.00  0.00    -0.360 N 
ATOM     35  H   UNL     1       0.101  -5.612  14.054  0.00  0.00    +0.165 HD
ATOM     36  C   UNL     1      -0.561  -3.470  14.243  0.00  0.00    +0.047 A 
ATOM     37  C   UNL     1      -1.364  -2.709  13.374  0.00  0.00    +0.003 A 
ATOM     38  C   UNL     1      -1.656  -1.379  13.681  0.00  0.00    +0.010 A 
ATOM     39  C   UNL     1      -1.160  -0.823  14.826  0.00  0.00    +0.001 A 
ATOM     40  C   UNL     1      -0.368  -1.569  15.688  0.00  0.00    +0.002 A 
ATOM     41  C   UNL     1      -0.067  -2.884  15.404  0.00  0.00    +0.026 A 
ENDBRANCH  31  32
ENDBRANCH  30  31
ENDBRANCH  28  30
ENDBRANCH  25  26
ENDBRANCH  24  25
ENDBRANCH  17  24
TORSDOF 7
