REMARK  Name = ZINC17062692
REMARK  5 active torsions:
REMARK  status: ('A' for Active; 'I' for Inactive)
REMARK    1  A    between atoms: C_3  and  N_10
REMARK    2  A    between atoms: C_4  and  C_8
REMARK    3  A    between atoms: N_10  and  N_11
REMARK    4  A    between atoms: N_12  and  C_13
REMARK    5  A    between atoms: C_18  and  C_19
REMARK                            x       y       z     vdW  Elec       q    Type
REMARK                         _______ _______ _______ _____ _____    ______ ____
ROOT
ATOM      1  N   UNL     1      -2.422   1.043   0.019  0.00  0.00    -0.218 N 
ATOM      2  H   UNL     1      -3.381   1.582   0.027  0.00  0.00    +0.176 HD
ENDROOT
BRANCH   1   5
ATOM      3  C   UNL     1       1.174   1.782   0.000  0.00  0.00    +0.017 A 
ATOM      4  C   UNL     1      -0.013   1.076   0.008  0.00  0.00    +0.027 A 
ATOM      5  C   UNL     1      -1.225   1.753   0.017  0.00  0.00    +0.067 A 
ATOM      6  C   UNL     1      -1.237   3.157   0.030  0.00  0.00    +0.075 A 
ATOM      7  C   UNL     1      -0.029   3.857   0.022  0.00  0.00    +0.036 A 
ATOM      8  C   UNL     1       1.166   3.167   0.007  0.00  0.00    +0.019 A 
ATOM      9 BR   UNL     1       2.801   4.118  -0.004  0.00  0.00    -0.050 Br
BRANCH   6  10
ATOM     10  C   UNL     1      -2.481   3.866   0.045  0.00  0.00    +0.101 C 
ATOM     11  N   UNL     1      -3.467   4.429   0.057  0.00  0.00    -0.191 NA
ENDBRANCH   6  10
ENDBRANCH   1   5
BRANCH   1  12
ATOM     12  N   UNL     1      -2.406  -0.358   0.011  0.00  0.00    -0.076 NA
ATOM     13  N   UNL     1      -3.515  -1.016   0.013  0.00  0.00    -0.132 NA
BRANCH  13  14
ATOM     14  C   UNL     1      -3.500  -2.383   0.006  0.00  0.00    +0.105 A 
ATOM     15  C   UNL     1      -2.286  -3.071  -0.010  0.00  0.00    +0.032 A 
ATOM     16  C   UNL     1      -2.276  -4.450  -0.012  0.00  0.00    +0.017 A 
ATOM     17  C   UNL     1      -3.466  -5.162  -0.010  0.00  0.00    +0.019 A 
ATOM     18  C   UNL     1      -4.676  -4.501  -0.000  0.00  0.00    +0.036 A 
ATOM     19  C   UNL     1      -4.709  -3.106   0.007  0.00  0.00    +0.080 A 
ATOM     20 BR   UNL     1      -3.428  -7.053  -0.020  0.00  0.00    -0.050 Br
BRANCH  19  21
ATOM     21  C   UNL     1      -5.963  -2.414   0.018  0.00  0.00    +0.101 C 
ATOM     22  N   UNL     1      -6.958  -1.865   0.025  0.00  0.00    -0.191 NA
ENDBRANCH  19  21
ENDBRANCH  13  14
ENDBRANCH   1  12
TORSDOF 5
