REMARK  Name = ZINC09360542
REMARK  4 active torsions:
REMARK  status: ('A' for Active; 'I' for Inactive)
REMARK    1  A    between atoms: C_8  and  C_26
REMARK    2  A    between atoms: C_10  and  C_17
REMARK    3  A    between atoms: C_20  and  N_23
REMARK    4  A    between atoms: C_26  and  C_28
REMARK                            x       y       z     vdW  Elec       q    Type
REMARK                         _______ _______ _______ _____ _____    ______ ____
ROOT
ATOM      1  C   UNL     1      -4.362   5.618   0.842  0.00  0.00    +0.000 A 
ATOM      2  C   UNL     1      -5.520   5.819   1.571  0.00  0.00    +0.002 A 
ATOM      3  C   UNL     1      -6.287   4.744   1.970  0.00  0.00    +0.023 A 
ATOM      4  C   UNL     1      -5.901   3.447   1.640  0.00  0.00    +0.036 A 
ATOM      5  C   UNL     1      -4.735   3.257   0.906  0.00  0.00    -0.027 A 
ATOM      6  C   UNL     1      -3.972   4.333   0.510  0.00  0.00    +0.004 A 
ATOM      7  C   UNL     1      -4.601   1.771   0.717  0.00  0.00    +0.052 C 
ATOM      8  C   UNL     1      -3.295   1.250   1.322  0.00  0.00    +0.069 C 
ATOM      9  C   UNL     1      -2.359   1.008   0.120  0.00  0.00    +0.016 C 
ATOM     10  C   UNL     1      -3.171   1.420  -1.121  0.00  0.00    -0.047 C 
ATOM     11  C   UNL     1      -5.216   0.070  -0.888  0.00  0.00    -0.005 C 
ATOM     12  S   UNL     1      -4.465  -0.411  -2.506  0.00  0.00    -0.181 S 
ATOM     13  C   UNL     1      -2.854   0.457  -2.281  0.00  0.00    +0.052 C 
ATOM     14  C   UNL     1      -5.799   1.184   1.417  0.00  0.00    +0.212 C 
ATOM     15  O   UNL     1      -6.079   0.007   1.508  0.00  0.00    -0.277 OA
ATOM     16  N   UNL     1      -6.498   2.217   1.923  0.00  0.00    -0.286 N 
ATOM     17  H   UNL     1      -7.322   2.118   2.426  0.00  0.00    +0.155 HD
ATOM     18  N   UNL     1      -4.579   1.423  -0.695  0.00  0.00    +0.401 N 
ATOM     19  H   UNL     1      -5.101   2.122  -1.237  0.00  0.00    -0.078 HD
ENDROOT
BRANCH   9  20
ATOM     20  C   UNL     1      -1.122   1.861   0.241  0.00  0.00    -0.045 A 
ATOM     21  C   UNL     1       0.078   1.417  -0.282  0.00  0.00    +0.006 A 
ATOM     22  C   UNL     1       1.211   2.201  -0.176  0.00  0.00    +0.033 A 
ATOM     23  C   UNL     1       1.145   3.428   0.458  0.00  0.00    +0.126 A 
ATOM     24  C   UNL     1      -0.054   3.870   0.986  0.00  0.00    +0.033 A 
ATOM     25  C   UNL     1      -1.187   3.085   0.879  0.00  0.00    +0.006 A 
BRANCH  23  26
ATOM     26  N   UNL     1       2.358   4.269   0.572  0.00  0.00    +0.056 N 
ATOM     27  O   UNL     1       3.414   3.880   0.106  0.00  0.00    -0.126 OA
ATOM     28  O   UNL     1       2.300   5.350   1.130  0.00  0.00    -0.126 OA
ENDBRANCH  23  26
ENDBRANCH   9  20
BRANCH   8  29
ATOM     29  C   UNL     1      -3.538  -0.040   2.063  0.00  0.00    +0.166 C 
ATOM     30  O   UNL     1      -3.471  -1.099   1.475  0.00  0.00    -0.292 OA
BRANCH  29  31
ATOM     31  C   UNL     1      -3.855  -0.015   3.498  0.00  0.00    +0.018 A 
ATOM     32  C   UNL     1      -3.927   1.204   4.181  0.00  0.00    +0.014 A 
ATOM     33  C   UNL     1      -4.229   1.221   5.524  0.00  0.00    +0.039 A 
ATOM     34  C   UNL     1      -4.452   0.032   6.203  0.00  0.00    +0.123 A 
ATOM     35  C   UNL     1      -4.377  -1.181   5.534  0.00  0.00    +0.039 A 
ATOM     36  C   UNL     1      -4.081  -1.211   4.189  0.00  0.00    +0.014 A 
ATOM     37  F   UNL     1      -4.742   0.055   7.522  0.00  0.00    -0.205 F 
ENDBRANCH  29  31
ENDBRANCH   8  29
TORSDOF 4
