REMARK  Name = ZINC13570239
REMARK  4 active torsions:
REMARK  status: ('A' for Active; 'I' for Inactive)
REMARK    1  A    between atoms: C_1  and  N_2
REMARK    2  A    between atoms: C_4  and  C_11
REMARK    3  A    between atoms: C_12  and  C_13
REMARK    4  A    between atoms: C_12  and  C_15
REMARK                            x       y       z     vdW  Elec       q    Type
REMARK                         _______ _______ _______ _____ _____    ______ ____
ROOT
ATOM      1  C   UNL     1       0.039  -3.208  -1.634  0.00  0.00    +0.034 C 
ATOM      2  C   UNL     1      -0.074  -3.013  -3.000  0.00  0.00    +0.114 C 
ENDROOT
BRANCH   2   3
ATOM      3  C   UNL     1      -0.173  -4.167  -3.901  0.00  0.00    +0.260 C 
ATOM      4  O   UNL     1      -0.156  -5.296  -3.448  0.00  0.00    -0.269 OA
ATOM      5  N   UNL     1      -0.283  -3.976  -5.231  0.00  0.00    -0.260 N 
ATOM      6  C   UNL     1      -0.377  -5.065  -6.081  0.00  0.00    +0.166 A 
ATOM      7  N   UNL     1      -0.381  -6.343  -5.783  0.00  0.00    -0.225 NA
ATOM      8  C   UNL     1      -0.479  -7.307  -6.724  0.00  0.00    +0.080 A 
ATOM      9  C   UNL     1      -0.495  -8.709  -6.540  0.00  0.00    +0.029 A 
ATOM     10  C   UNL     1      -0.600  -9.555  -7.613  0.00  0.00    +0.002 A 
ATOM     11  C   UNL     1      -0.695  -9.072  -8.911  0.00  0.00    +0.001 A 
ATOM     12  C   UNL     1      -0.682  -7.707  -9.127  0.00  0.00    +0.017 A 
ATOM     13  C   UNL     1      -0.577  -6.852  -8.059  0.00  0.00    +0.041 A 
ATOM     14  S   UNL     1      -0.529  -5.087  -7.861  0.00  0.00    -0.052 S 
ATOM     15  H   UNL     1      -0.297  -3.076  -5.592  0.00  0.00    +0.157 HD
ENDBRANCH   2   3
BRANCH   1  19
ATOM     16  C   UNL     1      -0.795   1.347   0.116  0.00  0.00    +0.149 C 
ATOM     17  N   UNL     1      -0.384  -0.058   0.052  0.00  0.00    -0.349 N 
ATOM     18  C   UNL     1      -0.497  -0.839  -1.040  0.00  0.00    +0.094 A 
ATOM     19  C   UNL     1      -0.016  -2.104  -0.755  0.00  0.00    +0.002 A 
ATOM     20  C   UNL     1       0.428  -2.067   0.652  0.00  0.00    +0.007 A 
ATOM     21  C   UNL     1       0.177  -0.760   1.100  0.00  0.00    +0.049 A 
ATOM     22  C   UNL     1       0.501  -0.414   2.408  0.00  0.00    +0.026 A 
ATOM     23  C   UNL     1       1.065  -1.351   3.247  0.00  0.00    +0.002 A 
ATOM     24  C   UNL     1       1.315  -2.640   2.802  0.00  0.00    +0.001 A 
ATOM     25  C   UNL     1       0.994  -3.003   1.512  0.00  0.00    +0.010 A 
ENDBRANCH   1  19
BRANCH   2  26
ATOM     26  C   UNL     1      -0.095  -1.684  -3.534  0.00  0.00    +0.104 C 
ATOM     27  N   UNL     1      -0.111  -0.630  -3.957  0.00  0.00    -0.191 NA
ENDBRANCH   2  26
TORSDOF 3
