REMARK  Name = ZINC38519745
REMARK  4 active torsions:
REMARK  status: ('A' for Active; 'I' for Inactive)
REMARK    1  A    between atoms: C_1  and  N_2
REMARK    2  A    between atoms: C_8  and  C_10
REMARK    3  A    between atoms: C_10  and  C_11
REMARK    4  A    between atoms: C_21  and  C_27
REMARK                            x       y       z     vdW  Elec       q    Type
REMARK                         _______ _______ _______ _____ _____    ______ ____
ROOT
ATOM      1  C   UNL     1      -0.018   1.461   0.010  0.00  0.00    +0.174 C 
ATOM      2  N   UNL     1       0.002  -0.004   0.002  0.00  0.00    -0.251 N 
ATOM      3  C   UNL     1       0.008  -0.791  -1.090  0.00  0.00    +0.129 A 
ATOM      4  C   UNL     1       0.041  -2.092  -0.665  0.00  0.00    +0.042 A 
ATOM      5  C   UNL     1       0.042  -2.089   0.727  0.00  0.00    +0.152 A 
ATOM      6  N   UNL     1       0.025  -0.837   1.132  0.00  0.00    -0.154 NA
ATOM      7  N   UNL     1       0.064  -3.222   1.552  0.00  0.00    -0.268 N 
ATOM      8  C   UNL     1       0.062  -3.079   2.892  0.00  0.00    +0.223 C 
ATOM      9  O   UNL     1       0.042  -1.970   3.384  0.00  0.00    -0.275 OA
ATOM     10  C   UNL     1       0.078  -3.254  -1.625  0.00  0.00    +0.064 C 
ATOM     11  C   UNL     1      -0.624  -2.831  -2.920  0.00  0.00    +0.109 C 
ATOM     12  C   UNL     1      -0.204  -1.451  -3.340  0.00  0.00    +0.219 C 
ATOM     13  O   UNL     1      -0.044  -1.219  -4.520  0.00  0.00    -0.275 OA
ATOM     14  N   UNL     1       0.001  -0.461  -2.445  0.00  0.00    -0.270 N 
ATOM     15  H   UNL     1       0.080  -4.108   1.159  0.00  0.00    +0.156 HD
ATOM     16  H   UNL     1       0.139   0.454  -2.737  0.00  0.00    +0.156 HD
ENDROOT
BRANCH  10  17
ATOM     17  C   UNL     1       1.509  -3.624  -1.920  0.00  0.00    -0.039 A 
ATOM     18  C   UNL     1       2.361  -2.694  -2.486  0.00  0.00    +0.004 A 
ATOM     19  C   UNL     1       3.674  -3.033  -2.756  0.00  0.00    +0.000 A 
ATOM     20  C   UNL     1       4.135  -4.302  -2.460  0.00  0.00    +0.000 A 
ATOM     21  C   UNL     1       3.283  -5.232  -1.894  0.00  0.00    +0.000 A 
ATOM     22  C   UNL     1       1.972  -4.891  -1.619  0.00  0.00    +0.004 A 
ENDBRANCH  10  17
BRANCH   8  23
ATOM     23  C   UNL     1       0.085  -4.296   3.780  0.00  0.00    +0.131 C 
BRANCH  23  24
ATOM     24  C   UNL     1       0.079  -3.865   5.224  0.00  0.00    -0.031 A 
ATOM     25  C   UNL     1       1.250  -3.741   5.906  0.00  0.00    +0.005 A 
ATOM     26  C   UNL     1       1.264  -3.344   7.242  0.00  0.00    +0.001 A 
ATOM     27  C   UNL     1       0.106  -3.070   7.903  0.00  0.00    +0.008 A 
ATOM     28  C   UNL     1      -1.123  -3.187   7.232  0.00  0.00    -0.018 A 
ATOM     29  C   UNL     1      -1.136  -3.585   5.871  0.00  0.00    -0.014 A 
ATOM     30  C   UNL     1      -2.365  -3.696   5.198  0.00  0.00    +0.009 A 
ATOM     31  C   UNL     1      -3.522  -3.416   5.858  0.00  0.00    +0.001 A 
ATOM     32  C   UNL     1      -3.508  -3.018   7.194  0.00  0.00    +0.001 A 
ATOM     33  C   UNL     1      -2.339  -2.912   7.881  0.00  0.00    +0.008 A 
ENDBRANCH  23  24
ENDBRANCH   8  23
TORSDOF 3
