REMARK  Name = ZINC33048027
REMARK  8 active torsions:
REMARK  status: ('A' for Active; 'I' for Inactive)
REMARK    1  A    between atoms: C_1  and  C_2
REMARK    2  A    between atoms: C_7  and  C_8
REMARK    3  A    between atoms: C_7  and  C_9
REMARK    4  A    between atoms: C_11  and  N_13
REMARK    5  A    between atoms: N_13  and  S_14
REMARK    6  A    between atoms: S_14  and  C_17
REMARK    7  A    between atoms: C_20  and  O_23
REMARK    8  A    between atoms: O_23  and  C_24
REMARK                            x       y       z     vdW  Elec       q    Type
REMARK                         _______ _______ _______ _____ _____    ______ ____
ROOT
ATOM      1  N   UNL     1      -0.124  -0.708  -2.377  0.00  0.00    -0.186 NA
ATOM      2  H   UNL     1      -0.932  -1.245  -2.367  0.00  0.00    +0.148 HD
ENDROOT
BRANCH   1  12
ATOM      3  C   UNL     1      -0.039   1.510   0.026  0.00  0.00    +0.013 C 
ATOM      4  C   UNL     1      -0.004  -0.020   0.007  0.00  0.00    -0.010 C 
ATOM      5  C   UNL     1      -1.389  -0.734   0.062  0.00  0.00    +0.009 C 
ATOM      6  C   UNL     1      -1.069  -2.169   0.542  0.00  0.00    +0.005 C 
ATOM      7  C   UNL     1       0.478  -2.185   0.732  0.00  0.00    -0.003 C 
ATOM      8  C   UNL     1       0.728  -0.712   1.211  0.00  0.00    -0.025 C 
ATOM      9  C   UNL     1       0.041  -0.418   2.546  0.00  0.00    +0.012 C 
ATOM     10  C   UNL     1       2.218  -0.366   1.251  0.00  0.00    +0.012 C 
ATOM     11  C   UNL     1       1.050  -2.140  -0.718  0.00  0.00    +0.025 C 
ATOM     12  C   UNL     1       0.744  -0.669  -1.197  0.00  0.00    +0.083 C 
ENDBRANCH   1  12
BRANCH   1  13
ATOM     13  S   UNL     1       0.275   0.163  -3.727  0.00  0.00    +0.059 S 
ATOM     14  O   UNL     1      -0.734  -0.100  -4.693  0.00  0.00    -0.153 OA
ATOM     15  O   UNL     1       0.583   1.478  -3.286  0.00  0.00    -0.153 OA
BRANCH  13  16
ATOM     16  C   UNL     1       1.771  -0.517  -4.364  0.00  0.00    +0.105 A 
ATOM     17  C   UNL     1       2.990  -0.028  -3.932  0.00  0.00    +0.032 A 
ATOM     18  C   UNL     1       4.164  -0.559  -4.430  0.00  0.00    +0.047 A 
ATOM     19  C   UNL     1       4.119  -1.585  -5.363  0.00  0.00    +0.120 A 
ATOM     20  C   UNL     1       2.894  -2.074  -5.794  0.00  0.00    +0.047 A 
ATOM     21  C   UNL     1       1.723  -1.543  -5.290  0.00  0.00    +0.032 A 
BRANCH  19  22
ATOM     22  O   UNL     1       5.272  -2.109  -5.855  0.00  0.00    -0.495 OA
ATOM     23  C   UNL     1       5.150  -3.162  -6.812  0.00  0.00    +0.277 C 
ENDBRANCH  19  22
ENDBRANCH  13  16
ENDBRANCH   1  13
TORSDOF 4
