REMARK  Name = ZINC08057188
REMARK  9 active torsions:
REMARK  status: ('A' for Active; 'I' for Inactive)
REMARK    1  A    between atoms: C_1  and  C_2
REMARK    2  A    between atoms: C_2  and  O_3
REMARK    3  A    between atoms: O_3  and  C_4
REMARK    4  A    between atoms: C_7  and  S_13
REMARK    5  A    between atoms: C_9  and  O_10
REMARK    6  A    between atoms: O_10  and  C_11
REMARK    7  A    between atoms: C_11  and  C_12
REMARK    8  A    between atoms: S_13  and  N_16
REMARK    9  A    between atoms: N_16  and  C_17
REMARK                            x       y       z     vdW  Elec       q    Type
REMARK                         _______ _______ _______ _____ _____    ______ ____
ROOT
ATOM      1  S   UNL     1       1.168  -6.406   1.840  0.00  0.00    +0.059 S 
ATOM      2  O   UNL     1       1.428  -6.877   3.155  0.00  0.00    -0.153 OA
ATOM      3  O   UNL     1       0.028  -6.814   1.096  0.00  0.00    -0.153 OA
ENDROOT
BRANCH   1   7
ATOM      4  C   UNL     1       0.996  -1.885   2.088  0.00  0.00    +0.162 A 
ATOM      5  C   UNL     1       0.445  -2.543   1.001  0.00  0.00    +0.051 A 
ATOM      6  C   UNL     1       0.499  -3.922   0.928  0.00  0.00    +0.032 A 
ATOM      7  C   UNL     1       1.103  -4.648   1.938  0.00  0.00    +0.109 A 
ATOM      8  C   UNL     1       1.655  -3.997   3.026  0.00  0.00    +0.078 A 
ATOM      9  C   UNL     1       1.609  -2.614   3.102  0.00  0.00    +0.164 A 
BRANCH   4  10
ATOM     10  O   UNL     1       0.944  -0.527   2.161  0.00  0.00    -0.489 OA
BRANCH  10  12
ATOM     11  C   UNL     1       0.339   1.664   1.341  0.00  0.00    +0.048 C 
ATOM     12  C   UNL     1       0.300   0.156   1.084  0.00  0.00    +0.226 C 
ENDBRANCH  10  12
ENDBRANCH   4  10
BRANCH   9  13
ATOM     13  O   UNL     1       2.157  -1.972   4.168  0.00  0.00    -0.489 OA
BRANCH  13  14
ATOM     14  C   UNL     1       2.769  -2.786   5.171  0.00  0.00    +0.226 C 
ATOM     15  C   UNL     1       3.325  -1.893   6.283  0.00  0.00    +0.048 C 
ENDBRANCH  13  14
ENDBRANCH   9  13
ENDBRANCH   1   7
BRANCH   1  16
ATOM     16  N   UNL     1       2.493  -6.796   0.926  0.00  0.00    -0.182 NA
ATOM     17  H   UNL     1       2.381  -7.260   0.082  0.00  0.00    +0.149 HD
BRANCH  16  18
ATOM     18  C   UNL     1       3.835  -6.440   1.394  0.00  0.00    +0.113 C 
ATOM     19  C   UNL     1       4.456  -7.637   2.119  0.00  0.00    +0.066 C 
ATOM     20  C   UNL     1       5.947  -7.349   2.334  0.00  0.00    +0.231 C 
ATOM     21  O   UNL     1       6.580  -7.274   1.056  0.00  0.00    -0.492 OA
ATOM     22  C   UNL     1       6.005  -6.489   0.108  0.00  0.00    +0.125 A 
ATOM     23  C   UNL     1       4.694  -6.062   0.213  0.00  0.00    +0.013 A 
ATOM     24  C   UNL     1       4.147  -5.268  -0.781  0.00  0.00    +0.009 A 
ATOM     25  C   UNL     1       4.906  -4.899  -1.875  0.00  0.00    +0.001 A 
ATOM     26  C   UNL     1       6.218  -5.324  -1.980  0.00  0.00    +0.004 A 
ATOM     27  C   UNL     1       6.767  -6.114  -0.994  0.00  0.00    +0.046 A 
ENDBRANCH  16  18
ENDBRANCH   1  16
TORSDOF 7
