REMARK  Name = ZINC13032421
REMARK  15 active torsions:
REMARK  status: ('A' for Active; 'I' for Inactive)
REMARK    1  A    between atoms: C_1  and  C_2
REMARK    2  A    between atoms: C_2  and  C_3
REMARK    3  A    between atoms: C_6  and  C_9
REMARK    4  A    between atoms: C_9  and  C_11
REMARK    5  A    between atoms: C_9  and  N_19
REMARK    6  A    between atoms: N_13  and  C_14
REMARK    7  A    between atoms: C_14  and  C_15
REMARK    8  A    between atoms: C_14  and  C_16
REMARK    9  A    between atoms: C_14  and  C_17
REMARK   10  A    between atoms: C_17  and  C_18
REMARK   11  A    between atoms: N_19  and  C_20
REMARK   12  A    between atoms: C_24  and  C_26
REMARK   13  A    between atoms: C_26  and  C_28
REMARK   14  A    between atoms: C_29  and  C_31
REMARK   15  A    between atoms: C_31  and  N_32
REMARK                            x       y       z     vdW  Elec       q    Type
REMARK                         _______ _______ _______ _____ _____    ______ ____
ROOT
ATOM      1  N   UNL     1      -5.171   3.272  -1.842  0.00  0.00    -0.254 N 
ATOM      2  C   UNL     1      -4.162   4.095  -1.493  0.00  0.00    +0.242 C 
ATOM      3  O   UNL     1      -4.015   5.152  -2.068  0.00  0.00    -0.273 OA
ENDROOT
BRANCH   1   4
ATOM      4  C   UNL     1      -5.407   2.104  -1.109  0.00  0.00    +0.038 A 
ATOM      5  C   UNL     1      -5.152   0.862  -1.679  0.00  0.00    +0.023 A 
ATOM      6  C   UNL     1      -5.384  -0.296  -0.960  0.00  0.00    +0.002 A 
ATOM      7  C   UNL     1      -5.868  -0.228   0.330  0.00  0.00    +0.011 A 
ATOM      8  C   UNL     1      -6.128   1.016   0.914  0.00  0.00    +0.019 A 
ATOM      9  C   UNL     1      -5.889   2.186   0.188  0.00  0.00    +0.035 A 
BRANCH   8  10
ATOM     10  C   UNL     1      -6.645   1.093   2.290  0.00  0.00    +0.160 C 
ATOM     11  O   UNL     1      -6.869   2.173   2.794  0.00  0.00    -0.292 OA
ATOM     12  C   UNL     1      -6.896  -0.170   3.073  0.00  0.00    +0.091 C 
ENDBRANCH   8  10
ENDBRANCH   1   4
BRANCH   1  13
ATOM     13  C   UNL     1      -6.020   3.600  -2.990  0.00  0.00    +0.197 C 
BRANCH  13  17
ATOM     14  C   UNL     1      -8.717   0.373  -3.735  0.00  0.00    -0.048 A 
ATOM     15  C   UNL     1      -7.808   0.753  -4.706  0.00  0.00    +0.004 A 
ATOM     16  C   UNL     1      -6.936   1.797  -4.465  0.00  0.00    +0.006 A 
ATOM     17  C   UNL     1      -6.971   2.462  -3.253  0.00  0.00    -0.018 A 
ATOM     18  C   UNL     1      -7.876   2.079  -2.281  0.00  0.00    +0.006 A 
ATOM     19  C   UNL     1      -8.752   1.038  -2.524  0.00  0.00    +0.004 A 
BRANCH  14  21
ATOM     20  C   UNL     1      -9.027  -2.081  -3.549  0.00  0.00    +0.009 C 
ATOM     21  C   UNL     1      -9.668  -0.766  -3.998  0.00  0.00    +0.032 C 
ENDBRANCH  14  21
ENDBRANCH  13  17
BRANCH  13  22
ATOM     22  C   UNL     1      -6.804   4.852  -2.693  0.00  0.00    +0.239 C 
ATOM     23  O   UNL     1      -6.667   5.415  -1.627  0.00  0.00    -0.273 OA
ATOM     24  N   UNL     1      -7.657   5.347  -3.611  0.00  0.00    -0.308 N 
ATOM     25  H   UNL     1      -7.767   4.897  -4.463  0.00  0.00    +0.149 HD
BRANCH  24  26
ATOM     26  C   UNL     1      -8.420   6.564  -3.322  0.00  0.00    +0.029 C 
ATOM     27  C   UNL     1      -9.296   6.336  -2.088  0.00  0.00    +0.031 C 
ATOM     28  C   UNL     1      -7.454   7.720  -3.055  0.00  0.00    +0.031 C 
BRANCH  26  29
ATOM     29  C   UNL     1      -9.307   6.907  -4.521  0.00  0.00    +0.022 C 
ATOM     30  C   UNL     1     -10.103   8.178  -4.219  0.00  0.00    +0.006 C 
ENDBRANCH  26  29
ENDBRANCH  24  26
ENDBRANCH  13  22
ENDBRANCH   1  13
BRANCH   2  31
ATOM     31  C   UNL     1      -3.217   3.701  -0.386  0.00  0.00    +0.242 C 
BRANCH  31  32
ATOM     32  N   UNL     1      -2.139   4.688  -0.290  0.00  0.00    -0.235 N 
ATOM     33  C   UNL     1      -0.936   4.660  -0.955  0.00  0.00    +0.090 A 
ATOM     34  C   UNL     1      -0.357   3.786  -1.869  0.00  0.00    +0.029 A 
ATOM     35  C   UNL     1       0.893   4.044  -2.357  0.00  0.00    +0.002 A 
ATOM     36  C   UNL     1       1.588   5.177  -1.955  0.00  0.00    +0.002 A 
ATOM     37  C   UNL     1       1.041   6.053  -1.064  0.00  0.00    +0.032 A 
ATOM     38  C   UNL     1      -0.238   5.809  -0.545  0.00  0.00    +0.113 A 
ATOM     39  N   UNL     1      -1.020   6.474   0.329  0.00  0.00    -0.129 NA
ATOM     40  N   UNL     1      -2.132   5.849   0.498  0.00  0.00    -0.064 NA
ENDBRANCH  31  32
ENDBRANCH   2  31
TORSDOF 10
