REMARK  Name = ZINC44337632
REMARK  3 active torsions:
REMARK  status: ('A' for Active; 'I' for Inactive)
REMARK    1  A    between atoms: C_1  and  N_2
REMARK    2  A    between atoms: N_2  and  C_3
REMARK    3  A    between atoms: C_8  and  C_10
REMARK                            x       y       z     vdW  Elec       q    Type
REMARK                         _______ _______ _______ _____ _____    ______ ____
ROOT
ATOM      1  C   UNL     1      -0.124   0.065  -2.435  0.00  0.00    +0.103 A 
ATOM      2  C   UNL     1      -0.326  -0.485  -3.661  0.00  0.00    +0.041 A 
ATOM      3  C   UNL     1      -0.274   0.559  -4.616  0.00  0.00    +0.001 A 
ATOM      4  C   UNL     1      -0.409   0.596  -6.010  0.00  0.00    +0.025 A 
ATOM      5  C   UNL     1      -0.306   1.786  -6.671  0.00  0.00    +0.019 A 
ATOM      6  C   UNL     1      -0.067   2.965  -5.973  0.00  0.00    +0.017 A 
ATOM      7  C   UNL     1       0.070   2.954  -4.604  0.00  0.00    +0.027 A 
ATOM      8  C   UNL     1      -0.032   1.752  -3.907  0.00  0.00    +0.047 A 
ATOM      9  N   UNL     1       0.051   1.428  -2.573  0.00  0.00    -0.351 N 
ATOM     10  H   UNL     1       0.209   2.054  -1.849  0.00  0.00    +0.166 HD
ATOM     11 BR   UNL     1      -0.489   1.832  -8.553  0.00  0.00    -0.050 Br
ENDROOT
BRANCH   1  14
ATOM     12  C   UNL     1      -0.178   1.459   0.015  0.00  0.00    +0.132 C 
ATOM     13  N   UNL     1      -0.061  -0.002   0.004  0.00  0.00    -0.296 N 
ATOM     14  C   UNL     1      -0.102  -0.673  -1.163  0.00  0.00    +0.263 C 
ATOM     15  O   UNL     1      -0.120  -1.889  -1.165  0.00  0.00    -0.268 OA
BRANCH  13  16
ATOM     16  C   UNL     1       0.100  -0.732   1.264  0.00  0.00    +0.076 C 
ATOM     17  C   UNL     1      -1.074  -0.415   2.213  0.00  0.00    +0.022 C 
ATOM     18  C   UNL     1      -0.425  -0.366   3.618  0.00  0.00    +0.002 C 
ATOM     19  C   UNL     1       0.941   0.311   3.340  0.00  0.00    +0.002 C 
ATOM     20  C   UNL     1       1.381  -0.271   1.981  0.00  0.00    +0.022 C 
ENDBRANCH  13  16
ENDBRANCH   1  14
TORSDOF 2
