REMARK  Name = ZINC04961061
REMARK  6 active torsions:
REMARK  status: ('A' for Active; 'I' for Inactive)
REMARK    1  A    between atoms: C_1  and  C_2
REMARK    2  A    between atoms: C_2  and  O_3
REMARK    3  A    between atoms: O_3  and  C_4
REMARK    4  A    between atoms: C_7  and  N_10
REMARK    5  A    between atoms: C_11  and  N_21
REMARK    6  A    between atoms: N_21  and  C_22
REMARK                            x       y       z     vdW  Elec       q    Type
REMARK                         _______ _______ _______ _____ _____    ______ ____
ROOT
ATOM      1  N   UNL     1      -2.814  -1.035   1.170  0.00  0.00    -0.243 N 
ATOM      2  C   UNL     1      -2.558  -0.249  -0.042  0.00  0.00    +0.217 C 
ATOM      3  C   UNL     1      -3.510  -0.768  -1.092  0.00  0.00    +0.092 A 
ATOM      4  C   UNL     1      -4.247  -1.786  -0.482  0.00  0.00    +0.062 A 
ATOM      5  C   UNL     1      -5.220  -2.457  -1.231  0.00  0.00    +0.016 A 
ATOM      6  C   UNL     1      -5.407  -2.078  -2.549  0.00  0.00    +0.020 A 
ATOM      7  C   UNL     1      -4.636  -1.060  -3.079  0.00  0.00    +0.111 A 
ATOM      8  N   UNL     1      -3.724  -0.444  -2.348  0.00  0.00    -0.256 NA
ATOM      9  C   UNL     1      -3.791  -1.922   0.912  0.00  0.00    +0.254 C 
ATOM     10  O   UNL     1      -4.233  -2.722   1.714  0.00  0.00    -0.270 OA
ENDROOT
BRANCH   1  14
ATOM     11  C   UNL     1      -0.836  -0.592   4.814  0.00  0.00    +0.121 A 
ATOM     12  C   UNL     1      -1.917  -1.456   4.712  0.00  0.00    +0.047 A 
ATOM     13  C   UNL     1      -2.572  -1.603   3.506  0.00  0.00    +0.027 A 
ATOM     14  C   UNL     1      -2.150  -0.886   2.394  0.00  0.00    +0.039 A 
ATOM     15  C   UNL     1      -1.065  -0.025   2.495  0.00  0.00    +0.027 A 
ATOM     16  C   UNL     1      -0.413   0.125   3.704  0.00  0.00    +0.047 A 
BRANCH  11  17
ATOM     17  O   UNL     1      -0.191  -0.448   6.002  0.00  0.00    -0.492 OA
BRANCH  17  19
ATOM     18  C   UNL     1       1.508   0.487   7.444  0.00  0.00    +0.048 C 
ATOM     19  C   UNL     1       0.913   0.458   6.034  0.00  0.00    +0.225 C 
ENDBRANCH  17  19
ENDBRANCH  11  17
ENDBRANCH   1  14
BRANCH   2  20
ATOM     20  N   UNL     1      -2.817   1.170   0.214  0.00  0.00    -0.318 N 
ATOM     21  H   UNL     1      -3.728   1.484   0.329  0.00  0.00    +0.148 HD
BRANCH  20  22
ATOM     22  C   UNL     1      -1.750   2.073   0.294  0.00  0.00    +0.065 A 
ATOM     23  C   UNL     1      -0.466   1.663  -0.037  0.00  0.00    +0.028 A 
ATOM     24  C   UNL     1       0.585   2.557   0.036  0.00  0.00    +0.040 A 
ATOM     25  C   UNL     1       0.359   3.860   0.445  0.00  0.00    +0.126 A 
ATOM     26  C   UNL     1      -0.919   4.272   0.781  0.00  0.00    +0.078 A 
ATOM     27  C   UNL     1      -1.974   3.381   0.710  0.00  0.00    +0.147 A 
ATOM     28  F   UNL     1      -3.222   3.782   1.038  0.00  0.00    -0.203 F 
ATOM     29  F   UNL     1       1.389   4.732   0.515  0.00  0.00    -0.205 F 
ENDBRANCH  20  22
ENDBRANCH   2  20
TORSDOF 5
