REMARK  Name = ZINC61950992
REMARK  8 active torsions:
REMARK  status: ('A' for Active; 'I' for Inactive)
REMARK    1  A    between atoms: C_1  and  C_2
REMARK    2  A    between atoms: C_2  and  C_3
REMARK    3  A    between atoms: C_2  and  C_4
REMARK    4  A    between atoms: C_6  and  N_10
REMARK    5  A    between atoms: N_10  and  C_11
REMARK    6  A    between atoms: N_10  and  C_12
REMARK    7  A    between atoms: C_15  and  C_18
REMARK    8  A    between atoms: N_19  and  O_20
REMARK                            x       y       z     vdW  Elec       q    Type
REMARK                         _______ _______ _______ _____ _____    ______ ____
ROOT
ATOM      1  C   UNL     1       4.737  -1.679   3.577  0.00  0.00    +0.035 A 
ATOM      2  C   UNL     1       4.511  -2.983   4.008  0.00  0.00    +0.024 A 
ATOM      3  C   UNL     1       5.120  -3.447   5.152  0.00  0.00    +0.013 A 
ATOM      4  C   UNL     1       5.966  -2.609   5.880  0.00  0.00    +0.018 A 
ATOM      5  C   UNL     1       6.192  -1.302   5.446  0.00  0.00    +0.013 A 
ATOM      6  C   UNL     1       5.584  -0.844   4.298  0.00  0.00    +0.024 A 
ENDROOT
BRANCH   4   7
ATOM      7  C   UNL     1       6.622  -3.105   7.110  0.00  0.00    +0.162 C 
ATOM      8  N   UNL     1       6.410  -4.324   7.514  0.00  0.00    -0.072 NA
ATOM      9  N   UNL     1       7.461  -2.272   7.832  0.00  0.00    -0.340 N 
ATOM     10  H   UNL     1       7.619  -1.364   7.530  0.00  0.00    +0.144 HD
ATOM     11  H   UNL     1       7.890  -2.598   8.638  0.00  0.00    +0.144 HD
BRANCH   8  12
ATOM     12  O   UNL     1       7.037  -4.799   8.691  0.00  0.00    -0.408 OA
ATOM     13  H   UNL     1       6.819  -5.715   8.911  0.00  0.00    +0.328 HD
ENDBRANCH   8  12
ENDBRANCH   4   7
BRANCH   1  14
ATOM     14  N   UNL     1       4.119  -1.211   2.418  0.00  0.00    -0.288 N 
ATOM     15  C   UNL     1       4.763  -1.402   1.116  0.00  0.00    +0.137 C 
BRANCH  14  18
ATOM     16  C   UNL     1       1.144   0.725   1.518  0.00  0.00    +0.049 A 
ATOM     17  C   UNL     1       2.368   0.098   1.388  0.00  0.00    +0.067 A 
ATOM     18  C   UNL     1       2.894  -0.566   2.498  0.00  0.00    +0.129 A 
ATOM     19  N   UNL     1       2.201  -0.569   3.634  0.00  0.00    -0.220 NA
ATOM     20  C   UNL     1       1.037   0.043   3.713  0.00  0.00    +0.223 A 
ATOM     21  N   UNL     1       0.516   0.682   2.685  0.00  0.00    -0.240 NA
BRANCH  16  23
ATOM     22  C   UNL     1       1.094   2.877   0.288  0.00  0.00    +0.014 C 
ATOM     23  C   UNL     1       0.533   1.455   0.350  0.00  0.00    +0.032 C 
ATOM     24  C   UNL     1       0.872   0.716  -0.946  0.00  0.00    +0.014 C 
ENDBRANCH  16  23
ENDBRANCH  14  18
ENDBRANCH   1  14
TORSDOF 5
