REMARK  Name = ZINC13033361
REMARK  11 active torsions:
REMARK  status: ('A' for Active; 'I' for Inactive)
REMARK    1  A    between atoms: C_1  and  C_2
REMARK    2  A    between atoms: C_5  and  C_8
REMARK    3  A    between atoms: C_8  and  N_66
REMARK    4  A    between atoms: C_9  and  C_10
REMARK    5  A    between atoms: C_9  and  N_66
REMARK    6  A    between atoms: C_13  and  C_23
REMARK    7  A    between atoms: C_15  and  C_22
REMARK    8  A    between atoms: C_24  and  C_25
REMARK    9  A    between atoms: C_24  and  N_66
REMARK   10  A    between atoms: N_29  and  C_30
REMARK   11  A    between atoms: C_30  and  C_31
REMARK                            x       y       z     vdW  Elec       q    Type
REMARK                         _______ _______ _______ _____ _____    ______ ____
ROOT
ATOM      1  N   UNL     1       1.710  -1.842  -0.978  0.00  0.00    +0.390 N 
ATOM      2  H   UNL     1       0.993  -1.679  -1.695  0.00  0.00    -0.080 HD
ENDROOT
BRANCH   1   3
ATOM      3  C   UNL     1       3.042  -1.586  -1.565  0.00  0.00    -0.042 C 
BRANCH   3   8
ATOM      4  C   UNL     1       3.325  -4.168  -6.728  0.00  0.00    +0.044 C 
ATOM      5  C   UNL     1       3.251  -3.495  -5.381  0.00  0.00    -0.050 A 
ATOM      6  C   UNL     1       2.678  -2.242  -5.266  0.00  0.00    +0.003 A 
ATOM      7  C   UNL     1       2.611  -1.624  -4.031  0.00  0.00    +0.002 A 
ATOM      8  C   UNL     1       3.116  -2.260  -2.912  0.00  0.00    -0.064 A 
ATOM      9  C   UNL     1       3.693  -3.510  -3.028  0.00  0.00    +0.002 A 
ATOM     10  C   UNL     1       3.756  -4.130  -4.262  0.00  0.00    +0.003 A 
ENDBRANCH   3   8
ENDBRANCH   1   3
BRANCH   1  11
ATOM     11  C   UNL     1       1.621  -3.245  -0.521  0.00  0.00    -0.036 C 
BRANCH  11  12
ATOM     12  C   UNL     1       0.167  -3.612  -0.371  0.00  0.00    +0.001 A 
ATOM     13  C   UNL     1      -0.491  -4.200  -1.401  0.00  0.00    +0.017 A 
ATOM     14  C   UNL     1      -1.902  -4.548  -1.221  0.00  0.00    +0.002 A 
ATOM     15  C   UNL     1      -2.632  -5.160  -2.245  0.00  0.00    -0.041 A 
ATOM     16  C   UNL     1      -3.948  -5.468  -2.048  0.00  0.00    +0.007 A 
ATOM     17  C   UNL     1      -4.568  -5.179  -0.840  0.00  0.00    -0.048 A 
ATOM     18  C   UNL     1      -3.868  -4.576   0.183  0.00  0.00    +0.029 A 
ATOM     19  C   UNL     1      -2.527  -4.253   0.005  0.00  0.00    +0.050 A 
ATOM     20  N   UNL     1      -1.803  -3.649   1.011  0.00  0.00    -0.322 N 
ATOM     21  H   UNL     1      -2.235  -3.447   1.856  0.00  0.00    +0.169 HD
ATOM     22  C   UNL     1      -0.506  -3.338   0.839  0.00  0.00    +0.251 A 
ATOM     23  O   UNL     1       0.103  -2.805   1.750  0.00  0.00    -0.268 OA
ATOM     24  C   UNL     1      -6.021  -5.528  -0.644  0.00  0.00    +0.044 C 
ATOM     25  C   UNL     1      -1.970  -5.478  -3.561  0.00  0.00    +0.044 C 
ENDBRANCH  11  12
ENDBRANCH   1  11
BRANCH   1  26
ATOM     26  C   UNL     1       1.474  -0.925   0.157  0.00  0.00    +0.001 C 
BRANCH  26  27
ATOM     27  C   UNL     1       1.423   0.489  -0.362  0.00  0.00    +0.135 A 
ATOM     28  N   UNL     1       2.444   1.286  -0.562  0.00  0.00    -0.115 NA
ATOM     29  N   UNL     1       1.992   2.406  -1.010  0.00  0.00    -0.023 NA
ATOM     30  N   UNL     1       0.709   2.345  -1.100  0.00  0.00    -0.044 NA
ATOM     31  N   UNL     1       0.320   1.178  -0.710  0.00  0.00    -0.227 N 
BRANCH  31  32
ATOM     32  C   UNL     1      -1.061   0.695  -0.655  0.00  0.00    +0.182 C 
BRANCH  32  33
ATOM     33  C   UNL     1      -1.477   0.207  -2.019  0.00  0.00    -0.026 A 
ATOM     34  C   UNL     1      -1.978   1.100  -2.949  0.00  0.00    +0.008 A 
ATOM     35  C   UNL     1      -2.355   0.655  -4.202  0.00  0.00    +0.038 A 
ATOM     36  C   UNL     1      -2.241  -0.687  -4.522  0.00  0.00    +0.123 A 
ATOM     37  C   UNL     1      -1.745  -1.581  -3.589  0.00  0.00    +0.038 A 
ATOM     38  C   UNL     1      -1.363  -1.133  -2.338  0.00  0.00    +0.008 A 
ATOM     39  F   UNL     1      -2.614  -1.124  -5.745  0.00  0.00    -0.205 F 
ENDBRANCH  32  33
ENDBRANCH  31  32
ENDBRANCH  26  27
ENDBRANCH   1  26
TORSDOF 8
