REMARK  Name = ZINC40529836
REMARK  9 active torsions:
REMARK  status: ('A' for Active; 'I' for Inactive)
REMARK    1  A    between atoms: C_2  and  C_3
REMARK    2  A    between atoms: C_3  and  O_4
REMARK    3  A    between atoms: O_4  and  C_5
REMARK    4  A    between atoms: C_9  and  C_11
REMARK    5  A    between atoms: C_16  and  O_25
REMARK    6  A    between atoms: C_20  and  N_24
REMARK    7  A    between atoms: C_21  and  C_22
REMARK    8  A    between atoms: O_25  and  C_26
REMARK    9  A    between atoms: C_26  and  C_28
REMARK                            x       y       z     vdW  Elec       q    Type
REMARK                         _______ _______ _______ _____ _____    ______ ____
ROOT
ATOM      1  C   UNL     1       3.611  -5.623   3.012  0.00  0.00    +0.098 C 
ATOM      2  C   UNL     1       4.705  -5.384   4.019  0.00  0.00    +0.008 A 
ATOM      3  C   UNL     1       4.545  -4.398   4.977  0.00  0.00    +0.012 A 
ATOM      4  C   UNL     1       5.538  -4.164   5.908  0.00  0.00    +0.047 A 
ATOM      5  C   UNL     1       6.702  -4.920   5.885  0.00  0.00    +0.135 A 
ATOM      6  C   UNL     1       6.865  -5.907   4.927  0.00  0.00    +0.093 A 
ATOM      7  C   UNL     1       5.866  -6.141   3.991  0.00  0.00    +0.138 A 
ATOM      8  O   UNL     1       6.042  -7.111   3.061  0.00  0.00    -0.441 OA
ATOM      9  C   UNL     1       4.980  -7.617   2.412  0.00  0.00    +0.199 C 
ATOM     10  C   UNL     1       3.801  -6.960   2.352  0.00  0.00    +0.098 C 
ENDROOT
BRANCH   1  15
ATOM     11  C   UNL     1       2.591  -2.720   0.819  0.00  0.00    +0.121 A 
ATOM     12  C   UNL     1       3.727  -2.551   0.042  0.00  0.00    +0.045 A 
ATOM     13  C   UNL     1       4.820  -3.375   0.229  0.00  0.00    +0.004 A 
ATOM     14  C   UNL     1       4.782  -4.368   1.190  0.00  0.00    +0.005 A 
ATOM     15  C   UNL     1       3.650  -4.539   1.966  0.00  0.00    -0.031 A 
ATOM     16  C   UNL     1       2.557  -3.714   1.786  0.00  0.00    +0.050 A 
BRANCH  11  17
ATOM     17  O   UNL     1       1.514  -1.911   0.637  0.00  0.00    -0.488 OA
BRANCH  17  18
ATOM     18  C   UNL     1       1.620  -0.909  -0.377  0.00  0.00    +0.256 C 
BRANCH  18  20
ATOM     19  C   UNL     1       0.385   1.192  -0.512  0.00  0.00    +0.007 C 
ATOM     20  C   UNL     1       0.341  -0.115  -0.433  0.00  0.00    +0.006 C 
ENDBRANCH  18  20
ENDBRANCH  17  18
ENDBRANCH  11  17
ENDBRANCH   1  15
BRANCH   9  21
ATOM     21  N   UNL     1       5.097  -8.835   1.790  0.00  0.00    -0.328 N 
ATOM     22  H   UNL     1       5.938  -9.318   1.824  0.00  0.00    +0.145 HD
ATOM     23  H   UNL     1       4.339  -9.214   1.318  0.00  0.00    +0.145 HD
ENDBRANCH   9  21
BRANCH  10  24
ATOM     24  C   UNL     1       2.707  -7.553   1.643  0.00  0.00    +0.101 C 
ATOM     25  N   UNL     1       1.840  -8.024   1.080  0.00  0.00    -0.191 NA
ENDBRANCH  10  24
BRANCH   5  26
ATOM     26  O   UNL     1       7.679  -4.692   6.801  0.00  0.00    -0.422 OA
BRANCH  26  27
ATOM     27  C   UNL     1       8.836  -4.148   6.371  0.00  0.00    +0.351 C 
ATOM     28  O   UNL     1       8.943  -3.781   5.216  0.00  0.00    -0.244 OA
BRANCH  27  29
ATOM     29  C   UNL     1       9.963  -4.000   7.293  0.00  0.00    +0.097 A 
ATOM     30  C   UNL     1      11.223  -3.467   7.057  0.00  0.00    +0.022 A 
ATOM     31  C   UNL     1      12.079  -3.462   8.132  0.00  0.00    +0.008 A 
ATOM     32  C   UNL     1      11.652  -3.962   9.318  0.00  0.00    +0.046 A 
ATOM     33  S   UNL     1      10.072  -4.449   9.015  0.00  0.00    -0.090 S 
ENDBRANCH  27  29
ENDBRANCH  26  27
ENDBRANCH   5  26
TORSDOF 9
