REMARK  Name = ZINC02107201
REMARK  5 active torsions:
REMARK  status: ('A' for Active; 'I' for Inactive)
REMARK    1  A    between atoms: C_1  and  C_2
REMARK    2  A    between atoms: C_2  and  C_3
REMARK    3  A    between atoms: C_2  and  C_4
REMARK    4  A    between atoms: C_4  and  N_5
REMARK    5  A    between atoms: C_25  and  C_27
REMARK                            x       y       z     vdW  Elec       q    Type
REMARK                         _______ _______ _______ _____ _____    ______ ____
ROOT
ATOM      1  N   UNL     1      -1.637   2.080  -0.040  0.00  0.00    -0.291 N 
ATOM      2  C   UNL     1      -1.543   3.530  -0.040  0.00  0.00    +0.203 C 
ATOM      3  C   UNL     1      -0.127   4.000   0.044  0.00  0.00    +0.234 C 
ATOM      4  O   UNL     1       0.071   5.196   0.079  0.00  0.00    -0.274 OA
ATOM      5  N   UNL     1       0.935   3.193   0.083  0.00  0.00    -0.276 N 
ATOM      6  C   UNL     1       0.837   1.738  -0.033  0.00  0.00    +0.167 C 
ATOM      7  C   UNL     1      -0.582   1.269  -0.046  0.00  0.00    +0.237 C 
ATOM      8  O   UNL     1      -0.784   0.073  -0.068  0.00  0.00    -0.274 OA
ATOM      9  C   UNL     1       1.537   1.304  -1.329  0.00  0.00    +0.069 C 
ATOM     10  C   UNL     1       2.871   1.993  -1.418  0.00  0.00    -0.015 A 
ATOM     11  C   UNL     1       4.012   1.648  -2.241  0.00  0.00    +0.003 A 
ATOM     12  C   UNL     1       4.246   0.614  -3.152  0.00  0.00    +0.010 A 
ATOM     13  C   UNL     1       5.474   0.593  -3.765  0.00  0.00    +0.001 A 
ATOM     14  C   UNL     1       6.445   1.546  -3.502  0.00  0.00    +0.002 A 
ATOM     15  C   UNL     1       6.240   2.580  -2.606  0.00  0.00    +0.026 A 
ATOM     16  C   UNL     1       5.002   2.627  -1.968  0.00  0.00    +0.047 A 
ATOM     17  N   UNL     1       4.478   3.489  -1.049  0.00  0.00    -0.356 N 
ATOM     18  H   UNL     1       4.938   4.260  -0.680  0.00  0.00    +0.166 HD
ATOM     19  C   UNL     1       3.205   3.102  -0.724  0.00  0.00    +0.046 A 
ATOM     20  C   UNL     1       2.279   3.783   0.259  0.00  0.00    +0.154 C 
ENDROOT
BRANCH  20  21
ATOM     21  C   UNL     1       2.230   5.262  -0.024  0.00  0.00    -0.021 A 
ATOM     22  C   UNL     1       1.968   5.712  -1.305  0.00  0.00    +0.007 A 
ATOM     23  C   UNL     1       1.917   7.069  -1.564  0.00  0.00    +0.020 A 
ATOM     24  C   UNL     1       2.140   7.976  -0.543  0.00  0.00    +0.041 A 
ATOM     25  C   UNL     1       2.408   7.525   0.737  0.00  0.00    +0.020 A 
ATOM     26  C   UNL     1       2.453   6.168   0.996  0.00  0.00    +0.007 A 
ATOM     27 CL   UNL     1       2.084   9.681  -0.870  0.00  0.00    -0.084 Cl
ENDBRANCH  20  21
BRANCH   1  28
ATOM     28  C   UNL     1      -2.972   1.476  -0.064  0.00  0.00    +0.111 C 
BRANCH  28  30
ATOM     29  C   UNL     1      -2.611   0.490  -2.331  0.00  0.00    +0.009 C 
ATOM     30  C   UNL     1      -3.487   1.433  -1.504  0.00  0.00    +0.000 C 
ATOM     31  C   UNL     1      -4.931   0.928  -1.514  0.00  0.00    +0.009 C 
ENDBRANCH  28  30
ENDBRANCH   1  28
TORSDOF 3
