REMARK  Name = ZINC36083080
REMARK  10 active torsions:
REMARK  status: ('A' for Active; 'I' for Inactive)
REMARK    1  A    between atoms: C_1  and  C_2
REMARK    2  A    between atoms: C_2  and  C_4
REMARK    3  A    between atoms: C_2  and  N_10
REMARK    4  A    between atoms: N_10  and  C_11
REMARK    5  A    between atoms: N_10  and  C_20
REMARK    6  A    between atoms: C_11  and  C_12
REMARK    7  A    between atoms: C_20  and  C_21
REMARK    8  A    between atoms: C_23  and  C_26
REMARK    9  A    between atoms: N_28  and  C_29
REMARK   10  A    between atoms: C_29  and  C_30
REMARK                            x       y       z     vdW  Elec       q    Type
REMARK                         _______ _______ _______ _____ _____    ______ ____
ROOT
ATOM      1  N   UNL     1      -1.713  -0.096   0.135  0.00  0.00    +0.393 N 
ATOM      2  H   UNL     1      -2.309   0.509  -0.410  0.00  0.00    -0.080 HD
ENDROOT
BRANCH   1   4
ATOM      3  C   UNL     1       0.180   1.440   0.357  0.00  0.00    -0.008 C 
ATOM      4  C   UNL     1      -0.312   0.124  -0.247  0.00  0.00    -0.040 C 
BRANCH   4   5
ATOM      5  C   UNL     1      -0.205   0.190  -1.749  0.00  0.00    -0.061 A 
ATOM      6  C   UNL     1      -1.194   0.815  -2.486  0.00  0.00    +0.002 A 
ATOM      7  C   UNL     1      -1.096   0.875  -3.863  0.00  0.00    +0.000 A 
ATOM      8  C   UNL     1      -0.009   0.311  -4.504  0.00  0.00    +0.000 A 
ATOM      9  C   UNL     1       0.980  -0.314  -3.768  0.00  0.00    +0.000 A 
ATOM     10  C   UNL     1       0.884  -0.370  -2.390  0.00  0.00    +0.002 A 
ENDBRANCH   4   5
ENDBRANCH   1   4
BRANCH   1  11
ATOM     11  C   UNL     1      -2.075  -1.497  -0.119  0.00  0.00    -0.041 C 
BRANCH  11  12
ATOM     12  C   UNL     1      -2.076  -1.755  -1.604  0.00  0.00    -0.062 A 
ATOM     13  C   UNL     1      -3.174  -1.399  -2.366  0.00  0.00    +0.003 A 
ATOM     14  C   UNL     1      -3.176  -1.635  -3.728  0.00  0.00    +0.021 A 
ATOM     15  C   UNL     1      -2.080  -2.228  -4.329  0.00  0.00    +0.059 A 
ATOM     16  C   UNL     1      -0.981  -2.584  -3.566  0.00  0.00    +0.059 A 
ATOM     17  C   UNL     1      -0.978  -2.342  -2.204  0.00  0.00    +0.023 A 
ATOM     18 CL   UNL     1       0.395  -3.328  -4.319  0.00  0.00    -0.082 Cl
ATOM     19 CL   UNL     1      -2.083  -2.525  -6.039  0.00  0.00    -0.082 Cl
ENDBRANCH  11  12
ENDBRANCH   1  11
BRANCH   1  20
ATOM     20  C   UNL     1      -1.884   0.203   1.562  0.00  0.00    +0.020 C 
BRANCH  20  21
ATOM     21  C   UNL     1      -2.223   1.661   1.733  0.00  0.00    +0.179 A 
ATOM     22  N   UNL     1      -3.398   2.187   1.555  0.00  0.00    -0.210 NA
ATOM     23  C   UNL     1      -3.315   3.522   1.801  0.00  0.00    +0.163 A 
ATOM     24  C   UNL     1      -2.024   3.787   2.140  0.00  0.00    +0.230 A 
ATOM     25  O   UNL     1      -1.361   2.621   2.098  0.00  0.00    -0.449 OA
BRANCH  23  26
ATOM     26  C   UNL     1      -4.417   4.498   1.716  0.00  0.00    +0.266 C 
ATOM     27  O   UNL     1      -4.210   5.671   1.963  0.00  0.00    -0.268 OA
ATOM     28  N   UNL     1      -5.652   4.091   1.365  0.00  0.00    -0.306 N 
ATOM     29  H   UNL     1      -5.817   3.156   1.168  0.00  0.00    +0.149 HD
BRANCH  28  30
ATOM     30  C   UNL     1      -6.747   5.062   1.280  0.00  0.00    +0.140 C 
BRANCH  30  31
ATOM     31  C   UNL     1      -8.014   4.355   0.871  0.00  0.00    -0.027 A 
ATOM     32  C   UNL     1      -8.346   4.213  -0.468  0.00  0.00    +0.025 A 
ATOM     33  C   UNL     1      -9.516   3.559  -0.805  0.00  0.00    +0.111 A 
ATOM     34  N   UNL     1     -10.311   3.075   0.128  0.00  0.00    -0.263 NA
ATOM     35  C   UNL     1     -10.027   3.192   1.411  0.00  0.00    +0.111 A 
ATOM     36  C   UNL     1      -8.872   3.828   1.823  0.00  0.00    +0.025 A 
ENDBRANCH  30  31
ENDBRANCH  28  30
ENDBRANCH  23  26
ENDBRANCH  20  21
ENDBRANCH   1  20
TORSDOF 9
