REMARK  Name = ZINC62541487
REMARK  3 active torsions:
REMARK  status: ('A' for Active; 'I' for Inactive)
REMARK    1  A    between atoms: C_1  and  C_2
REMARK    2  A    between atoms: C_2  and  C_3
REMARK    3  A    between atoms: C_10  and  N_16
REMARK                            x       y       z     vdW  Elec       q    Type
REMARK                         _______ _______ _______ _____ _____    ______ ____
ROOT
ATOM      1  C   UNL     1       0.742  -0.511   1.242  0.00  0.00    +0.259 C 
ATOM      2  C   UNL     1       0.655  -2.015   1.298  0.00  0.00    +0.258 C 
ATOM      3  O   UNL     1      -0.237  -2.550   1.923  0.00  0.00    -0.271 OA
ATOM      4  N   UNL     1       1.572  -2.764   0.650  0.00  0.00    -0.279 N 
ATOM      5  C   UNL     1       2.664  -2.131   0.040  0.00  0.00    +0.079 A 
ATOM      6  C   UNL     1       3.493  -2.835  -0.819  0.00  0.00    +0.049 A 
ATOM      7  C   UNL     1       4.563  -2.191  -1.426  0.00  0.00    +0.028 A 
ATOM      8  C   UNL     1       4.800  -0.846  -1.173  0.00  0.00    +0.041 A 
ATOM      9  C   UNL     1       3.975  -0.145  -0.312  0.00  0.00    +0.063 A 
ATOM     10  C   UNL     1       2.910  -0.786   0.301  0.00  0.00    +0.157 A 
ATOM     11  O   UNL     1       2.113  -0.112   1.173  0.00  0.00    -0.477 OA
ATOM     12 BR   UNL     1       4.301   1.686   0.029  0.00  0.00    -0.046 Br
ATOM     13  H   UNL     1       1.477  -3.728   0.608  0.00  0.00    +0.155 HD
ENDROOT
BRANCH   7  14
ATOM     14  N   UNL     1       5.404  -2.898  -2.293  0.00  0.00    -0.358 N 
ATOM     15  H   UNL     1       5.239  -3.838  -2.469  0.00  0.00    +0.142 HD
ATOM     16  H   UNL     1       6.151  -2.449  -2.717  0.00  0.00    +0.142 HD
ENDBRANCH   7  14
BRANCH   1  18
ATOM     17  C   UNL     1      -0.019   1.526   0.010  0.00  0.00    +0.008 C 
ATOM     18  C   UNL     1       0.002  -0.004   0.002  0.00  0.00    +0.051 C 
ENDBRANCH   1  18
TORSDOF 2
