REMARK  Name = ZINC18162294
REMARK  7 active torsions:
REMARK  status: ('A' for Active; 'I' for Inactive)
REMARK    1  A    between atoms: C_1  and  C_2
REMARK    2  A    between atoms: C_5  and  C_7
REMARK    3  A    between atoms: C_5  and  O_11
REMARK    4  A    between atoms: C_12  and  C_14
REMARK    5  A    between atoms: C_16  and  C_20
REMARK    6  A    between atoms: C_23  and  O_26
REMARK    7  A    between atoms: O_26  and  C_27
REMARK                            x       y       z     vdW  Elec       q    Type
REMARK                         _______ _______ _______ _____ _____    ______ ____
ROOT
ATOM      1  C   UNL     1      -2.255 -10.761  -0.034  0.00  0.00    +0.062 C 
ATOM      2  C   UNL     1      -0.836 -10.256  -0.046  0.00  0.00    +0.039 C 
ATOM      3  N   UNL     1      -0.495  -9.033  -0.037  0.00  0.00    -0.183 NA
ATOM      4  N   UNL     1       0.881  -8.816  -0.056  0.00  0.00    -0.147 N 
ATOM      5  C   UNL     1       1.564 -10.120  -0.070  0.00  0.00    +0.257 C 
ATOM      6  C   UNL     1       0.398 -11.130  -0.063  0.00  0.00    +0.118 C 
ATOM      7  C   UNL     1       1.487  -7.612  -0.055  0.00  0.00    +0.289 C 
ATOM      8  O   UNL     1       2.701  -7.542  -0.067  0.00  0.00    -0.266 OA
ENDROOT
BRANCH   7   9
ATOM      9  C   UNL     1       0.676  -6.378  -0.040  0.00  0.00    +0.149 A 
ATOM     10  C   UNL     1       1.168  -5.054  -0.043  0.00  0.00    +0.062 A 
ATOM     11  C   UNL     1       0.060  -4.254  -0.022  0.00  0.00    +0.066 A 
ATOM     12  N   UNL     1      -1.024  -5.082  -0.016  0.00  0.00    -0.276 N 
ATOM     13  H   UNL     1      -1.977  -4.779  -0.005  0.00  0.00    +0.189 HD
ATOM     14  N   UNL     1      -0.640  -6.308  -0.027  0.00  0.00    -0.169 NA
BRANCH  11  15
ATOM     15  C   UNL     1       0.040  -2.774  -0.014  0.00  0.00    +0.000 A 
ATOM     16  C   UNL     1      -1.177  -2.092   0.002  0.00  0.00    +0.013 A 
ATOM     17  C   UNL     1      -1.192  -0.713   0.010  0.00  0.00    +0.046 A 
ATOM     18  C   UNL     1       0.002  -0.004   0.002  0.00  0.00    +0.120 A 
ATOM     19  C   UNL     1       1.215  -0.680  -0.019  0.00  0.00    +0.046 A 
ATOM     20  C   UNL     1       1.237  -2.059  -0.022  0.00  0.00    +0.013 A 
BRANCH  18  21
ATOM     21  O   UNL     1      -0.016   1.355   0.009  0.00  0.00    -0.495 OA
ATOM     22  C   UNL     1       1.248   2.021   0.001  0.00  0.00    +0.277 C 
ENDBRANCH  18  21
ENDBRANCH  11  15
ENDBRANCH   7   9
BRANCH   5  23
ATOM     23  C   UNL     1       2.409 -10.274  -1.336  0.00  0.00    +0.438 C 
ATOM     24  F   UNL     1       3.392  -9.279  -1.364  0.00  0.00    -0.166 F 
ATOM     25  F   UNL     1       3.019 -11.533  -1.339  0.00  0.00    -0.166 F 
ATOM     26  F   UNL     1       1.588 -10.150  -2.462  0.00  0.00    -0.166 F 
ENDBRANCH   5  23
BRANCH   5  27
ATOM     27  O   UNL     1       2.374 -10.278   1.097  0.00  0.00    -0.363 OA
ATOM     28  H   UNL     1       3.079  -9.621   1.179  0.00  0.00    +0.212 HD
ENDBRANCH   5  27
TORSDOF 5
