REMARK  Name = ZINC39699062
REMARK  9 active torsions:
REMARK  status: ('A' for Active; 'I' for Inactive)
REMARK    1  A    between atoms: C_1  and  C_2
REMARK    2  A    between atoms: C_2  and  C_3
REMARK    3  A    between atoms: C_3  and  N_4
REMARK    4  A    between atoms: N_4  and  C_5
REMARK    5  A    between atoms: C_5  and  C_6
REMARK    6  A    between atoms: C_10  and  C_12
REMARK    7  A    between atoms: C_19  and  C_21
REMARK    8  A    between atoms: C_27  and  C_32
REMARK    9  A    between atoms: C_28  and  C_31
REMARK                            x       y       z     vdW  Elec       q    Type
REMARK                         _______ _______ _______ _____ _____    ______ ____
ROOT
ATOM      1  N   UNL     1      -1.623  -1.993  -0.144  0.00  0.00    -0.292 N 
ATOM      2  C   UNL     1      -1.353  -2.561  -1.336  0.00  0.00    +0.247 C 
ATOM      3  O   UNL     1      -1.244  -3.769  -1.423  0.00  0.00    -0.270 OA
ENDROOT
BRANCH   2   4
ATOM      4  C   UNL     1      -1.190  -1.717  -2.536  0.00  0.00    +0.038 A 
ATOM      5  C   UNL     1      -0.586  -0.456  -2.428  0.00  0.00    +0.015 A 
ATOM      6  C   UNL     1      -0.428   0.335  -3.527  0.00  0.00    +0.027 A 
ATOM      7  C   UNL     1      -0.866  -0.102  -4.776  0.00  0.00    +0.047 A 
ATOM      8  C   UNL     1      -1.474  -1.367  -4.897  0.00  0.00    +0.004 A 
ATOM      9  C   UNL     1      -1.629  -2.175  -3.774  0.00  0.00    +0.023 A 
ATOM     10  C   UNL     1      -1.813  -1.519  -6.315  0.00  0.00    -0.022 A 
ATOM     11  C   UNL     1      -1.413  -0.398  -6.934  0.00  0.00    +0.017 A 
ATOM     12  N   UNL     1      -0.846   0.459  -6.030  0.00  0.00    -0.358 N 
ATOM     13  H   UNL     1      -0.483   1.333  -6.243  0.00  0.00    +0.166 HD
ATOM     14  C   UNL     1      -1.566  -0.122  -8.408  0.00  0.00    +0.063 C 
ATOM     15  C   UNL     1      -2.483  -2.707  -6.955  0.00  0.00    +0.046 C 
ENDBRANCH   2   4
BRANCH   1  16
ATOM     16  C   UNL     1      -1.835  -0.546  -0.053  0.00  0.00    +0.108 C 
BRANCH  16  18
ATOM     17  C   UNL     1      -0.766   1.630   0.550  0.00  0.00    +0.005 C 
ATOM     18  C   UNL     1      -0.614   0.108   0.597  0.00  0.00    +0.016 C 
ENDBRANCH  16  18
ENDBRANCH   1  16
BRANCH   1  19
ATOM     19  C   UNL     1      -1.704  -2.822   1.061  0.00  0.00    +0.174 C 
BRANCH  19  20
ATOM     20  C   UNL     1      -3.144  -3.304   1.253  0.00  0.00    +0.295 C 
ATOM     21  N   UNL     1      -3.595  -4.063   0.074  0.00  0.00    -0.226 N 
ATOM     22  N   UNL     1      -4.687  -3.346  -0.436  0.00  0.00    -0.146 NA
ATOM     23  C   UNL     1      -4.912  -2.298   0.284  0.00  0.00    +0.240 C 
ATOM     24  O   UNL     1      -4.042  -2.186   1.320  0.00  0.00    -0.450 OA
ATOM     25  H   UNL     1      -3.217  -4.886  -0.276  0.00  0.00    +0.172 HD
BRANCH  23  26
ATOM     26  C   UNL     1      -5.995  -1.331   0.013  0.00  0.00    +0.056 A 
ATOM     27  C   UNL     1      -6.166  -0.218   0.839  0.00  0.00    +0.014 A 
ATOM     28  C   UNL     1      -7.179   0.681   0.580  0.00  0.00    +0.001 A 
ATOM     29  C   UNL     1      -8.026   0.484  -0.496  0.00  0.00    +0.001 A 
ATOM     30  C   UNL     1      -7.864  -0.616  -1.320  0.00  0.00    +0.021 A 
ATOM     31  C   UNL     1      -6.850  -1.521  -1.076  0.00  0.00    +0.053 A 
ATOM     32 CL   UNL     1      -6.643  -2.896  -2.115  0.00  0.00    -0.083 Cl
ENDBRANCH  23  26
ENDBRANCH  19  20
ENDBRANCH   1  19
TORSDOF 6
