REMARK  Name = ZINC02249930
REMARK  5 active torsions:
REMARK  status: ('A' for Active; 'I' for Inactive)
REMARK    1  A    between atoms: C_1  and  C_2
REMARK    2  A    between atoms: C_5  and  C_8
REMARK    3  A    between atoms: C_19  and  C_21
REMARK    4  A    between atoms: C_32  and  S_34
REMARK    5  A    between atoms: S_34  and  C_35
REMARK                            x       y       z     vdW  Elec       q    Type
REMARK                         _______ _______ _______ _____ _____    ______ ____
ROOT
ATOM      1  C   UNL     1      -0.017  -4.164  -0.239  0.00  0.00    +0.159 C 
ATOM      2  C   UNL     1       1.402  -4.654  -0.057  0.00  0.00    +0.025 C 
ATOM      3  C   UNL     1       1.679  -5.412   1.025  0.00  0.00    +0.058 C 
ATOM      4  C   UNL     1       3.075  -5.893   1.185  0.00  0.00    +0.040 A 
ATOM      5  C   UNL     1       3.534  -6.395   2.394  0.00  0.00    +0.013 A 
ATOM      6  C   UNL     1       4.842  -6.830   2.500  0.00  0.00    +0.001 A 
ATOM      7  C   UNL     1       5.688  -6.765   1.407  0.00  0.00    +0.004 A 
ATOM      8  C   UNL     1       5.237  -6.268   0.198  0.00  0.00    +0.046 A 
ATOM      9  C   UNL     1       3.930  -5.829   0.077  0.00  0.00    +0.131 A 
ATOM     10  O   UNL     1       3.459  -5.342  -1.099  0.00  0.00    -0.479 OA
ATOM     11  C   UNL     1       2.480  -4.303  -1.040  0.00  0.00    +0.234 C 
ATOM     12  N   UNL     1       0.724  -5.726   1.933  0.00  0.00    -0.326 N 
ATOM     13  C   UNL     1      -0.533  -5.343   1.851  0.00  0.00    +0.216 C 
ATOM     14  N   UNL     1      -0.972  -4.565   0.802  0.00  0.00    -0.209 N 
ATOM     15  N   UNL     1      -2.334  -4.337   1.012  0.00  0.00    -0.239 N 
ATOM     16  C   UNL     1      -2.657  -4.980   2.178  0.00  0.00    +0.174 C 
ATOM     17  N   UNL     1      -1.589  -5.567   2.654  0.00  0.00    -0.192 NA
ATOM     18  H   UNL     1       0.983  -6.271   2.693  0.00  0.00    +0.169 HD
ATOM     19  H   UNL     1      -2.932  -3.825   0.445  0.00  0.00    +0.172 HD
ENDROOT
BRANCH   1  24
ATOM     20  C   UNL     1       0.079   1.609  -0.464  0.00  0.00    +0.044 C 
ATOM     21  C   UNL     1       0.054   0.104  -0.406  0.00  0.00    -0.050 A 
ATOM     22  C   UNL     1      -0.067  -0.631  -1.570  0.00  0.00    +0.004 A 
ATOM     23  C   UNL     1      -0.090  -2.013  -1.516  0.00  0.00    +0.006 A 
ATOM     24  C   UNL     1       0.009  -2.659  -0.298  0.00  0.00    -0.021 A 
ATOM     25  C   UNL     1       0.131  -1.923   0.867  0.00  0.00    +0.006 A 
ATOM     26  C   UNL     1       0.158  -0.542   0.812  0.00  0.00    +0.004 A 
ENDBRANCH   1  24
BRANCH  11  27
ATOM     27  C   UNL     1       3.142  -3.017  -0.616  0.00  0.00    -0.003 A 
ATOM     28  C   UNL     1       3.961  -2.996   0.498  0.00  0.00    +0.009 A 
ATOM     29  C   UNL     1       4.568  -1.817   0.887  0.00  0.00    +0.020 A 
ATOM     30  C   UNL     1       4.357  -0.658   0.161  0.00  0.00    +0.041 A 
ATOM     31  C   UNL     1       3.538  -0.680  -0.954  0.00  0.00    +0.020 A 
ATOM     32  C   UNL     1       2.936  -1.861  -1.345  0.00  0.00    +0.009 A 
ATOM     33 CL   UNL     1       5.120   0.823   0.650  0.00  0.00    -0.084 Cl
ENDBRANCH  11  27
BRANCH  16  34
ATOM     34  S   UNL     1      -4.257  -5.016   2.915  0.00  0.00    -0.092 S 
ATOM     35  C   UNL     1      -4.028  -6.014   4.413  0.00  0.00    +0.093 C 
ENDBRANCH  16  34
TORSDOF 3
