REMARK  Name = ZINC39920032
REMARK  7 active torsions:
REMARK  status: ('A' for Active; 'I' for Inactive)
REMARK    1  A    between atoms: C_4  and  C_7
REMARK    2  A    between atoms: N_18  and  N_19
REMARK    3  A    between atoms: C_20  and  C_22
REMARK    4  A    between atoms: C_22  and  C_23
REMARK    5  A    between atoms: C_23  and  C_24
REMARK    6  A    between atoms: C_24  and  O_25
REMARK    7  A    between atoms: O_25  and  C_26
REMARK                            x       y       z     vdW  Elec       q    Type
REMARK                         _______ _______ _______ _____ _____    ______ ____
ROOT
ATOM      1  C   UNL     1       3.568  -0.683  -0.056  0.00  0.00    +0.212 C 
ATOM      2  N   UNL     1       4.553   0.127  -0.784  0.00  0.00    -0.320 N 
ATOM      3  C   UNL     1       4.572   0.060  -2.173  0.00  0.00    +0.041 A 
ATOM      4  C   UNL     1       4.972   1.131  -2.953  0.00  0.00    +0.025 A 
ATOM      5  C   UNL     1       4.970   1.013  -4.329  0.00  0.00    +0.022 A 
ATOM      6  C   UNL     1       4.569  -0.169  -4.935  0.00  0.00    +0.042 A 
ATOM      7  C   UNL     1       4.169  -1.247  -4.171  0.00  0.00    +0.035 A 
ATOM      8  C   UNL     1       4.169  -1.141  -2.783  0.00  0.00    +0.061 A 
ATOM      9  C   UNL     1       3.759  -2.264  -1.919  0.00  0.00    +0.267 C 
ATOM     10  O   UNL     1       3.644  -3.383  -2.380  0.00  0.00    -0.268 OA
ATOM     11  N   UNL     1       3.515  -2.034  -0.616  0.00  0.00    -0.191 N 
ATOM     12 CL   UNL     1       4.572  -0.293  -6.667  0.00  0.00    -0.084 Cl
ATOM     13  H   UNL     1       5.176   0.697  -0.306  0.00  0.00    +0.148 HD
ENDROOT
BRANCH   1  17
ATOM     14  C   UNL     1      -0.280   1.141  -0.384  0.00  0.00    +0.000 A 
ATOM     15  C   UNL     1       0.260   0.886   0.863  0.00  0.00    +0.000 A 
ATOM     16  C   UNL     1       1.506   0.296   0.969  0.00  0.00    +0.007 A 
ATOM     17  C   UNL     1       2.210  -0.041  -0.172  0.00  0.00    -0.008 A 
ATOM     18  C   UNL     1       1.669   0.213  -1.419  0.00  0.00    +0.007 A 
ATOM     19  C   UNL     1       0.425   0.805  -1.525  0.00  0.00    +0.000 A 
ENDBRANCH   1  17
BRANCH  11  20
ATOM     20  N   UNL     1       3.200  -3.113   0.220  0.00  0.00    -0.230 N 
ATOM     21  C   UNL     1       1.970  -3.661   0.179  0.00  0.00    +0.229 C 
ATOM     22  O   UNL     1       1.164  -3.283  -0.645  0.00  0.00    -0.274 OA
ATOM     23  H   UNL     1       3.869  -3.465   0.829  0.00  0.00    +0.173 HD
BRANCH  21  24
ATOM     24  C   UNL     1       1.595  -4.744   1.158  0.00  0.00    +0.100 C 
BRANCH  24  25
ATOM     25  C   UNL     1       0.154  -5.189   0.898  0.00  0.00    +0.050 C 
BRANCH  25  26
ATOM     26  C   UNL     1      -0.227  -6.289   1.891  0.00  0.00    +0.229 C 
BRANCH  26  27
ATOM     27  O   UNL     1      -1.572  -6.705   1.649  0.00  0.00    -0.490 OA
BRANCH  27  28
ATOM     28  C   UNL     1      -2.070  -7.683   2.451  0.00  0.00    +0.139 A 
ATOM     29  C   UNL     1      -1.282  -8.227   3.454  0.00  0.00    +0.048 A 
ATOM     30  C   UNL     1      -1.789  -9.221   4.268  0.00  0.00    +0.023 A 
ATOM     31  C   UNL     1      -3.083  -9.675   4.084  0.00  0.00    +0.043 A 
ATOM     32  C   UNL     1      -3.872  -9.134   3.084  0.00  0.00    +0.043 A 
ATOM     33  C   UNL     1      -3.370  -8.135   2.271  0.00  0.00    +0.084 A 
ATOM     34 CL   UNL     1      -4.362  -7.452   1.020  0.00  0.00    -0.080 Cl
ATOM     35 CL   UNL     1      -3.717 -10.924   5.108  0.00  0.00    -0.083 Cl
ENDBRANCH  27  28
ENDBRANCH  26  27
ENDBRANCH  25  26
ENDBRANCH  24  25
ENDBRANCH  21  24
ENDBRANCH  11  20
TORSDOF 7
