REMARK  Name = ZINC35481363
REMARK  9 active torsions:
REMARK  status: ('A' for Active; 'I' for Inactive)
REMARK    1  A    between atoms: C_1  and  C_2
REMARK    2  A    between atoms: C_2  and  C_3
REMARK    3  A    between atoms: C_2  and  C_4
REMARK    4  A    between atoms: C_2  and  N_5
REMARK    5  A    between atoms: N_5  and  C_6
REMARK    6  A    between atoms: C_7  and  C_31
REMARK    7  A    between atoms: N_14  and  C_15
REMARK    8  A    between atoms: N_14  and  C_16
REMARK    9  A    between atoms: C_16  and  C_17
REMARK                            x       y       z     vdW  Elec       q    Type
REMARK                         _______ _______ _______ _____ _____    ______ ____
ROOT
ATOM      1  C   UNL     1       2.120   0.163  -1.288  0.00  0.00    +0.150 A 
ATOM      2  C   UNL     1       2.987  -0.053  -2.317  0.00  0.00    +0.114 A 
ATOM      3  N   UNL     1       4.180   0.503  -1.980  0.00  0.00    -0.218 NA
ATOM      4  C   UNL     1       4.071   1.040  -0.801  0.00  0.00    +0.199 A 
ATOM      5  N   UNL     1       2.801   0.869  -0.308  0.00  0.00    -0.190 N 
ATOM      6  N   UNL     1       2.550   1.406   0.951  0.00  0.00    -0.140 NA
ATOM      7  C   UNL     1       3.477   2.039   1.616  0.00  0.00    +0.184 A 
ATOM      8  S   UNL     1       4.873   1.938   0.507  0.00  0.00    -0.013 S 
ATOM      9  N   UNL     1       3.401   2.631   2.867  0.00  0.00    -0.302 N 
ATOM     10  C   UNL     1       2.146   2.590   3.621  0.00  0.00    +0.132 C 
ENDROOT
BRANCH   2  11
ATOM     11  C   UNL     1       2.683  -0.765  -3.579  0.00  0.00    +0.004 A 
ATOM     12  C   UNL     1       1.804  -1.849  -3.577  0.00  0.00    +0.010 A 
ATOM     13  C   UNL     1       1.525  -2.509  -4.756  0.00  0.00    +0.001 A 
ATOM     14  C   UNL     1       2.113  -2.097  -5.939  0.00  0.00    +0.000 A 
ATOM     15  C   UNL     1       2.984  -1.023  -5.948  0.00  0.00    +0.001 A 
ATOM     16  C   UNL     1       3.268  -0.352  -4.776  0.00  0.00    +0.010 A 
ENDBRANCH   2  11
BRANCH   1  17
ATOM     17  N   UNL     1       0.786  -0.249  -1.232  0.00  0.00    -0.323 N 
ATOM     18  H   UNL     1       0.368  -0.647  -2.011  0.00  0.00    +0.148 HD
BRANCH  17  20
ATOM     19  C   UNL     1      -0.160   1.414   0.292  0.00  0.00    +0.031 C 
ATOM     20  C   UNL     1       0.018  -0.078   0.004  0.00  0.00    +0.025 C 
ATOM     21  C   UNL     1       0.766  -0.736   1.165  0.00  0.00    +0.031 C 
ATOM     22  C   UNL     1      -1.355  -0.734  -0.154  0.00  0.00    +0.031 C 
ENDBRANCH  17  20
ENDBRANCH   1  17
BRANCH   9  23
ATOM     23  C   UNL     1       4.576   3.297   3.435  0.00  0.00    +0.202 C 
BRANCH  23  24
ATOM     24  C   UNL     1       4.577   4.747   3.027  0.00  0.00    +0.233 C 
ATOM     25  O   UNL     1       3.684   5.182   2.331  0.00  0.00    -0.274 OA
ATOM     26  N   UNL     1       5.569   5.562   3.437  0.00  0.00    -0.297 N 
ATOM     27  C   UNL     1       6.661   5.047   4.276  0.00  0.00    +0.126 C 
ATOM     28  C   UNL     1       7.996   5.358   3.588  0.00  0.00    +0.125 C 
ATOM     29  N   UNL     1       8.007   6.776   3.203  0.00  0.00    -0.314 N 
ATOM     30  C   UNL     1       6.916   7.291   2.364  0.00  0.00    +0.125 C 
ATOM     31  C   UNL     1       5.583   6.979   3.047  0.00  0.00    +0.126 C 
ATOM     32  C   UNL     1       9.031   7.616   3.626  0.00  0.00    +0.099 A 
ATOM     33  C   UNL     1      10.133   7.082   4.286  0.00  0.00    +0.042 A 
ATOM     34  C   UNL     1      11.144   7.929   4.701  0.00  0.00    +0.005 A 
ATOM     35  C   UNL     1      11.020   9.287   4.440  0.00  0.00    +0.018 A 
ATOM     36  C   UNL     1       9.899   9.749   3.780  0.00  0.00    +0.084 A 
ATOM     37  N   UNL     1       8.951   8.917   3.391  0.00  0.00    -0.350 N 
ATOM     38  H   UNL     1       8.176   9.267   2.925  0.00  0.00    +0.166 HD
ENDBRANCH  23  24
ENDBRANCH   9  23
TORSDOF 5
