REMARK  Name = ZINC44167850
REMARK  11 active torsions:
REMARK  status: ('A' for Active; 'I' for Inactive)
REMARK    1  A    between atoms: C_1  and  C_2
REMARK    2  A    between atoms: C_2  and  N_3
REMARK    3  A    between atoms: N_3  and  C_4
REMARK    4  A    between atoms: N_3  and  C_6
REMARK    5  A    between atoms: C_4  and  C_5
REMARK    6  A    between atoms: C_9  and  C_12
REMARK    7  A    between atoms: C_17  and  C_20
REMARK    8  A    between atoms: N_22  and  C_23
REMARK    9  A    between atoms: C_23  and  C_24
REMARK   10  A    between atoms: C_24  and  C_25
REMARK   11  A    between atoms: C_28  and  C_31
REMARK                            x       y       z     vdW  Elec       q    Type
REMARK                         _______ _______ _______ _____ _____    ______ ____
ROOT
ATOM      1  C   UNL     1      -3.986  -1.519   4.943  0.00  0.00    -0.030 C 
ATOM      2  C   UNL     1      -4.920  -0.349   5.273  0.00  0.00    +0.058 C 
ATOM      3  S   UNL     1      -5.690  -0.673   6.891  0.00  0.00    -0.163 S 
ATOM      4  C   UNL     1      -6.304  -2.377   6.706  0.00  0.00    +0.062 C 
ATOM      5  C   UNL     1      -5.162  -3.243   6.161  0.00  0.00    +0.027 C 
ATOM      6  N   UNL     1      -4.759  -2.758   4.839  0.00  0.00    +0.392 N 
ATOM      7  H   UNL     1      -5.583  -2.588   4.283  0.00  0.00    -0.084 HD
ATOM      8  H   UNL     1      -4.195  -3.463   4.388  0.00  0.00    -0.084 HD
ENDROOT
BRANCH   1  12
ATOM      9  C   UNL     1      -2.016  -0.759   1.227  0.00  0.00    +0.030 A 
ATOM     10  C   UNL     1      -1.356  -0.520   2.426  0.00  0.00    +0.023 A 
ATOM     11  C   UNL     1      -1.996  -0.767   3.625  0.00  0.00    +0.004 A 
ATOM     12  C   UNL     1      -3.291  -1.251   3.633  0.00  0.00    -0.060 A 
ATOM     13  C   UNL     1      -3.951  -1.490   2.441  0.00  0.00    +0.004 A 
ATOM     14  C   UNL     1      -3.319  -1.240   1.239  0.00  0.00    +0.023 A 
BRANCH   9  15
ATOM     15  N   UNL     1      -1.372  -0.511   0.012  0.00  0.00    -0.330 N 
BRANCH  15  17
ATOM     16  C   UNL     1      -0.019   1.526   0.010  0.00  0.00    +0.024 C 
ATOM     17  C   UNL     1       0.002  -0.004   0.002  0.00  0.00    +0.102 C 
ENDBRANCH  15  17
BRANCH  15  18
ATOM     18  C   UNL     1      -2.072  -0.758  -1.251  0.00  0.00    +0.102 C 
ATOM     19  C   UNL     1      -1.816  -2.197  -1.703  0.00  0.00    +0.024 C 
ENDBRANCH  15  18
ENDBRANCH   9  15
ENDBRANCH   1  12
BRANCH   5  20
ATOM     20  C   UNL     1      -5.628  -4.672   6.049  0.00  0.00    +0.200 C 
ATOM     21  O   UNL     1      -5.627  -5.226   4.970  0.00  0.00    -0.278 OA
ATOM     22  N   UNL     1      -6.045  -5.333   7.146  0.00  0.00    -0.316 N 
ATOM     23  H   UNL     1      -6.045  -4.889   8.009  0.00  0.00    +0.149 HD
BRANCH  22  24
ATOM     24  C   UNL     1      -6.497  -6.722   7.037  0.00  0.00    +0.109 C 
BRANCH  24  25
ATOM     25  C   UNL     1      -6.913  -7.234   8.418  0.00  0.00    +0.054 C 
BRANCH  25  26
ATOM     26  C   UNL     1      -7.378  -8.662   8.305  0.00  0.00    -0.046 A 
ATOM     27  C   UNL     1      -8.709  -8.938   8.052  0.00  0.00    +0.004 A 
ATOM     28  C   UNL     1      -9.136 -10.249   7.948  0.00  0.00    +0.003 A 
ATOM     29  C   UNL     1      -8.232 -11.284   8.098  0.00  0.00    -0.050 A 
ATOM     30  C   UNL     1      -6.901 -11.008   8.350  0.00  0.00    +0.003 A 
ATOM     31  C   UNL     1      -6.473  -9.697   8.450  0.00  0.00    +0.004 A 
ATOM     32  C   UNL     1      -8.697 -12.713   7.986  0.00  0.00    +0.044 C 
ENDBRANCH  25  26
ENDBRANCH  24  25
ENDBRANCH  22  24
ENDBRANCH   5  20
TORSDOF 8
