REMARK  Name = ZINC08762784
REMARK  8 active torsions:
REMARK  status: ('A' for Active; 'I' for Inactive)
REMARK    1  A    between atoms: C_1  and  O_2
REMARK    2  A    between atoms: O_2  and  C_3
REMARK    3  A    between atoms: C_3  and  C_5
REMARK    4  A    between atoms: C_5  and  C_31
REMARK    5  A    between atoms: C_10  and  C_12
REMARK    6  A    between atoms: N_21  and  C_24
REMARK    7  A    between atoms: C_24  and  C_25
REMARK    8  A    between atoms: C_31  and  C_32
REMARK                            x       y       z     vdW  Elec       q    Type
REMARK                         _______ _______ _______ _____ _____    ______ ____
ROOT
ATOM      1  C   UNL     1       4.096   2.450  -1.470  0.00  0.00    +0.048 C 
ATOM      2  C   UNL     1       5.448   3.178  -1.323  0.00  0.00    +0.086 C 
ATOM      3  C   UNL     1       6.519   2.074  -1.554  0.00  0.00    +0.077 C 
ATOM      4  C   UNL     1       5.710   0.787  -1.818  0.00  0.00    -0.025 C 
ATOM      5  C   UNL     1       7.196   2.507  -2.834  0.00  0.00    +0.225 C 
ATOM      6  O   UNL     1       8.106   1.920  -3.380  0.00  0.00    -0.275 OA
ATOM      7  N   UNL     1       6.636   3.641  -3.272  0.00  0.00    -0.237 N 
ATOM      8  C   UNL     1       5.646   4.105  -2.500  0.00  0.00    +0.225 C 
ATOM      9  O   UNL     1       5.006   5.112  -2.711  0.00  0.00    -0.275 OA
ATOM     10  N   UNL     1       4.413   1.277  -2.285  0.00  0.00    +0.396 N 
ATOM     11  H   UNL     1       4.469   1.539  -3.276  0.00  0.00    -0.083 HD
ATOM     12  H   UNL     1       3.695   0.554  -2.162  0.00  0.00    -0.083 HD
ENDROOT
BRANCH   4  13
ATOM     13  C   UNL     1       6.391  -0.055  -2.867  0.00  0.00    -0.042 A 
ATOM     14  C   UNL     1       6.058   0.098  -4.200  0.00  0.00    +0.003 A 
ATOM     15  C   UNL     1       6.682  -0.674  -5.161  0.00  0.00    +0.000 A 
ATOM     16  C   UNL     1       7.640  -1.599  -4.791  0.00  0.00    +0.001 A 
ATOM     17  C   UNL     1       7.974  -1.753  -3.459  0.00  0.00    +0.020 A 
ATOM     18  C   UNL     1       7.354  -0.977  -2.496  0.00  0.00    +0.043 A 
ATOM     19 CL   UNL     1       7.778  -1.164  -0.824  0.00  0.00    -0.083 Cl
ENDBRANCH   4  13
BRANCH   1  20
ATOM     20  C   UNL     1       3.091   3.341  -2.154  0.00  0.00    +0.297 C 
ATOM     21  O   UNL     1       2.338   4.018  -1.496  0.00  0.00    -0.252 OA
BRANCH  20  23
ATOM     22  C   UNL     1       2.041   4.262  -4.085  0.00  0.00    +0.280 C 
ATOM     23  O   UNL     1       3.033   3.381  -3.494  0.00  0.00    -0.469 OA
ENDBRANCH  20  23
ENDBRANCH   1  20
BRANCH   7  24
ATOM     24  C   UNL     1       7.071   4.320  -4.495  0.00  0.00    +0.151 C 
BRANCH  24  25
ATOM     25  C   UNL     1       6.281   3.799  -5.667  0.00  0.00    -0.030 A 
ATOM     26  C   UNL     1       6.745   2.713  -6.386  0.00  0.00    +0.005 A 
ATOM     27  C   UNL     1       6.018   2.232  -7.459  0.00  0.00    +0.000 A 
ATOM     28  C   UNL     1       4.831   2.842  -7.818  0.00  0.00    +0.000 A 
ATOM     29  C   UNL     1       4.369   3.931  -7.102  0.00  0.00    +0.000 A 
ATOM     30  C   UNL     1       5.094   4.409  -6.027  0.00  0.00    +0.005 A 
ENDBRANCH  24  25
ENDBRANCH   7  24
BRANCH   1  31
ATOM     31  C   UNL     1       3.574   2.014  -0.099  0.00  0.00    +0.034 C 
BRANCH  31  32
ATOM     32  C   UNL     1       2.340   1.167  -0.278  0.00  0.00    -0.048 A 
ATOM     33  C   UNL     1       1.092   1.761  -0.305  0.00  0.00    +0.003 A 
ATOM     34  C   UNL     1      -0.040   0.984  -0.470  0.00  0.00    +0.000 A 
ATOM     35  C   UNL     1       0.077  -0.387  -0.606  0.00  0.00    +0.000 A 
ATOM     36  C   UNL     1       1.324  -0.981  -0.577  0.00  0.00    +0.000 A 
ATOM     37  C   UNL     1       2.456  -0.204  -0.413  0.00  0.00    +0.003 A 
ENDBRANCH  31  32
ENDBRANCH   1  31
TORSDOF 7
