REMARK  Name = ZINC33644117
REMARK  8 active torsions:
REMARK  status: ('A' for Active; 'I' for Inactive)
REMARK    1  A    between atoms: C_4  and  O_7
REMARK    2  A    between atoms: O_7  and  C_8
REMARK    3  A    between atoms: C_11  and  C_14
REMARK    4  A    between atoms: N_22  and  C_25
REMARK    5  A    between atoms: C_25  and  C_26
REMARK    6  A    between atoms: C_36  and  C_38
REMARK    7  A    between atoms: C_36  and  C_40
REMARK    8  A    between atoms: C_38  and  O_39
REMARK                            x       y       z     vdW  Elec       q    Type
REMARK                         _______ _______ _______ _____ _____    ______ ____
ROOT
ATOM      1  C   UNL     1      -0.012   1.390  -1.713  0.00  0.00    -0.027 C 
ATOM      2  C   UNL     1       0.388   1.046  -0.339  0.00  0.00    +0.077 C 
ATOM      3  C   UNL     1       1.903   1.494  -0.317  0.00  0.00    +0.088 C 
ATOM      4  C   UNL     1       2.233   0.858   1.008  0.00  0.00    +0.225 C 
ATOM      5  O   UNL     1       3.281   0.342   1.331  0.00  0.00    -0.275 OA
ATOM      6  N   UNL     1       1.106   0.982   1.770  0.00  0.00    -0.237 N 
ATOM      7  C   UNL     1      -0.008   1.282   1.026  0.00  0.00    +0.225 C 
ATOM      8  O   UNL     1      -1.086   1.663   1.429  0.00  0.00    -0.275 OA
ATOM      9  C   UNL     1       2.340   0.792  -1.604  0.00  0.00    +0.071 C 
ATOM     10  N   UNL     1       1.157   0.856  -2.513  0.00  0.00    +0.397 N 
ATOM     11  H   UNL     1       0.913  -0.147  -2.894  0.00  0.00    -0.083 HD
ATOM     12  H   UNL     1       1.361   1.530  -3.359  0.00  0.00    -0.083 HD
ENDROOT
BRANCH   1  16
ATOM     13  C   UNL     1      -3.622  -0.621  -2.802  0.00  0.00    +0.128 A 
ATOM     14  C   UNL     1      -3.660   0.707  -2.401  0.00  0.00    +0.046 A 
ATOM     15  C   UNL     1      -2.492   1.354  -2.049  0.00  0.00    +0.005 A 
ATOM     16  C   UNL     1      -1.285   0.680  -2.097  0.00  0.00    -0.060 A 
ATOM     17  C   UNL     1      -1.244  -0.641  -2.501  0.00  0.00    +0.005 A 
ATOM     18  C   UNL     1      -2.410  -1.295  -2.849  0.00  0.00    +0.046 A 
BRANCH  13  19
ATOM     19  O   UNL     1      -4.770  -1.260  -3.149  0.00  0.00    -0.456 OA
BRANCH  19  23
ATOM     20  C   UNL     1      -4.487  -5.140  -4.523  0.00  0.00    +0.000 A 
ATOM     21  C   UNL     1      -4.417  -4.881  -3.167  0.00  0.00    +0.004 A 
ATOM     22  C   UNL     1      -4.511  -3.583  -2.704  0.00  0.00    +0.046 A 
ATOM     23  C   UNL     1      -4.677  -2.538  -3.602  0.00  0.00    +0.128 A 
ATOM     24  C   UNL     1      -4.753  -2.801  -4.962  0.00  0.00    +0.046 A 
ATOM     25  C   UNL     1      -4.651  -4.100  -5.420  0.00  0.00    +0.004 A 
ENDBRANCH  19  23
ENDBRANCH  13  19
ENDBRANCH   1  16
BRANCH   9  26
ATOM     26  C   UNL     1       2.701  -0.643  -1.318  0.00  0.00    +0.348 C 
ATOM     27  O   UNL     1       3.850  -0.945  -1.101  0.00  0.00    -0.248 OA
ATOM     28  O   UNL     1       1.745  -1.586  -1.305  0.00  0.00    -0.248 OA
ENDBRANCH   9  26
BRANCH   6  29
ATOM     29  C   UNL     1       1.089   0.814   3.226  0.00  0.00    +0.152 C 
BRANCH  29  30
ATOM     30  C   UNL     1       1.458   2.116   3.887  0.00  0.00    -0.022 A 
ATOM     31  C   UNL     1       1.628   3.240   3.137  0.00  0.00    +0.006 A 
ATOM     32  C   UNL     1       1.965   4.454   3.732  0.00  0.00    +0.001 A 
ATOM     33  C   UNL     1       2.143   4.551   5.078  0.00  0.00    +0.008 A 
ATOM     34  C   UNL     1       1.980   3.411   5.883  0.00  0.00    -0.018 A 
ATOM     35  C   UNL     1       1.633   2.176   5.280  0.00  0.00    -0.013 A 
ATOM     36  C   UNL     1       1.471   1.037   6.086  0.00  0.00    +0.009 A 
ATOM     37  C   UNL     1       1.648   1.134   7.432  0.00  0.00    +0.001 A 
ATOM     38  C   UNL     1       1.989   2.348   8.025  0.00  0.00    +0.001 A 
ATOM     39  C   UNL     1       2.155   3.472   7.277  0.00  0.00    +0.008 A 
ENDBRANCH  29  30
ENDBRANCH   6  29
BRANCH   9  40
ATOM     40  C   UNL     1       3.529   1.524  -2.229  0.00  0.00    +0.155 C 
BRANCH  40  41
ATOM     41  O   UNL     1       3.849   0.925  -3.487  0.00  0.00    -0.396 OA
ATOM     42  H   UNL     1       4.682   1.319  -4.088  0.00  0.00    +0.209 HD
ENDBRANCH  40  41
ENDBRANCH   9  40
TORSDOF 8
