REMARK  Name = ZINC34686424
REMARK  15 active torsions:
REMARK  status: ('A' for Active; 'I' for Inactive)
REMARK    1  A    between atoms: C_1  and  C_2
REMARK    2  A    between atoms: C_2  and  C_3
REMARK    3  A    between atoms: C_3  and  C_5
REMARK    4  A    between atoms: C_3  and  O_13
REMARK    5  A    between atoms: N_7  and  C_8
REMARK    6  A    between atoms: C_8  and  C_9
REMARK    7  A    between atoms: C_9  and  N_10
REMARK    8  A    between atoms: N_10  and  C_11
REMARK    9  A    between atoms: N_10  and  C_12
REMARK   10  A    between atoms: O_13  and  C_14
REMARK   11  A    between atoms: C_20  and  C_31
REMARK   12  A    between atoms: C_25  and  C_27
REMARK   13  A    between atoms: C_27  and  C_28
REMARK   14  A    between atoms: C_27  and  C_29
REMARK   15  A    between atoms: C_27  and  C_30
REMARK                            x       y       z     vdW  Elec       q    Type
REMARK                         _______ _______ _______ _____ _____    ______ ____
ROOT
ATOM      1  C   UNL     1      -2.522   1.501   0.731  0.00  0.00    +0.122 A 
ATOM      2  C   UNL     1      -2.695   2.385  -0.324  0.00  0.00    +0.046 A 
ATOM      3  C   UNL     1      -3.334   3.588  -0.112  0.00  0.00    +0.007 A 
ATOM      4  C   UNL     1      -3.811   3.924   1.150  0.00  0.00    -0.040 A 
ATOM      5  C   UNL     1      -3.648   3.043   2.196  0.00  0.00    -0.016 A 
ATOM      6  C   UNL     1      -3.004   1.832   1.986  0.00  0.00    +0.051 A 
ATOM      7  C   UNL     1      -4.167   3.331   3.582  0.00  0.00    +0.137 C 
ATOM      8  N   UNL     1      -4.577   4.737   3.673  0.00  0.00    -0.290 N 
ATOM      9  C   UNL     1      -5.363   5.286   2.556  0.00  0.00    +0.113 C 
ATOM     10  C   UNL     1      -4.485   5.262   1.306  0.00  0.00    +0.054 C 
ATOM     11  C   UNL     1      -4.246   5.496   4.737  0.00  0.00    +0.222 C 
ATOM     12  O   UNL     1      -3.678   4.996   5.685  0.00  0.00    -0.275 OA
ENDROOT
BRANCH   7  13
ATOM     13  C   UNL     1      -5.352   2.445   3.869  0.00  0.00    -0.020 A 
ATOM     14  C   UNL     1      -5.360   1.646   4.997  0.00  0.00    +0.006 A 
ATOM     15  C   UNL     1      -6.446   0.833   5.261  0.00  0.00    +0.003 A 
ATOM     16  C   UNL     1      -7.525   0.817   4.398  0.00  0.00    +0.038 A 
ATOM     17  C   UNL     1      -7.518   1.617   3.268  0.00  0.00    +0.124 A 
ATOM     18  C   UNL     1      -6.432   2.436   3.007  0.00  0.00    +0.044 A 
ATOM     19  F   UNL     1      -8.572   1.603   2.423  0.00  0.00    -0.205 F 
ENDBRANCH   7  13
BRANCH  11  20
ATOM     20  C   UNL     1      -4.581   6.965   4.748  0.00  0.00    +0.039 C 
ATOM     21  C   UNL     1      -3.995   7.612   6.004  0.00  0.00    +0.020 C 
ATOM     22  C   UNL     1      -3.987   7.633   3.506  0.00  0.00    +0.020 C 
ATOM     23  C   UNL     1      -6.101   7.141   4.745  0.00  0.00    +0.020 C 
ENDBRANCH  11  20
BRANCH   1  24
ATOM     24  O   UNL     1      -1.888   0.315   0.533  0.00  0.00    -0.480 OA
BRANCH  24  25
ATOM     25  C   UNL     1      -1.337   0.083  -0.765  0.00  0.00    +0.258 C 
BRANCH  25  26
ATOM     26  C   UNL     1      -1.440  -1.383  -1.100  0.00  0.00    +0.254 C 
ATOM     27  O   UNL     1      -1.851  -2.166  -0.271  0.00  0.00    -0.272 OA
ATOM     28  N   UNL     1      -1.074  -1.823  -2.320  0.00  0.00    -0.314 N 
ATOM     29  H   UNL     1      -0.744  -1.196  -2.983  0.00  0.00    +0.149 HD
BRANCH  28  30
ATOM     30  C   UNL     1      -1.173  -3.248  -2.645  0.00  0.00    +0.086 C 
BRANCH  30  31
ATOM     31  C   UNL     1      -0.699  -3.478  -4.081  0.00  0.00    -0.061 C 
BRANCH  31  32
ATOM     32  N   UNL     1      -0.798  -4.907  -4.407  0.00  0.00    +0.377 N 
ATOM     33  C   UNL     1      -0.457  -5.111  -5.821  0.00  0.00    -0.097 C 
ATOM     34  C   UNL     1       0.134  -5.667  -3.563  0.00  0.00    -0.097 C 
ATOM     35  H   UNL     1      -1.741  -5.225  -4.239  0.00  0.00    -0.083 HD
ENDBRANCH  31  32
ENDBRANCH  30  31
ENDBRANCH  28  30
ENDBRANCH  25  26
BRANCH  25  37
ATOM     36  C   UNL     1       0.228   2.020  -0.563  0.00  0.00    +0.008 C 
ATOM     37  C   UNL     1       0.132   0.508  -0.779  0.00  0.00    +0.051 C 
ENDBRANCH  25  37
ENDBRANCH  24  25
ENDBRANCH   1  24
TORSDOF 9
