REMARK  Name = ZINC12323462
REMARK  5 active torsions:
REMARK  status: ('A' for Active; 'I' for Inactive)
REMARK    1  A    between atoms: C_1  and  C_2
REMARK    2  A    between atoms: C_2  and  N_3
REMARK    3  A    between atoms: C_5  and  C_17
REMARK    4  A    between atoms: C_6  and  C_11
REMARK    5  A    between atoms: C_20  and  C_22
REMARK                            x       y       z     vdW  Elec       q    Type
REMARK                         _______ _______ _______ _____ _____    ______ ____
ROOT
ATOM      1  N   UNL     1      -3.618  -0.906   0.033  0.00  0.00    -0.262 N 
ATOM      2  C   UNL     1      -2.442  -0.175   0.031  0.00  0.00    +0.087 C 
ATOM      3  C   UNL     1      -1.252  -0.784   0.010  0.00  0.00    +0.017 C 
ATOM      4  C   UNL     1      -1.230  -2.298   0.002  0.00  0.00    +0.138 C 
ATOM      5  N   UNL     1      -2.530  -2.989   0.011  0.00  0.00    -0.288 N 
ATOM      6  C   UNL     1      -3.654  -2.245   0.026  0.00  0.00    +0.307 C 
ATOM      7  O   UNL     1      -4.733  -2.806   0.034  0.00  0.00    -0.252 OA
ATOM      8  H   UNL     1      -2.577  -3.958   0.007  0.00  0.00    +0.151 HD
ENDROOT
BRANCH   4   9
ATOM      9  C   UNL     1      -0.454  -2.757   1.209  0.00  0.00    -0.023 A 
ATOM     10  C   UNL     1      -1.060  -2.782   2.452  0.00  0.00    +0.006 A 
ATOM     11  C   UNL     1      -0.349  -3.208   3.558  0.00  0.00    +0.000 A 
ATOM     12  C   UNL     1       0.970  -3.599   3.424  0.00  0.00    +0.000 A 
ATOM     13  C   UNL     1       1.577  -3.569   2.183  0.00  0.00    +0.000 A 
ATOM     14  C   UNL     1       0.865  -3.148   1.075  0.00  0.00    +0.006 A 
ENDBRANCH   4   9
BRANCH   3  15
ATOM     15  C   UNL     1       0.002  -0.004   0.002  0.00  0.00    +0.078 A 
ATOM     16  C   UNL     1      -0.017   1.367   0.010  0.00  0.00    +0.075 A 
ATOM     17  S   UNL     1       1.735   1.720  -0.005  0.00  0.00    -0.080 S 
ATOM     18  C   UNL     1       2.300   0.079  -0.019  0.00  0.00    +0.076 A 
ATOM     19  N   UNL     1       1.182  -0.606  -0.013  0.00  0.00    -0.245 NA
ATOM     20  C   UNL     1       3.718  -0.431  -0.036  0.00  0.00    +0.073 C 
ENDBRANCH   3  15
BRANCH   1  22
ATOM     21  C   UNL     1      -5.317   0.069   1.497  0.00  0.00    +0.025 C 
ATOM     22  C   UNL     1      -4.889  -0.177   0.049  0.00  0.00    +0.111 C 
ENDBRANCH   1  22
TORSDOF 3
