REMARK  Name = ZINC04949155
REMARK  6 active torsions:
REMARK  status: ('A' for Active; 'I' for Inactive)
REMARK    1  A    between atoms: C_1  and  C_2
REMARK    2  A    between atoms: C_6  and  N_8
REMARK    3  A    between atoms: C_9  and  N_27
REMARK    4  A    between atoms: C_10  and  C_14
REMARK    5  A    between atoms: C_11  and  C_13
REMARK    6  A    between atoms: C_14  and  O_26
REMARK                            x       y       z     vdW  Elec       q    Type
REMARK                         _______ _______ _______ _____ _____    ______ ____
ROOT
ATOM      1  N   UNL     1      -3.591   1.082  -2.601  0.00  0.00    -0.218 N 
ATOM      2  C   UNL     1      -3.074   0.941  -1.350  0.00  0.00    +0.127 A 
ATOM      3  C   UNL     1      -2.043   1.823  -1.233  0.00  0.00    +0.060 A 
ATOM      4  C   UNL     1      -1.935   2.519  -2.440  0.00  0.00    +0.069 A 
ATOM      5  N   UNL     1      -2.854   2.075  -3.259  0.00  0.00    -0.170 NA
ATOM      6  C   UNL     1      -0.929   3.597  -2.748  0.00  0.00    +0.068 C 
ENDROOT
BRANCH   3   7
ATOM      7  C   UNL     1      -1.175   2.017  -0.016  0.00  0.00    +0.199 C 
ATOM      8  C   UNL     1      -1.600   3.250   0.748  0.00  0.00    +0.021 A 
ATOM      9  C   UNL     1      -2.773   3.605   1.376  0.00  0.00    +0.029 A 
ATOM     10  C   UNL     1      -2.876   4.833   2.006  0.00  0.00    +0.043 A 
ATOM     11  C   UNL     1      -1.797   5.700   2.003  0.00  0.00    +0.042 A 
ATOM     12  C   UNL     1      -0.620   5.347   1.375  0.00  0.00    +0.064 A 
ATOM     13  C   UNL     1      -0.510   4.111   0.738  0.00  0.00    +0.059 A 
ATOM     14  N   UNL     1       0.555   3.532   0.045  0.00  0.00    -0.281 N 
ATOM     15  C   UNL     1       0.253   2.310  -0.424  0.00  0.00    +0.258 C 
ATOM     16  O   UNL     1       0.984   1.581  -1.060  0.00  0.00    -0.272 OA
ATOM     17 CL   UNL     1       0.727   6.442   1.378  0.00  0.00    -0.082 Cl
ATOM     18 CL   UNL     1      -4.353   5.284   2.799  0.00  0.00    -0.083 Cl
ATOM     19  H   UNL     1       1.415   3.963  -0.082  0.00  0.00    +0.155 HD
BRANCH   7  20
ATOM     20  O   UNL     1      -1.229   0.865   0.828  0.00  0.00    -0.371 OA
ATOM     21  H   UNL     1      -0.712   0.949   1.641  0.00  0.00    +0.212 HD
ENDBRANCH   7  20
ENDBRANCH   3   7
BRANCH   1  27
ATOM     22  C   UNL     1      -7.571   0.939  -5.487  0.00  0.00    +0.044 C 
ATOM     23  C   UNL     1      -6.613   0.269  -4.535  0.00  0.00    -0.048 A 
ATOM     24  C   UNL     1      -6.798  -1.057  -4.188  0.00  0.00    +0.003 A 
ATOM     25  C   UNL     1      -5.921  -1.674  -3.315  0.00  0.00    +0.002 A 
ATOM     26  C   UNL     1      -4.858  -0.968  -2.788  0.00  0.00    +0.028 A 
ATOM     27  C   UNL     1      -4.669   0.363  -3.135  0.00  0.00    +0.068 A 
ATOM     28  C   UNL     1      -5.555   0.982  -4.007  0.00  0.00    +0.031 A 
ENDBRANCH   1  27
BRANCH   2  29
ATOM     29  N   UNL     1      -3.518   0.058  -0.370  0.00  0.00    -0.343 N 
ATOM     30  H   UNL     1      -3.080   0.034   0.496  0.00  0.00    +0.144 HD
ATOM     31  H   UNL     1      -4.265  -0.533  -0.552  0.00  0.00    +0.144 HD
ENDBRANCH   2  29
TORSDOF 4
