REMARK  Name = ZINC08766637
REMARK  6 active torsions:
REMARK  status: ('A' for Active; 'I' for Inactive)
REMARK    1  A    between atoms: C_4  and  C_7
REMARK    2  A    between atoms: C_8  and  C_9
REMARK    3  A    between atoms: C_9  and  N_76
REMARK    4  A    between atoms: C_15  and  C_17
REMARK    5  A    between atoms: N_22  and  C_24
REMARK    6  A    between atoms: C_25  and  C_37
REMARK                            x       y       z     vdW  Elec       q    Type
REMARK                         _______ _______ _______ _____ _____    ______ ____
ROOT
ATOM      1  C   UNL     1       6.435   6.055  -5.766  0.00  0.00    +0.092 C 
ATOM      2  C   UNL     1       6.639   4.568  -5.462  0.00  0.00    +0.016 C 
ATOM      3  C   UNL     1       6.551   3.772  -6.767  0.00  0.00    +0.020 C 
ATOM      4  C   UNL     1       7.599   4.296  -7.752  0.00  0.00    +0.105 C 
ATOM      5  N   UNL     1       7.359   5.721  -8.011  0.00  0.00    -0.325 N 
ATOM      6  C   UNL     1       7.486   6.513  -6.780  0.00  0.00    +0.118 C 
ENDROOT
BRANCH   5   7
ATOM      7  C   UNL     1       8.215   6.200  -9.004  0.00  0.00    +0.103 A 
ATOM      8  C   UNL     1       7.699   6.653 -10.206  0.00  0.00    +0.018 A 
ATOM      9  C   UNL     1       8.640   7.149 -11.224  0.00  0.00    +0.009 A 
ATOM     10  C   UNL     1       8.183   7.619 -12.457  0.00  0.00    +0.030 A 
ATOM     11  C   UNL     1       9.088   8.077 -13.389  0.00  0.00    +0.042 A 
ATOM     12  C   UNL     1      10.448   8.073 -13.108  0.00  0.00    +0.022 A 
ATOM     13  C   UNL     1      10.913   7.612 -11.896  0.00  0.00    +0.028 A 
ATOM     14  C   UNL     1      10.016   7.145 -10.940  0.00  0.00    +0.050 A 
ATOM     15  N   UNL     1      10.466   6.679  -9.720  0.00  0.00    -0.321 N 
ATOM     16  H   UNL     1      11.418   6.680  -9.533  0.00  0.00    +0.169 HD
ATOM     17  C   UNL     1       9.613   6.230  -8.784  0.00  0.00    +0.271 A 
ATOM     18  O   UNL     1      10.056   5.833  -7.719  0.00  0.00    -0.266 OA
ATOM     19 CL   UNL     1       8.525   8.663 -14.923  0.00  0.00    -0.084 Cl
BRANCH   8  20
ATOM     20  C   UNL     1       6.242   6.638 -10.460  0.00  0.00    -0.015 A 
ATOM     21  C   UNL     1       5.557   5.424 -10.539  0.00  0.00    +0.008 A 
ATOM     22  C   UNL     1       4.197   5.418 -10.770  0.00  0.00    +0.001 A 
ATOM     23  C   UNL     1       3.515   6.609 -10.937  0.00  0.00    +0.000 A 
ATOM     24  C   UNL     1       4.189   7.816 -10.867  0.00  0.00    +0.001 A 
ATOM     25  C   UNL     1       5.548   7.837 -10.629  0.00  0.00    +0.008 A 
ENDBRANCH   8  20
ENDBRANCH   5   7
BRANCH   1  31
ATOM     26  C   UNL     1       3.657   5.652  -2.888  0.00  0.00    -0.059 C 
ATOM     27  C   UNL     1       4.196   6.498  -4.046  0.00  0.00    +0.089 C 
ATOM     28  N   UNL     1       5.524   7.008  -3.674  0.00  0.00    -0.305 N 
ATOM     29  C   UNL     1       5.668   7.693  -2.380  0.00  0.00    +0.089 C 
ATOM     30  C   UNL     1       5.072   6.800  -1.287  0.00  0.00    -0.059 C 
ATOM     31  C   UNL     1       6.580   6.853  -4.496  0.00  0.00    +0.220 C 
ATOM     32  O   UNL     1       7.647   7.355  -4.214  0.00  0.00    -0.275 OA
ATOM     33  N   UNL     1       3.678   6.468  -1.654  0.00  0.00    +0.384 N 
ATOM     34  H   UNL     1       3.161   7.339  -1.823  0.00  0.00    -0.081 HD
BRANCH  33  35
ATOM     35  C   UNL     1       3.028   5.731  -0.551  0.00  0.00    -0.051 C 
BRANCH  35  37
ATOM     36  C   UNL     1       0.986   4.402  -0.852  0.00  0.00    +0.002 C 
ATOM     37  C   UNL     1       1.558   5.598  -0.856  0.00  0.00    -0.045 C 
BRANCH  36  41
ATOM     38  C   UNL     1      -3.156   4.026  -1.713  0.00  0.00    +0.000 A 
ATOM     39  C   UNL     1      -2.562   5.275  -1.718  0.00  0.00    +0.001 A 
ATOM     40  C   UNL     1      -1.217   5.404  -1.439  0.00  0.00    +0.008 A 
ATOM     41  C   UNL     1      -0.455   4.271  -1.151  0.00  0.00    -0.025 A 
ATOM     42  C   UNL     1      -1.061   3.014  -1.148  0.00  0.00    +0.008 A 
ATOM     43  C   UNL     1      -2.407   2.898  -1.428  0.00  0.00    +0.001 A 
ENDBRANCH  36  41
ENDBRANCH  35  37
ENDBRANCH  33  35
ENDBRANCH   1  31
TORSDOF 6
