REMARK  Name = ZINC49010115
REMARK  5 active torsions:
REMARK  status: ('A' for Active; 'I' for Inactive)
REMARK    1  A    between atoms: C_1  and  C_2
REMARK    2  A    between atoms: C_7  and  N_10
REMARK    3  A    between atoms: N_10  and  C_11
REMARK    4  A    between atoms: N_10  and  C_12
REMARK    5  A    between atoms: C_17  and  N_18
REMARK                            x       y       z     vdW  Elec       q    Type
REMARK                         _______ _______ _______ _____ _____    ______ ____
ROOT
ATOM      1  C   UNL     1       2.542  -3.368   0.233  0.00  0.00    +0.054 A 
ATOM      2  C   UNL     1       2.339  -4.733   0.371  0.00  0.00    +0.074 A 
ATOM      3  C   UNL     1       3.419  -5.580   0.572  0.00  0.00    +0.164 A 
ATOM      4  C   UNL     1       4.707  -5.060   0.635  0.00  0.00    +0.164 A 
ATOM      5  C   UNL     1       4.911  -3.695   0.499  0.00  0.00    +0.074 A 
ATOM      6  C   UNL     1       3.833  -2.848   0.292  0.00  0.00    +0.050 A 
ATOM      7  O   UNL     1       5.779  -5.878   0.825  0.00  0.00    -0.485 OA
ATOM      8  C   UNL     1       5.507  -7.191   1.329  0.00  0.00    +0.270 C 
ATOM      9  C   UNL     1       4.332  -7.776   0.534  0.00  0.00    +0.270 C 
ATOM     10  O   UNL     1       3.200  -6.917   0.710  0.00  0.00    -0.485 OA
ENDROOT
BRANCH   6  11
ATOM     11  N   UNL     1       4.041  -1.468   0.148  0.00  0.00    -0.356 N 
ATOM     12  H   UNL     1       3.286  -0.876   0.008  0.00  0.00    +0.142 HD
ATOM     13  H   UNL     1       4.941  -1.107   0.190  0.00  0.00    +0.142 HD
ENDBRANCH   6  11
BRANCH   1  14
ATOM     14  N   UNL     1       1.448  -2.513   0.028  0.00  0.00    -0.328 N 
ATOM     15  C   UNL     1       0.630  -2.647  -1.180  0.00  0.00    +0.129 C 
BRANCH  14  21
ATOM     16  C   UNL     1      -2.631  -2.264   1.355  0.00  0.00    +0.007 C 
ATOM     17  C   UNL     1      -1.123  -2.522   1.361  0.00  0.00    -0.012 C 
ATOM     18  C   UNL     1      -0.693  -3.002   2.748  0.00  0.00    +0.003 C 
ATOM     19  C   UNL     1       0.816  -3.260   2.754  0.00  0.00    +0.002 C 
ATOM     20  C   UNL     1       1.556  -1.966   2.409  0.00  0.00    +0.022 C 
ATOM     21  C   UNL     1       1.125  -1.486   1.022  0.00  0.00    +0.073 C 
ATOM     22  C   UNL     1      -0.383  -1.228   1.016  0.00  0.00    +0.025 C 
ENDBRANCH  14  21
ENDBRANCH   1  14
TORSDOF 3
