REMARK  Name = ZINC14671803
REMARK  13 active torsions:
REMARK  status: ('A' for Active; 'I' for Inactive)
REMARK    1  A    between atoms: C_1  and  C_2
REMARK    2  A    between atoms: C_4  and  C_38
REMARK    3  A    between atoms: N_10  and  C_11
REMARK    4  A    between atoms: C_11  and  C_13
REMARK    5  A    between atoms: C_16  and  C_19
REMARK    6  A    between atoms: C_19  and  C_20
REMARK    7  A    between atoms: C_19  and  C_21
REMARK    8  A    between atoms: C_19  and  C_22
REMARK    9  A    between atoms: N_23  and  C_24
REMARK   10  A    between atoms: C_24  and  C_25
REMARK   11  A    between atoms: C_25  and  C_26
REMARK   12  A    between atoms: C_33  and  O_36
REMARK   13  A    between atoms: O_36  and  C_37
REMARK                            x       y       z     vdW  Elec       q    Type
REMARK                         _______ _______ _______ _____ _____    ______ ____
ROOT
ATOM      1  C   UNL     1      10.537  -1.084  -5.646  0.00  0.00    +0.066 C 
ATOM      2  C   UNL     1       9.120  -0.588  -5.770  0.00  0.00    +0.044 A 
ATOM      3  C   UNL     1       8.419  -0.755  -6.954  0.00  0.00    +0.046 A 
ATOM      4  C   UNL     1       7.117  -0.284  -7.026  0.00  0.00    +0.044 A 
ATOM      5  N   UNL     1       6.586   0.306  -5.968  0.00  0.00    -0.217 NA
ATOM      6  C   UNL     1       7.283   0.450  -4.851  0.00  0.00    +0.231 A 
ATOM      7  N   UNL     1       8.530   0.016  -4.752  0.00  0.00    -0.217 NA
ATOM      8  N   UNL     1       6.694   1.075  -3.760  0.00  0.00    -0.297 N 
ATOM      9  C   UNL     1       7.422   1.298  -2.624  0.00  0.00    +0.196 C 
ATOM     10  N   UNL     1       8.709   0.988  -2.592  0.00  0.00    -0.143 NA
ATOM     11  N   UNL     1       6.823   1.840  -1.526  0.00  0.00    -0.357 N 
ATOM     12  C   UNL     1       6.317  -0.443  -8.293  0.00  0.00    +0.066 C 
ATOM     13  H   UNL     1       5.641   1.390  -3.809  0.00  0.00    +0.171 HD
ATOM     14  H   UNL     1       7.427   2.107  -0.646  0.00  0.00    +0.162 HD
ENDROOT
BRANCH  10  15
ATOM     15  C   UNL     1       9.341   0.873  -1.416  0.00  0.00    +0.270 C 
ATOM     16  O   UNL     1       8.707   0.920  -0.377  0.00  0.00    -0.268 OA
BRANCH  15  17
ATOM     17  C   UNL     1      10.810   0.688  -1.379  0.00  0.00    +0.039 A 
ATOM     18  C   UNL     1      11.538   0.628  -2.567  0.00  0.00    +0.013 A 
ATOM     19  C   UNL     1      12.907   0.461  -2.527  0.00  0.00    +0.005 A 
ATOM     20  C   UNL     1      13.556   0.342  -1.311  0.00  0.00    -0.042 A 
ATOM     21  C   UNL     1      12.839   0.396  -0.129  0.00  0.00    +0.005 A 
ATOM     22  C   UNL     1      11.470   0.568  -0.156  0.00  0.00    +0.013 A 
BRANCH  20  23
ATOM     23  C   UNL     1      15.051   0.154  -1.274  0.00  0.00    -0.013 C 
ATOM     24  C   UNL     1      15.381  -1.168  -0.578  0.00  0.00    +0.015 C 
ATOM     25  C   UNL     1      15.597   0.129  -2.702  0.00  0.00    +0.015 C 
ATOM     26  C   UNL     1      15.691   1.310  -0.502  0.00  0.00    +0.015 C 
ENDBRANCH  20  23
ENDBRANCH  15  17
ENDBRANCH  10  15
BRANCH  11  27
ATOM     27  C   UNL     1       5.376   2.066  -1.518  0.00  0.00    +0.120 C 
BRANCH  27  28
ATOM     28  C   UNL     1       4.980   2.787  -0.228  0.00  0.00    +0.058 C 
BRANCH  28  29
ATOM     29  C   UNL     1       3.480   2.914  -0.163  0.00  0.00    -0.021 A 
ATOM     30  C   UNL     1       2.755   3.997  -0.484  0.00  0.00    +0.087 A 
ATOM     31  N   UNL     1       1.424   3.740  -0.299  0.00  0.00    -0.360 N 
ATOM     32  H   UNL     1       0.678   4.520  -0.514  0.00  0.00    +0.165 HD
ATOM     33  C   UNL     1       1.256   2.450   0.157  0.00  0.00    +0.047 A 
ATOM     34  C   UNL     1       2.536   1.877   0.262  0.00  0.00    +0.006 A 
ATOM     35  C   UNL     1       2.677   0.560   0.704  0.00  0.00    +0.056 A 
ATOM     36  C   UNL     1       1.555  -0.172   1.037  0.00  0.00    +0.121 A 
ATOM     37  C   UNL     1       0.289   0.398   0.932  0.00  0.00    +0.047 A 
ATOM     38  C   UNL     1       0.138   1.695   0.496  0.00  0.00    +0.030 A 
BRANCH  36  39
ATOM     39  O   UNL     1       1.687  -1.455   1.469  0.00  0.00    -0.495 OA
ATOM     40  C   UNL     1       0.485  -2.156   1.796  0.00  0.00    +0.277 C 
ENDBRANCH  36  39
ENDBRANCH  28  29
ENDBRANCH  27  28
ENDBRANCH  11  27
TORSDOF 7
