REMARK  Name = ZINC34830400
REMARK  7 active torsions:
REMARK  status: ('A' for Active; 'I' for Inactive)
REMARK    1  A    between atoms: C_1  and  C_2
REMARK    2  A    between atoms: C_7  and  C_8
REMARK    3  A    between atoms: N_17  and  C_18
REMARK    4  A    between atoms: C_18  and  C_20
REMARK    5  A    between atoms: C_18  and  C_21
REMARK    6  A    between atoms: C_30  and  C_32
REMARK    7  A    between atoms: C_37  and  C_38
REMARK                            x       y       z     vdW  Elec       q    Type
REMARK                         _______ _______ _______ _____ _____    ______ ____
ROOT
ATOM      1  C   UNL     1      -0.657  -1.779   2.485  0.00  0.00    +0.018 C 
ATOM      2  C   UNL     1      -0.280  -3.000   1.643  0.00  0.00    -0.004 C 
ENDROOT
BRANCH   1   3
ATOM      3  C   UNL     1      -1.549  -2.209   3.621  0.00  0.00    +0.202 C 
ATOM      4  O   UNL     1      -1.088  -2.351   4.734  0.00  0.00    -0.277 OA
ATOM      5  N   UNL     1      -2.859  -2.437   3.400  0.00  0.00    -0.301 N 
ATOM      6  C   UNL     1      -3.751  -2.728   4.467  0.00  0.00    +0.109 C 
ATOM      7  C   UNL     1      -3.781  -4.230   4.900  0.00  0.00    +0.038 C 
ATOM      8  C   UNL     1      -3.658  -5.090   3.600  0.00  0.00    +0.109 C 
ATOM      9  N   UNL     1      -4.357  -4.571   2.478  0.00  0.00    -0.296 N 
ATOM     10  C   UNL     1      -3.576  -3.751   1.516  0.00  0.00    +0.127 C 
ATOM     11  C   UNL     1      -3.435  -2.388   2.032  0.00  0.00    +0.126 C 
ATOM     12  C   UNL     1      -5.670  -4.811   2.293  0.00  0.00    +0.247 C 
ATOM     13  O   UNL     1      -6.306  -5.398   3.147  0.00  0.00    -0.270 OA
BRANCH  12  14
ATOM     14  C   UNL     1      -6.337  -4.362   1.052  0.00  0.00    +0.040 A 
ATOM     15  C   UNL     1      -5.812  -4.715  -0.192  0.00  0.00    +0.013 A 
ATOM     16  C   UNL     1      -6.439  -4.293  -1.346  0.00  0.00    +0.001 A 
ATOM     17  C   UNL     1      -7.586  -3.522  -1.272  0.00  0.00    +0.000 A 
ATOM     18  C   UNL     1      -8.111  -3.169  -0.041  0.00  0.00    +0.004 A 
ATOM     19  C   UNL     1      -7.496  -3.589   1.120  0.00  0.00    -0.038 A 
ATOM     20  C   UNL     1      -8.073  -3.209   2.460  0.00  0.00    +0.044 C 
ENDBRANCH  12  14
ENDBRANCH   1   3
BRANCH   1  29
ATOM     21  C   UNL     1       0.188  -0.064   3.925  0.00  0.00    -0.005 C 
ATOM     22  C   UNL     1       1.452   0.504   4.562  0.00  0.00    -0.047 A 
ATOM     23  C   UNL     1       1.532   1.765   5.147  0.00  0.00    +0.010 A 
ATOM     24  C   UNL     1       2.699   2.189   5.686  0.00  0.00    +0.045 A 
ATOM     25  S   UNL     1       3.772   0.792   5.388  0.00  0.00    -0.101 S 
ATOM     26  C   UNL     1       2.591  -0.245   4.574  0.00  0.00    -0.010 A 
ATOM     27  C   UNL     1       2.754  -1.621   4.016  0.00  0.00    +0.024 C 
ATOM     28  C   UNL     1       1.347  -2.178   3.739  0.00  0.00    -0.071 C 
ATOM     29  N   UNL     1       0.561  -1.162   3.025  0.00  0.00    +0.395 N 
ATOM     30  H   UNL     1       1.112  -0.794   2.264  0.00  0.00    -0.079 HD
BRANCH  21  37
ATOM     31  C   UNL     1      -2.072   1.320   5.076  0.00  0.00    +0.044 C 
ATOM     32  C   UNL     1      -1.594   1.678   3.693  0.00  0.00    -0.049 A 
ATOM     33  C   UNL     1      -2.233   2.673   2.977  0.00  0.00    +0.003 A 
ATOM     34  C   UNL     1      -1.795   3.001   1.708  0.00  0.00    +0.000 A 
ATOM     35  C   UNL     1      -0.717   2.335   1.155  0.00  0.00    +0.000 A 
ATOM     36  C   UNL     1      -0.077   1.341   1.871  0.00  0.00    +0.002 A 
ATOM     37  C   UNL     1      -0.513   1.016   3.142  0.00  0.00    -0.054 A 
ENDBRANCH  21  37
ENDBRANCH   1  29
TORSDOF 4
