REMARK  Name = ZINC14115351
REMARK  9 active torsions:
REMARK  status: ('A' for Active; 'I' for Inactive)
REMARK    1  A    between atoms: C_1  and  C_2
REMARK    2  A    between atoms: C_2  and  O_3
REMARK    3  A    between atoms: O_3  and  C_4
REMARK    4  A    between atoms: C_7  and  C_10
REMARK    5  A    between atoms: C_16  and  C_18
REMARK    6  A    between atoms: C_18  and  C_19
REMARK    7  A    between atoms: C_19  and  N_20
REMARK    8  A    between atoms: N_20  and  S_21
REMARK    9  A    between atoms: S_21  and  C_24
REMARK                            x       y       z     vdW  Elec       q    Type
REMARK                         _______ _______ _______ _____ _____    ______ ____
ROOT
ATOM      1  C   UNL     1      -1.025  -1.091   3.711  0.00  0.00    +0.113 C 
ENDROOT
BRANCH   1   7
ATOM      2  C   UNL     1      -3.420  -1.275   6.749  0.00  0.00    +0.106 C 
ATOM      3  C   UNL     1      -3.160  -2.245   7.920  0.00  0.00    +0.029 C 
ATOM      4  C   UNL     1      -2.237  -3.319   7.287  0.00  0.00    +0.021 C 
ATOM      5  C   UNL     1      -1.391  -2.465   6.309  0.00  0.00    +0.108 C 
ATOM      6  N   UNL     1      -2.329  -1.458   5.780  0.00  0.00    -0.294 N 
ATOM      7  C   UNL     1      -2.203  -0.808   4.607  0.00  0.00    +0.217 C 
ATOM      8  O   UNL     1      -3.038   0.005   4.271  0.00  0.00    -0.276 OA
BRANCH   2  12
ATOM      9  C   UNL     1      -3.443   2.756   8.168  0.00  0.00    +0.121 A 
ATOM     10  C   UNL     1      -4.639   2.108   7.897  0.00  0.00    +0.046 A 
ATOM     11  C   UNL     1      -4.629   0.805   7.438  0.00  0.00    +0.009 A 
ATOM     12  C   UNL     1      -3.428   0.147   7.249  0.00  0.00    -0.027 A 
ATOM     13  C   UNL     1      -2.235   0.788   7.524  0.00  0.00    +0.009 A 
ATOM     14  C   UNL     1      -2.239   2.093   7.977  0.00  0.00    +0.046 A 
BRANCH   9  15
ATOM     15  O   UNL     1      -3.450   4.038   8.619  0.00  0.00    -0.492 OA
BRANCH  15  17
ATOM     16  C   UNL     1      -2.390   6.074   9.373  0.00  0.00    +0.048 C 
ATOM     17  C   UNL     1      -2.182   4.642   8.877  0.00  0.00    +0.225 C 
ENDBRANCH  15  17
ENDBRANCH   9  15
ENDBRANCH   2  12
ENDBRANCH   1   7
BRANCH   1  18
ATOM     18  C   UNL     1      -1.122  -0.227   2.452  0.00  0.00    +0.115 C 
BRANCH  18  19
ATOM     19  N   UNL     1       0.024  -0.502   1.581  0.00  0.00    -0.189 NA
ATOM     20  H   UNL     1       0.795  -0.976   1.930  0.00  0.00    +0.148 HD
BRANCH  19  21
ATOM     21  S   UNL     1       0.002  -0.004   0.002  0.00  0.00    +0.058 S 
ATOM     22  O   UNL     1      -1.243  -0.424  -0.539  0.00  0.00    -0.153 OA
ATOM     23  O   UNL     1       1.248  -0.390  -0.563  0.00  0.00    -0.153 OA
BRANCH  21  24
ATOM     24  C   UNL     1      -0.022   1.758   0.012  0.00  0.00    +0.106 A 
ATOM     25  C   UNL     1      -1.244   2.428   0.021  0.00  0.00    +0.029 A 
ATOM     26  C   UNL     1      -1.298   3.787   0.033  0.00  0.00    +0.010 A 
ATOM     27  C   UNL     1      -0.105   4.530   0.026  0.00  0.00    -0.018 A 
ATOM     28  C   UNL     1      -0.120   5.936   0.034  0.00  0.00    +0.008 A 
ATOM     29  C   UNL     1       1.055   6.622   0.026  0.00  0.00    +0.001 A 
ATOM     30  C   UNL     1       2.277   5.952   0.012  0.00  0.00    +0.001 A 
ATOM     31  C   UNL     1       2.331   4.592   0.004  0.00  0.00    +0.008 A 
ATOM     32  C   UNL     1       1.138   3.849   0.011  0.00  0.00    -0.016 A 
ATOM     33  C   UNL     1       1.153   2.444   0.004  0.00  0.00    +0.037 A 
ENDBRANCH  21  24
ENDBRANCH  19  21
ENDBRANCH  18  19
ENDBRANCH   1  18
TORSDOF 8
