REMARK  Name = ZINC09441397
REMARK  8 active torsions:
REMARK  status: ('A' for Active; 'I' for Inactive)
REMARK    1  A    between atoms: C_1  and  C_2
REMARK    2  A    between atoms: C_2  and  O_3
REMARK    3  A    between atoms: O_3  and  C_4
REMARK    4  A    between atoms: C_6  and  C_12
REMARK    5  A    between atoms: C_9  and  O_10
REMARK    6  A    between atoms: C_13  and  C_14
REMARK    7  A    between atoms: C_13  and  C_16
REMARK    8  A    between atoms: C_28  and  C_32
REMARK                            x       y       z     vdW  Elec       q    Type
REMARK                         _______ _______ _______ _____ _____    ______ ____
ROOT
ATOM      1  C   UNL     1       1.165   2.132   0.002  0.00  0.00    +0.030 C 
ATOM      2  C   UNL     1      -0.017   1.428   0.010  0.00  0.00    +0.095 C 
ENDROOT
BRANCH   2   3
ATOM      3  C   UNL     1      -1.288   2.120  -0.257  0.00  0.00    +0.152 A 
ATOM      4  N   UNL     1      -2.458   1.409  -0.258  0.00  0.00    -0.306 N 
ATOM      5  H   UNL     1      -2.436   0.455  -0.083  0.00  0.00    +0.170 HD
ATOM      6  C   UNL     1      -3.639   2.010  -0.494  0.00  0.00    +0.260 A 
ATOM      7  O   UNL     1      -4.673   1.365  -0.488  0.00  0.00    -0.267 OA
ATOM      8  C   UNL     1      -3.662   3.419  -0.758  0.00  0.00    +0.075 A 
ATOM      9  C   UNL     1      -4.819   4.268  -1.040  0.00  0.00    -0.023 A 
ATOM     10  C   UNL     1      -4.579   5.578  -1.258  0.00  0.00    -0.004 A 
ATOM     11  S   UNL     1      -2.822   5.756  -1.101  0.00  0.00    -0.073 S 
ATOM     12  C   UNL     1      -2.414   4.066  -0.742  0.00  0.00    +0.116 A 
ATOM     13  N   UNL     1      -1.285   3.417  -0.498  0.00  0.00    -0.221 NA
ATOM     14  C   UNL     1      -5.584   6.646  -1.564  0.00  0.00    +0.046 C 
ATOM     15  C   UNL     1      -6.982   6.105  -1.231  0.00  0.00    -0.009 C 
ATOM     16  C   UNL     1      -7.128   4.710  -1.845  0.00  0.00    +0.008 C 
ATOM     17  C   UNL     1      -6.241   3.716  -1.093  0.00  0.00    +0.037 C 
ATOM     18  C   UNL     1      -8.046   7.037  -1.816  0.00  0.00    +0.008 C 
ENDBRANCH   2   3
BRANCH   1  21
ATOM     19  C   UNL     1       4.717   1.317   0.879  0.00  0.00    +0.163 A 
ATOM     20  C   UNL     1       3.518   1.995   0.788  0.00  0.00    +0.057 A 
ATOM     21  C   UNL     1       2.443   1.421   0.097  0.00  0.00    -0.019 A 
ATOM     22  C   UNL     1       2.595   0.165  -0.508  0.00  0.00    +0.027 A 
ATOM     23  C   UNL     1       3.797  -0.501  -0.417  0.00  0.00    +0.063 A 
ATOM     24  C   UNL     1       4.860   0.068   0.274  0.00  0.00    +0.173 A 
ATOM     25 BR   UNL     1       4.001  -2.195  -1.233  0.00  0.00    -0.046 Br
BRANCH  24  26
ATOM     26  O   UNL     1       6.043  -0.594   0.360  0.00  0.00    -0.503 OA
ATOM     27  H   UNL     1       6.659  -0.395  -0.358  0.00  0.00    +0.292 HD
ENDBRANCH  24  26
BRANCH  19  28
ATOM     28  O   UNL     1       5.761   1.869   1.553  0.00  0.00    -0.489 OA
BRANCH  28  30
ATOM     29  C   UNL     1       6.821   3.605   2.857  0.00  0.00    +0.048 C 
ATOM     30  C   UNL     1       5.544   3.150   2.148  0.00  0.00    +0.226 C 
ENDBRANCH  28  30
ENDBRANCH  19  28
ENDBRANCH   1  21
BRANCH   2  31
ATOM     31  C   UNL     1      -0.011   0.020   0.273  0.00  0.00    +0.103 C 
ATOM     32  N   UNL     1      -0.005  -1.097   0.481  0.00  0.00    -0.191 NA
ENDBRANCH   2  31
TORSDOF 6
