REMARK  Name = ZINC20036304
REMARK  6 active torsions:
REMARK  status: ('A' for Active; 'I' for Inactive)
REMARK    1  A    between atoms: C_1  and  C_2
REMARK    2  A    between atoms: C_2  and  O_3
REMARK    3  A    between atoms: O_3  and  C_4
REMARK    4  A    between atoms: C_13  and  C_14
REMARK    5  A    between atoms: N_18  and  C_22
REMARK    6  A    between atoms: C_22  and  C_23
REMARK                            x       y       z     vdW  Elec       q    Type
REMARK                         _______ _______ _______ _____ _____    ______ ____
ROOT
ATOM      1  C   UNL     1       3.642   2.248  -0.021  0.00  0.00    +0.040 C 
ATOM      2  C   UNL     1       3.805   3.257  -0.920  0.00  0.00    +0.098 C 
ATOM      3  C   UNL     1       2.857   3.695  -1.951  0.00  0.00    +0.269 C 
ATOM      4  O   UNL     1       1.756   3.227  -2.177  0.00  0.00    -0.268 OA
ATOM      5  N   UNL     1       3.447   4.721  -2.595  0.00  0.00    -0.216 N 
ATOM      6  C   UNL     1       4.662   4.950  -2.070  0.00  0.00    +0.313 C 
ATOM      7  O   UNL     1       5.427   5.813  -2.455  0.00  0.00    -0.252 OA
ATOM      8  N   UNL     1       4.919   4.096  -1.064  0.00  0.00    -0.265 N 
ATOM      9  H   UNL     1       5.790   3.973  -0.403  0.00  0.00    +0.157 HD
ENDROOT
BRANCH   1  19
ATOM     10  C   UNL     1       1.158   2.106   0.002  0.00  0.00    +0.128 A 
ATOM     11  C   UNL     1      -0.016   1.355   0.009  0.00  0.00    +0.047 A 
ATOM     12  C   UNL     1       0.002  -0.004   0.002  0.00  0.00    +0.012 A 
ATOM     13  C   UNL     1       1.220  -0.709  -0.014  0.00  0.00    -0.017 A 
ATOM     14  C   UNL     1       1.248  -2.114  -0.022  0.00  0.00    +0.008 A 
ATOM     15  C   UNL     1       2.444  -2.764  -0.036  0.00  0.00    +0.001 A 
ATOM     16  C   UNL     1       3.644  -2.057  -0.043  0.00  0.00    +0.001 A 
ATOM     17  C   UNL     1       3.652  -0.693  -0.037  0.00  0.00    +0.009 A 
ATOM     18  C   UNL     1       2.441   0.006  -0.022  0.00  0.00    -0.007 A 
ATOM     19  C   UNL     1       2.404   1.469  -0.013  0.00  0.00    +0.026 A 
BRANCH  10  20
ATOM     20  O   UNL     1       1.093   3.461   0.010  0.00  0.00    -0.492 OA
BRANCH  20  22
ATOM     21  C   UNL     1      -0.083   5.572   0.032  0.00  0.00    +0.048 C 
ATOM     22  C   UNL     1      -0.210   4.047   0.025  0.00  0.00    +0.226 C 
ENDBRANCH  20  22
ENDBRANCH  10  20
ENDBRANCH   1  19
BRANCH   5  23
ATOM     23  C   UNL     1       2.856   5.471  -3.706  0.00  0.00    +0.156 C 
BRANCH  23  24
ATOM     24  C   UNL     1       3.224   4.811  -5.010  0.00  0.00    +0.006 A 
ATOM     25  C   UNL     1       4.251   5.325  -5.779  0.00  0.00    +0.008 A 
ATOM     26  C   UNL     1       4.593   4.717  -6.972  0.00  0.00    +0.000 A 
ATOM     27  C   UNL     1       3.901   3.600  -7.403  0.00  0.00    +0.003 A 
ATOM     28  C   UNL     1       2.871   3.088  -6.638  0.00  0.00    +0.038 A 
ATOM     29  C   UNL     1       2.531   3.693  -5.440  0.00  0.00    +0.128 A 
ATOM     30  F   UNL     1       1.524   3.192  -4.692  0.00  0.00    -0.205 F 
ENDBRANCH  23  24
ENDBRANCH   5  23
TORSDOF 5
