REMARK  Name = ZINC20706366
REMARK  6 active torsions:
REMARK  status: ('A' for Active; 'I' for Inactive)
REMARK    1  A    between atoms: C_4  and  C_10
REMARK    2  A    between atoms: C_6  and  N_7
REMARK    3  A    between atoms: C_21  and  S_26
REMARK    4  A    between atoms: S_26  and  N_29
REMARK    5  A    between atoms: N_29  and  C_30
REMARK    6  A    between atoms: C_30  and  C_31
REMARK                            x       y       z     vdW  Elec       q    Type
REMARK                         _______ _______ _______ _____ _____    ______ ____
ROOT
ATOM      1  C   UNL     1      -8.368   0.058   5.096  0.00  0.00    +0.106 C 
ATOM      2  C   UNL     1      -8.732   1.452   4.620  0.00  0.00    +0.029 C 
ATOM      3  C   UNL     1      -9.946   1.581   3.690  0.00  0.00    +0.033 C 
ATOM      4  C   UNL     1      -9.575   2.818   2.869  0.00  0.00    -0.030 C 
ATOM      5  C   UNL     1      -8.256   2.959   2.832  0.00  0.00    -0.023 C 
ATOM      6  C   UNL     1      -7.637   1.835   3.580  0.00  0.00    +0.049 C 
ATOM      7  C   UNL     1      -6.357   1.989   4.305  0.00  0.00    -0.018 A 
ATOM      8  C   UNL     1      -5.409   2.922   3.943  0.00  0.00    +0.034 A 
ATOM      9  C   UNL     1      -4.217   3.010   4.637  0.00  0.00    +0.106 A 
ATOM     10  C   UNL     1      -3.976   2.168   5.708  0.00  0.00    +0.030 A 
ATOM     11  C   UNL     1      -4.924   1.240   6.086  0.00  0.00    +0.025 A 
ATOM     12  C   UNL     1      -6.124   1.140   5.392  0.00  0.00    +0.031 A 
ATOM     13  N   UNL     1      -7.079   0.203   5.806  0.00  0.00    -0.336 N 
ATOM     14  H   UNL     1      -6.856  -0.431   6.677  0.00  0.00    +0.147 HD
ENDROOT
BRANCH   1  18
ATOM     15  C   UNL     1     -11.362  -1.429   7.757  0.00  0.00    +0.034 A 
ATOM     16  C   UNL     1     -11.483  -1.638   6.396  0.00  0.00    +0.022 A 
ATOM     17  C   UNL     1     -10.517  -1.153   5.533  0.00  0.00    +0.046 A 
ATOM     18  C   UNL     1      -9.424  -0.467   6.034  0.00  0.00    -0.007 A 
ATOM     19  C   UNL     1      -9.304  -0.260   7.395  0.00  0.00    +0.039 A 
ATOM     20  C   UNL     1     -10.273  -0.741   8.257  0.00  0.00    +0.127 A 
ATOM     21 CL   UNL     1     -10.672  -1.408   3.823  0.00  0.00    -0.083 Cl
BRANCH  20  22
ATOM     22  N   UNL     1     -10.143  -0.517   9.714  0.00  0.00    +0.056 N 
ATOM     23  O   UNL     1      -9.184   0.090  10.154  0.00  0.00    -0.126 OA
ATOM     24  O   UNL     1     -10.997  -0.941  10.473  0.00  0.00    -0.126 OA
ENDBRANCH  20  22
ENDBRANCH   1  18
BRANCH   9  25
ATOM     25  S   UNL     1      -3.006   4.199   4.162  0.00  0.00    +0.058 S 
ATOM     26  O   UNL     1      -2.211   4.451   5.313  0.00  0.00    -0.153 OA
ATOM     27  O   UNL     1      -3.699   5.231   3.474  0.00  0.00    -0.153 OA
BRANCH  25  28
ATOM     28  N   UNL     1      -2.015   3.472   3.052  0.00  0.00    -0.187 NA
ATOM     29  H   UNL     1      -1.007   3.156   3.357  0.00  0.00    +0.148 HD
BRANCH  28  30
ATOM     30  C   UNL     1      -2.550   3.059   1.752  0.00  0.00    +0.137 C 
BRANCH  30  31
ATOM     31  C   UNL     1      -1.394   2.771   0.793  0.00  0.00    +0.134 C 
ATOM     32  C   UNL     1      -1.928   2.453  -0.626  0.00  0.00    +0.035 C 
ATOM     33  C   UNL     1      -0.778   1.606  -1.224  0.00  0.00    +0.031 C 
ATOM     34  C   UNL     1      -0.013   1.086   0.008  0.00  0.00    +0.160 C 
ATOM     35  O   UNL     1      -0.705   1.559   1.176  0.00  0.00    -0.375 OA
ENDBRANCH  30  31
ENDBRANCH  28  30
ENDBRANCH  25  28
ENDBRANCH   9  25
TORSDOF 6
