REMARK  Name = ZINC39674208
REMARK  7 active torsions:
REMARK  status: ('A' for Active; 'I' for Inactive)
REMARK    1  A    between atoms: C_1  and  C_2
REMARK    2  A    between atoms: C_4  and  C_9
REMARK    3  A    between atoms: C_5  and  C_8
REMARK    4  A    between atoms: C_9  and  C_11
REMARK    5  A    between atoms: C_9  and  N_12
REMARK    6  A    between atoms: C_13  and  C_15
REMARK    7  A    between atoms: C_26  and  C_28
REMARK                            x       y       z     vdW  Elec       q    Type
REMARK                         _______ _______ _______ _____ _____    ______ ____
ROOT
ATOM      1  C   UNL     1      -3.947   2.923  -1.583  0.00  0.00    +0.100 C 
ATOM      2  C   UNL     1      -3.687   3.837  -0.365  0.00  0.00    +0.121 C 
ATOM      3  N   UNL     1      -4.752   4.864  -0.433  0.00  0.00    -0.296 N 
ATOM      4  C   UNL     1      -5.959   4.116  -0.860  0.00  0.00    +0.115 C 
ATOM      5  C   UNL     1      -5.440   3.109  -1.905  0.00  0.00    -0.004 C 
ATOM      6  C   UNL     1      -5.611   3.672  -3.312  0.00  0.00    -0.010 C 
ATOM      7  C   UNL     1      -7.105   3.795  -3.629  0.00  0.00    -0.082 C 
ATOM      8  N   UNL     1      -7.738   2.474  -3.528  0.00  0.00    +0.379 N 
ATOM      9  C   UNL     1      -7.649   1.980  -2.149  0.00  0.00    -0.082 C 
ATOM     10  C   UNL     1      -6.179   1.781  -1.769  0.00  0.00    -0.010 C 
ATOM     11  C   UNL     1      -4.648   6.181  -0.167  0.00  0.00    +0.247 C 
ATOM     12  O   UNL     1      -5.641   6.883  -0.172  0.00  0.00    -0.270 OA
ATOM     13  H   UNL     1      -8.708   2.547  -3.796  0.00  0.00    -0.086 HD
ATOM     14  H   UNL     1      -7.268   1.830  -4.146  0.00  0.00    -0.086 HD
ENDROOT
BRANCH  11  15
ATOM     15  C   UNL     1      -3.327   6.772   0.131  0.00  0.00    +0.045 A 
ATOM     16  C   UNL     1      -2.508   6.204   1.113  0.00  0.00    +0.014 A 
ATOM     17  C   UNL     1      -1.276   6.752   1.393  0.00  0.00    +0.001 A 
ATOM     18  C   UNL     1      -0.833   7.873   0.706  0.00  0.00    +0.012 A 
ATOM     19  C   UNL     1      -1.631   8.453  -0.272  0.00  0.00    +0.031 A 
ATOM     20  C   UNL     1      -2.887   7.901  -0.572  0.00  0.00    +0.006 A 
ATOM     21  C   UNL     1      -3.517   8.706  -1.649  0.00  0.00    -0.006 A 
ATOM     22  C   UNL     1      -4.739   8.592  -2.297  0.00  0.00    +0.009 A 
ATOM     23  C   UNL     1      -5.087   9.497  -3.288  0.00  0.00    +0.001 A 
ATOM     24  C   UNL     1      -4.223  10.516  -3.638  0.00  0.00    +0.001 A 
ATOM     25  C   UNL     1      -2.998  10.643  -3.001  0.00  0.00    +0.012 A 
ATOM     26  C   UNL     1      -2.639   9.743  -2.006  0.00  0.00    +0.030 A 
ATOM     27  C   UNL     1      -1.432   9.630  -1.152  0.00  0.00    +0.194 C 
ATOM     28  O   UNL     1      -0.458  10.354  -1.179  0.00  0.00    -0.287 OA
ENDBRANCH  11  15
BRANCH   1  30
ATOM     29  N   UNL     1      -3.394   0.594  -2.207  0.00  0.00    -0.309 N 
ATOM     30  C   UNL     1      -3.661   1.486  -1.232  0.00  0.00    +0.219 C 
ATOM     31  O   UNL     1      -3.671   1.131  -0.072  0.00  0.00    -0.275 OA
ATOM     32  H   UNL     1      -3.386   0.877  -3.135  0.00  0.00    +0.149 HD
BRANCH  29  33
ATOM     33  C   UNL     1      -3.116  -0.803  -1.865  0.00  0.00    +0.100 C 
ATOM     34  C   UNL     1      -4.428  -1.590  -1.827  0.00  0.00    +0.033 C 
BRANCH  33  37
ATOM     35  C   UNL     1      -2.575  -0.128  -5.031  0.00  0.00    +0.039 C 
ATOM     36  C   UNL     1      -2.431  -1.514  -4.399  0.00  0.00    +0.154 C 
ATOM     37  C   UNL     1      -2.201  -1.401  -2.903  0.00  0.00    -0.001 C 
ATOM     38  C   UNL     1      -1.000  -1.955  -2.720  0.00  0.00    +0.063 C 
ATOM     39  N   UNL     1      -0.484  -2.381  -3.894  0.00  0.00    -0.159 NA
ATOM     40  N   UNL     1      -1.208  -2.180  -4.877  0.00  0.00    -0.180 NA
ATOM     41  C   UNL     1      -0.314  -2.087  -1.385  0.00  0.00    +0.067 C 
ENDBRANCH  33  37
ENDBRANCH  29  33
ENDBRANCH   1  30
TORSDOF 4
