REMARK  Name = ZINC54423733
REMARK  5 active torsions:
REMARK  status: ('A' for Active; 'I' for Inactive)
REMARK    1  A    between atoms: C_1  and  C_2
REMARK    2  A    between atoms: C_2  and  C_3
REMARK    3  A    between atoms: C_2  and  C_4
REMARK    4  A    between atoms: C_5  and  C_11
REMARK    5  A    between atoms: N_7  and  C_9
REMARK                            x       y       z     vdW  Elec       q    Type
REMARK                         _______ _______ _______ _____ _____    ______ ____
ROOT
ATOM      1  C   UNL     1      -1.268  -1.686   2.368  0.00  0.00    +0.194 C 
ATOM      2  N   UNL     1      -1.782  -1.981   1.025  0.00  0.00    -0.321 N 
ATOM      3  C   UNL     1      -1.399  -3.169   0.413  0.00  0.00    +0.041 A 
ATOM      4  C   UNL     1      -1.297  -3.285  -0.962  0.00  0.00    +0.024 A 
ATOM      5  C   UNL     1      -0.907  -4.489  -1.519  0.00  0.00    +0.002 A 
ATOM      6  C   UNL     1      -0.619  -5.578  -0.713  0.00  0.00    +0.001 A 
ATOM      7  C   UNL     1      -0.717  -5.479   0.660  0.00  0.00    +0.015 A 
ATOM      8  C   UNL     1      -1.109  -4.273   1.235  0.00  0.00    +0.058 A 
ATOM      9  C   UNL     1      -1.239  -4.115   2.695  0.00  0.00    +0.247 C 
ATOM     10  O   UNL     1      -1.243  -5.090   3.421  0.00  0.00    -0.270 OA
ATOM     11  N   UNL     1      -1.351  -2.878   3.212  0.00  0.00    -0.289 N 
ATOM     12  H   UNL     1      -2.377  -1.361   0.575  0.00  0.00    +0.148 HD
ATOM     13  H   UNL     1      -1.490  -2.776   4.167  0.00  0.00    +0.151 HD
ENDROOT
BRANCH   1  15
ATOM     14  C   UNL     1       0.716  -0.447   1.257  0.00  0.00    +0.074 A 
ATOM     15  C   UNL     1       0.170  -1.246   2.266  0.00  0.00    +0.050 A 
ATOM     16  C   UNL     1       1.161  -1.554   3.136  0.00  0.00    +0.134 A 
ATOM     17  N   UNL     1       2.294  -0.970   2.692  0.00  0.00    -0.255 N 
ATOM     18  N   UNL     1       1.990  -0.285   1.509  0.00  0.00    -0.174 NA
ATOM     19  C   UNL     1       3.610  -1.043   3.332  0.00  0.00    +0.174 C 
ATOM     20 CL   UNL     1       1.003  -2.526   4.566  0.00  0.00    -0.062 Cl
BRANCH  14  22
ATOM     21  C   UNL     1       0.007   1.652   0.144  0.00  0.00    +0.014 C 
ATOM     22  C   UNL     1      -0.032   0.124   0.080  0.00  0.00    +0.034 C 
ATOM     23  C   UNL     1       0.624  -0.349  -1.219  0.00  0.00    +0.014 C 
ENDBRANCH  14  22
ENDBRANCH   1  15
TORSDOF 2
