REMARK  Name = ZINC11904092
REMARK  7 active torsions:
REMARK  status: ('A' for Active; 'I' for Inactive)
REMARK    1  A    between atoms: C_1  and  C_2
REMARK    2  A    between atoms: C_6  and  N_9
REMARK    3  A    between atoms: C_7  and  C_8
REMARK    4  A    between atoms: N_9  and  S_10
REMARK    5  A    between atoms: S_10  and  C_13
REMARK    6  A    between atoms: C_16  and  N_19
REMARK    7  A    between atoms: C_22  and  C_28
REMARK                            x       y       z     vdW  Elec       q    Type
REMARK                         _______ _______ _______ _____ _____    ______ ____
ROOT
ATOM      1  C   UNL     1      -3.659   4.091  -0.622  0.00  0.00    +0.109 A 
ATOM      2  C   UNL     1      -3.546   5.019   0.396  0.00  0.00    +0.030 A 
ATOM      3  C   UNL     1      -3.133   6.307   0.115  0.00  0.00    +0.027 A 
ATOM      4  C   UNL     1      -2.842   6.672  -1.193  0.00  0.00    +0.059 A 
ATOM      5  C   UNL     1      -2.962   5.738  -2.214  0.00  0.00    +0.027 A 
ATOM      6  C   UNL     1      -3.371   4.450  -1.925  0.00  0.00    +0.030 A 
ENDROOT
BRANCH   4   7
ATOM      7  N   UNL     1      -2.428   7.977  -1.481  0.00  0.00    -0.144 N 
ATOM      8  C   UNL     1      -1.683   8.354  -2.531  0.00  0.00    +0.243 C 
ATOM      9  O   UNL     1      -1.325   7.546  -3.361  0.00  0.00    -0.273 OA
ATOM     10  C   UNL     1      -1.307   9.800  -2.658  0.00  0.00    +0.097 C 
ATOM     11  C   UNL     1      -2.263  10.643  -1.772  0.00  0.00    +0.201 C 
ATOM     12  S   UNL     1      -2.769   9.342  -0.574  0.00  0.00    +0.053 S 
ATOM     13  O   UNL     1      -4.178   9.340  -0.391  0.00  0.00    -0.155 OA
ATOM     14  O   UNL     1      -1.880   9.298   0.534  0.00  0.00    -0.155 OA
ATOM     15  C   UNL     1       0.136   9.994  -2.187  0.00  0.00    +0.019 C 
ENDBRANCH   4   7
BRANCH   1  16
ATOM     16  S   UNL     1      -4.180   2.447  -0.258  0.00  0.00    +0.072 S 
ATOM     17  O   UNL     1      -4.737   1.923  -1.456  0.00  0.00    -0.150 OA
ATOM     18  O   UNL     1      -4.913   2.513   0.957  0.00  0.00    -0.150 OA
BRANCH  16  19
ATOM     19  N   UNL     1      -2.818   1.560   0.057  0.00  0.00    -0.216 N 
ATOM     20  H   UNL     1      -2.601   0.792  -0.494  0.00  0.00    +0.174 HD
BRANCH  19  26
ATOM     21  C   UNL     1       1.710   1.940   1.929  0.00  0.00    +0.044 C 
ATOM     22  C   UNL     1       0.218   2.114   2.052  0.00  0.00    -0.046 A 
ATOM     23  C   UNL     1      -0.323   2.633   3.214  0.00  0.00    +0.004 A 
ATOM     24  C   UNL     1      -1.692   2.794   3.331  0.00  0.00    +0.002 A 
ATOM     25  C   UNL     1      -2.522   2.436   2.287  0.00  0.00    +0.025 A 
ATOM     26  C   UNL     1      -1.981   1.919   1.117  0.00  0.00    +0.051 A 
ATOM     27  C   UNL     1      -0.606   1.753   1.005  0.00  0.00    -0.025 A 
ATOM     28  C   UNL     1      -0.015   1.187  -0.261  0.00  0.00    +0.046 C 
ENDBRANCH  19  26
ENDBRANCH  16  19
ENDBRANCH   1  16
TORSDOF 4
