REMARK  Name = ZINC01037382
REMARK  8 active torsions:
REMARK  status: ('A' for Active; 'I' for Inactive)
REMARK    1  A    between atoms: C_1  and  C_2
REMARK    2  A    between atoms: C_5  and  S_8
REMARK    3  A    between atoms: S_8  and  C_11
REMARK    4  A    between atoms: C_11  and  C_28
REMARK    5  A    between atoms: C_12  and  N_13
REMARK    6  A    between atoms: N_13  and  C_14
REMARK    7  A    between atoms: C_16  and  C_24
REMARK    8  A    between atoms: C_18  and  C_20
REMARK                            x       y       z     vdW  Elec       q    Type
REMARK                         _______ _______ _______ _____ _____    ______ ____
ROOT
ATOM      1  N   UNL     1       3.580  -6.088   1.007  0.00  0.00    -0.318 N 
ATOM      2  H   UNL     1       4.142  -5.880   0.244  0.00  0.00    +0.152 HD
ENDROOT
BRANCH   1   3
ATOM      3  C   UNL     1       4.111  -6.782   2.097  0.00  0.00    +0.032 A 
ATOM      4  C   UNL     1       3.307  -7.085   3.189  0.00  0.00    +0.035 A 
ATOM      5  C   UNL     1       3.835  -7.771   4.264  0.00  0.00    +0.057 A 
ATOM      6  C   UNL     1       5.163  -8.156   4.256  0.00  0.00    +0.024 A 
ATOM      7  C   UNL     1       5.967  -7.857   3.171  0.00  0.00    +0.057 A 
ATOM      8  C   UNL     1       5.444  -7.176   2.089  0.00  0.00    +0.035 A 
BRANCH   7   9
ATOM      9  C   UNL     1       7.413  -8.279   3.166  0.00  0.00    +0.417 C 
ATOM     10  F   UNL     1       7.525  -9.554   2.600  0.00  0.00    -0.166 F 
ATOM     11  F   UNL     1       8.163  -7.368   2.414  0.00  0.00    -0.166 F 
ATOM     12  F   UNL     1       7.895  -8.308   4.479  0.00  0.00    -0.166 F 
ENDBRANCH   7   9
BRANCH   5  13
ATOM     13  C   UNL     1       2.964  -8.100   5.449  0.00  0.00    +0.417 C 
ATOM     14  F   UNL     1       1.672  -7.611   5.228  0.00  0.00    -0.166 F 
ATOM     15  F   UNL     1       2.914  -9.487   5.621  0.00  0.00    -0.166 F 
ATOM     16  F   UNL     1       3.496  -7.506   6.599  0.00  0.00    -0.166 F 
ENDBRANCH   5  13
ENDBRANCH   1   3
BRANCH   1  18
ATOM     17  C   UNL     1       1.752  -5.029  -0.035  0.00  0.00    +0.183 C 
ATOM     18  C   UNL     1       2.265  -5.699   1.016  0.00  0.00    +0.111 C 
BRANCH  17  19
ATOM     19  S   UNL     1       0.063  -4.530  -0.023  0.00  0.00    +0.036 S 
ATOM     20  O   UNL     1      -0.476  -4.950   1.223  0.00  0.00    -0.164 OA
ATOM     21  O   UNL     1      -0.490  -4.937  -1.267  0.00  0.00    -0.164 OA
BRANCH  19  26
ATOM     22  C   UNL     1      -0.018   1.503   0.010  0.00  0.00    +0.044 C 
ATOM     23  C   UNL     1       0.002  -0.004   0.002  0.00  0.00    -0.050 A 
ATOM     24  C   UNL     1       0.006  -0.689  -1.199  0.00  0.00    +0.005 A 
ATOM     25  C   UNL     1       0.025  -2.071  -1.206  0.00  0.00    +0.027 A 
ATOM     26  C   UNL     1       0.040  -2.768  -0.013  0.00  0.00    +0.094 A 
ATOM     27  C   UNL     1       0.037  -2.084   1.188  0.00  0.00    +0.027 A 
ATOM     28  C   UNL     1       0.023  -0.702   1.195  0.00  0.00    +0.005 A 
ENDBRANCH  19  26
ENDBRANCH  17  19
BRANCH  17  29
ATOM     29  C   UNL     1       2.581  -4.723  -1.162  0.00  0.00    +0.120 C 
ATOM     30  N   UNL     1       3.239  -4.481  -2.056  0.00  0.00    -0.189 NA
ENDBRANCH  17  29
ENDBRANCH   1  18
TORSDOF 7
