REMARK  Name = ZINC03233551
REMARK  4 active torsions:
REMARK  status: ('A' for Active; 'I' for Inactive)
REMARK    1  A    between atoms: C_1  and  C_2
REMARK    2  A    between atoms: C_3  and  C_15
REMARK    3  A    between atoms: N_5  and  C_7
REMARK    4  A    between atoms: N_16  and  C_17
REMARK                            x       y       z     vdW  Elec       q    Type
REMARK                         _______ _______ _______ _____ _____    ______ ____
ROOT
ATOM      1  C   UNL     1       0.219   1.496  -0.004  0.00  0.00    +0.068 C 
ATOM      2  C   UNL     1       0.110  -0.007  -0.005  0.00  0.00    +0.070 A 
ATOM      3  C   UNL     1      -0.085  -0.825  -1.142  0.00  0.00    +0.053 A 
ATOM      4  C   UNL     1      -0.127  -2.136  -0.699  0.00  0.00    +0.142 A 
ATOM      5  N   UNL     1       0.035  -2.112   0.639  0.00  0.00    -0.219 N 
ATOM      6  N   UNL     1       0.184  -0.781   1.044  0.00  0.00    -0.170 NA
ATOM      7 CL   UNL     1      -0.346  -3.548  -1.684  0.00  0.00    -0.061 Cl
ENDROOT
BRANCH   5   8
ATOM      8  C   UNL     1       0.054  -3.231   1.482  0.00  0.00    +0.085 A 
ATOM      9  C   UNL     1       0.845  -4.328   1.165  0.00  0.00    +0.029 A 
ATOM     10  C   UNL     1       0.862  -5.430   1.997  0.00  0.00    +0.002 A 
ATOM     11  C   UNL     1       0.093  -5.442   3.147  0.00  0.00    +0.002 A 
ATOM     12  C   UNL     1      -0.696  -4.353   3.466  0.00  0.00    +0.022 A 
ATOM     13  C   UNL     1      -0.713  -3.244   2.641  0.00  0.00    +0.066 A 
ATOM     14 CL   UNL     1      -1.697  -1.873   3.047  0.00  0.00    -0.081 Cl
ENDBRANCH   5   8
BRANCH   3  15
ATOM     15  C   UNL     1      -0.218  -0.369  -2.533  0.00  0.00    +0.124 C 
ATOM     16  N   UNL     1      -0.395  -1.238  -3.490  0.00  0.00    -0.255 NA
BRANCH  16  17
ATOM     17  C   UNL     1      -0.519  -0.813  -4.786  0.00  0.00    +0.066 A 
ATOM     18  C   UNL     1      -1.337   0.281  -5.088  0.00  0.00    +0.030 A 
ATOM     19  C   UNL     1      -1.463   0.710  -6.391  0.00  0.00    +0.030 A 
ATOM     20  C   UNL     1      -0.779   0.058  -7.408  0.00  0.00    +0.067 A 
ATOM     21  C   UNL     1       0.040  -1.036  -7.112  0.00  0.00    +0.069 A 
ATOM     22  C   UNL     1       0.174  -1.467  -5.804  0.00  0.00    +0.055 A 
ATOM     23  N   UNL     1       0.583  -1.470  -8.320  0.00  0.00    -0.306 N 
ATOM     24  H   UNL     1       1.193  -2.215  -8.433  0.00  0.00    +0.170 HD
ATOM     25  C   UNL     1       0.117  -0.677  -9.304  0.00  0.00    +0.325 A 
ATOM     26  O   UNL     1       0.397  -0.786 -10.483  0.00  0.00    -0.247 OA
ATOM     27  N   UNL     1      -0.707   0.253  -8.786  0.00  0.00    -0.306 N 
ATOM     28  H   UNL     1      -1.171   0.942  -9.286  0.00  0.00    +0.170 HD
ENDBRANCH  16  17
ENDBRANCH   3  15
TORSDOF 3
