REMARK  Name = ZINC35453427
REMARK  5 active torsions:
REMARK  status: ('A' for Active; 'I' for Inactive)
REMARK    1  A    between atoms: C_1  and  C_2
REMARK    2  A    between atoms: C_2  and  C_3
REMARK    3  A    between atoms: C_9  and  O_11
REMARK    4  A    between atoms: O_11  and  C_12
REMARK    5  A    between atoms: C_17  and  N_18
REMARK                            x       y       z     vdW  Elec       q    Type
REMARK                         _______ _______ _______ _____ _____    ______ ____
ROOT
ATOM      1  C   UNL     1      -1.039  -3.669  -0.925  0.00  0.00    +0.143 A 
ATOM      2  C   UNL     1      -0.050  -4.454  -0.355  0.00  0.00    +0.074 A 
ATOM      3  C   UNL     1      -0.355  -5.726   0.102  0.00  0.00    +0.079 A 
ATOM      4  C   UNL     1      -1.655  -6.216  -0.012  0.00  0.00    +0.144 A 
ATOM      5  C   UNL     1      -2.643  -5.433  -0.581  0.00  0.00    +0.074 A 
ATOM      6  C   UNL     1      -2.339  -4.156  -1.033  0.00  0.00    +0.070 A 
ATOM      7  O   UNL     1      -1.939  -7.469   0.439  0.00  0.00    -0.481 OA
ATOM      8  C   UNL     1      -0.898  -8.443   0.329  0.00  0.00    +0.325 C 
ATOM      9  C   UNL     1       0.399  -7.857   0.826  0.00  0.00    +0.255 C 
ATOM     10  O   UNL     1       1.228  -8.570   1.351  0.00  0.00    -0.272 OA
ATOM     11  N   UNL     1       0.635  -6.535   0.683  0.00  0.00    -0.280 N 
ATOM     12  H   UNL     1       1.476  -6.150   0.976  0.00  0.00    +0.155 HD
ENDROOT
BRANCH   6  13
ATOM     13  N   UNL     1      -3.341  -3.359  -1.604  0.00  0.00    -0.355 N 
ATOM     14  H   UNL     1      -3.128  -2.468  -1.924  0.00  0.00    +0.142 HD
ATOM     15  H   UNL     1      -4.246  -3.698  -1.679  0.00  0.00    +0.142 HD
ENDBRANCH   6  13
BRANCH   1  16
ATOM     16  O   UNL     1      -0.742  -2.420  -1.375  0.00  0.00    -0.487 OA
BRANCH  16  22
ATOM     17  C   UNL     1       0.566  -0.406  -1.104  0.00  0.00    +0.029 C 
ATOM     18  C   UNL     1       1.979   0.113  -0.830  0.00  0.00    +0.007 C 
ATOM     19  C   UNL     1       2.925  -0.379  -1.928  0.00  0.00    +0.001 C 
ATOM     20  C   UNL     1       2.937  -1.909  -1.944  0.00  0.00    +0.004 C 
ATOM     21  C   UNL     1       1.523  -2.427  -2.217  0.00  0.00    +0.045 C 
ATOM     22  C   UNL     1       0.578  -1.935  -1.119  0.00  0.00    +0.177 C 
BRANCH  17  24
ATOM     23  C   UNL     1      -0.488   1.611  -0.071  0.00  0.00    +0.004 C 
ATOM     24  C   UNL     1      -0.379   0.086  -0.006  0.00  0.00    +0.004 C 
ENDBRANCH  17  24
ENDBRANCH  16  22
ENDBRANCH   1  16
TORSDOF 4
