REMARK  Name = ZINC35642478
REMARK  11 active torsions:
REMARK  status: ('A' for Active; 'I' for Inactive)
REMARK    1  A    between atoms: C_1  and  C_2
REMARK    2  A    between atoms: C_2  and  O_3
REMARK    3  A    between atoms: O_3  and  C_4
REMARK    4  A    between atoms: C_4  and  C_6
REMARK    5  A    between atoms: C_7  and  C_22
REMARK    6  A    between atoms: N_8  and  C_21
REMARK    7  A    between atoms: C_12  and  C_14
REMARK    8  A    between atoms: C_17  and  C_20
REMARK    9  A    between atoms: C_22  and  N_23
REMARK   10  A    between atoms: C_27  and  C_30
REMARK   11  A    between atoms: C_31  and  C_33
REMARK                            x       y       z     vdW  Elec       q    Type
REMARK                         _______ _______ _______ _____ _____    ______ ____
ROOT
ATOM      1  C   UNL     1       0.937  -2.076   0.104  0.00  0.00    +0.080 C 
ATOM      2  C   UNL     1       1.306  -3.243  -0.467  0.00  0.00    +0.041 C 
ATOM      3  N   UNL     1       2.079  -3.264  -1.593  0.00  0.00    -0.260 N 
ATOM      4  C   UNL     1       2.524  -2.161  -2.208  0.00  0.00    +0.307 C 
ATOM      5  O   UNL     1       3.208  -2.280  -3.206  0.00  0.00    -0.252 OA
ATOM      6  N   UNL     1       2.239  -0.923  -1.757  0.00  0.00    -0.288 N 
ATOM      7  C   UNL     1       1.405  -0.792  -0.550  0.00  0.00    +0.144 C 
ATOM      8  C   UNL     1       2.442  -4.565  -2.158  0.00  0.00    +0.139 C 
ATOM      9  H   UNL     1       2.572  -0.138  -2.218  0.00  0.00    +0.151 HD
ENDROOT
BRANCH   7  10
ATOM     10  C   UNL     1       2.192  -0.011   0.470  0.00  0.00    -0.022 A 
ATOM     11  C   UNL     1       3.511  -0.338   0.724  0.00  0.00    +0.006 A 
ATOM     12  C   UNL     1       4.233   0.379   1.660  0.00  0.00    +0.004 A 
ATOM     13  C   UNL     1       3.636   1.423   2.342  0.00  0.00    -0.050 A 
ATOM     14  C   UNL     1       2.317   1.750   2.087  0.00  0.00    +0.004 A 
ATOM     15  C   UNL     1       1.596   1.036   1.148  0.00  0.00    +0.006 A 
ATOM     16  C   UNL     1       4.422   2.203   3.363  0.00  0.00    +0.044 C 
ENDBRANCH   7  10
BRANCH   1  17
ATOM     17  C   UNL     1       0.136  -2.054   1.269  0.00  0.00    +0.339 C 
ATOM     18  O   UNL     1      -1.049  -1.788   1.188  0.00  0.00    -0.245 OA
BRANCH  17  19
ATOM     19  O   UNL     1       0.685  -2.326   2.471  0.00  0.00    -0.462 OA
BRANCH  19  21
ATOM     20  C   UNL     1       0.614  -2.618   4.869  0.00  0.00    +0.048 C 
ATOM     21  C   UNL     1      -0.182  -2.285   3.606  0.00  0.00    +0.229 C 
ENDBRANCH  19  21
ENDBRANCH  17  19
ENDBRANCH   1  17
BRANCH   2  22
ATOM     22  C   UNL     1       0.858  -4.544   0.148  0.00  0.00    +0.136 C 
BRANCH  22  23
ATOM     23  N   UNL     1      -0.028  -5.249  -0.788  0.00  0.00    -0.294 NA
ATOM     24  C   UNL     1      -1.276  -4.503  -0.994  0.00  0.00    +0.104 C 
ATOM     25  C   UNL     1      -2.090  -5.173  -2.106  0.00  0.00    +0.124 C 
ATOM     26  N   UNL     1      -2.263  -6.594  -1.768  0.00  0.00    -0.292 N 
ATOM     27  C   UNL     1      -1.068  -7.376  -1.415  0.00  0.00    +0.087 C 
ATOM     28  C   UNL     1      -0.294  -6.619  -0.329  0.00  0.00    +0.107 C 
ATOM     29  C   UNL     1      -1.489  -8.749  -0.888  0.00  0.00    +0.029 C 
ATOM     30  C   UNL     1      -3.483  -7.165  -1.782  0.00  0.00    +0.248 C 
ATOM     31  O   UNL     1      -3.619  -8.318  -1.421  0.00  0.00    -0.270 OA
BRANCH  30  32
ATOM     32  C   UNL     1      -4.657  -6.389  -2.235  0.00  0.00    +0.055 A 
ATOM     33  C   UNL     1      -4.504  -5.378  -3.185  0.00  0.00    +0.014 A 
ATOM     34  C   UNL     1      -5.603  -4.658  -3.603  0.00  0.00    +0.001 A 
ATOM     35  C   UNL     1      -6.856  -4.936  -3.084  0.00  0.00    +0.001 A 
ATOM     36  C   UNL     1      -7.016  -5.936  -2.143  0.00  0.00    +0.021 A 
ATOM     37  C   UNL     1      -5.924  -6.669  -1.718  0.00  0.00    +0.053 A 
ATOM     38 CL   UNL     1      -6.127  -7.929  -0.542  0.00  0.00    -0.083 Cl
ENDBRANCH  30  32
ENDBRANCH  22  23
ENDBRANCH   2  22
TORSDOF 7
