REMARK  Name = ZINC39227187
REMARK  8 active torsions:
REMARK  status: ('A' for Active; 'I' for Inactive)
REMARK    1  A    between atoms: C_1  and  C_2
REMARK    2  A    between atoms: C_3  and  O_30
REMARK    3  A    between atoms: N_12  and  C_15
REMARK    4  A    between atoms: C_15  and  C_16
REMARK    5  A    between atoms: N_18  and  C_19
REMARK    6  A    between atoms: C_23  and  C_25
REMARK    7  A    between atoms: O_30  and  C_31
REMARK    8  A    between atoms: C_31  and  C_32
REMARK                            x       y       z     vdW  Elec       q    Type
REMARK                         _______ _______ _______ _____ _____    ______ ____
ROOT
ATOM      1  C   UNL     1      -0.120   2.010  -0.256  0.00  0.00    +0.051 C 
ATOM      2  C   UNL     1       0.095   0.519  -0.285  0.00  0.00    +0.034 A 
ATOM      3  C   UNL     1       0.103  -0.159  -1.496  0.00  0.00    +0.127 A 
ATOM      4  C   UNL     1       0.301  -1.536  -1.536  0.00  0.00    +0.047 A 
ATOM      5  C   UNL     1       0.485  -2.239  -0.379  0.00  0.00    +0.018 A 
ATOM      6  C   UNL     1       0.476  -1.571   0.849  0.00  0.00    +0.060 A 
ATOM      7  C   UNL     1       0.291  -0.177   0.896  0.00  0.00    +0.138 A 
ATOM      8  O   UNL     1       0.304   0.484   2.077  0.00  0.00    -0.484 OA
ATOM      9  C   UNL     1       0.027  -0.242   3.273  0.00  0.00    +0.114 C 
ATOM     10  C   UNL     1      -1.436  -0.691   3.279  0.00  0.00    +0.030 C 
ATOM     11  C   UNL     1      -2.342   0.542   3.295  0.00  0.00    -0.074 C 
ATOM     12  N   UNL     1      -2.066   1.341   4.494  0.00  0.00    +0.386 N 
ATOM     13  C   UNL     1      -0.685   1.835   4.458  0.00  0.00    -0.074 C 
ATOM     14  C   UNL     1       0.285   0.651   4.489  0.00  0.00    +0.030 C 
ATOM     15  C   UNL     1       0.938  -1.475   3.348  0.00  0.00    +0.127 C 
ATOM     16  C   UNL     1       0.662  -2.309   2.107  0.00  0.00    +0.170 C 
ATOM     17  O   UNL     1       0.612  -3.521   2.149  0.00  0.00    -0.292 OA
ATOM     18  H   UNL     1      -2.196   0.769   5.315  0.00  0.00    -0.081 HD
ENDROOT
BRANCH  12  19
ATOM     19  C   UNL     1      -2.991   2.481   4.544  0.00  0.00    +0.019 C 
BRANCH  19  20
ATOM     20  C   UNL     1      -2.793   3.233   5.835  0.00  0.00    +0.201 C 
ATOM     21  O   UNL     1      -1.962   2.856   6.635  0.00  0.00    -0.278 OA
ATOM     22  N   UNL     1      -3.538   4.324   6.101  0.00  0.00    -0.287 N 
ATOM     23  H   UNL     1      -4.147   4.670   5.431  0.00  0.00    +0.155 HD
BRANCH  22  24
ATOM     24  C   UNL     1      -3.432   4.958   7.344  0.00  0.00    +0.035 A 
ATOM     25  C   UNL     1      -3.590   6.335   7.438  0.00  0.00    +0.023 A 
ATOM     26  C   UNL     1      -3.486   6.966   8.663  0.00  0.00    +0.003 A 
ATOM     27  C   UNL     1      -3.226   6.232   9.803  0.00  0.00    +0.019 A 
ATOM     28  C   UNL     1      -3.067   4.848   9.720  0.00  0.00    +0.054 A 
ATOM     29  C   UNL     1      -3.176   4.210   8.483  0.00  0.00    +0.042 A 
BRANCH  28  30
ATOM     30  C   UNL     1      -2.797   4.083  10.900  0.00  0.00    +0.099 C 
ATOM     31  N   UNL     1      -2.584   3.477  11.837  0.00  0.00    -0.191 NA
ENDBRANCH  28  30
ENDBRANCH  22  24
ENDBRANCH  19  20
ENDBRANCH  12  19
BRANCH   3  32
ATOM     32  O   UNL     1      -0.084   0.528  -2.652  0.00  0.00    -0.487 OA
BRANCH  32  33
ATOM     33  C   UNL     1      -0.064  -0.227  -3.865  0.00  0.00    +0.264 C 
BRANCH  33  34
ATOM     34  C   UNL     1      -0.287   0.696  -5.035  0.00  0.00    -0.010 A 
ATOM     35  C   UNL     1      -1.571   0.951  -5.479  0.00  0.00    +0.007 A 
ATOM     36  C   UNL     1      -1.776   1.798  -6.552  0.00  0.00    +0.000 A 
ATOM     37  C   UNL     1      -0.696   2.391  -7.181  0.00  0.00    +0.000 A 
ATOM     38  C   UNL     1       0.588   2.136  -6.736  0.00  0.00    +0.000 A 
ATOM     39  C   UNL     1       0.792   1.292  -5.660  0.00  0.00    +0.007 A 
ENDBRANCH  33  34
ENDBRANCH  32  33
ENDBRANCH   3  32
TORSDOF 7
