REMARK  Name = ZINC63291434
REMARK  13 active torsions:
REMARK  status: ('A' for Active; 'I' for Inactive)
REMARK    1  A    between atoms: C_1  and  C_2
REMARK    2  A    between atoms: C_4  and  C_17
REMARK    3  A    between atoms: C_7  and  O_12
REMARK    4  A    between atoms: O_12  and  C_13
REMARK    5  A    between atoms: C_17  and  C_18
REMARK    6  A    between atoms: C_18  and  N_19
REMARK    7  A    between atoms: N_19  and  S_20
REMARK    8  A    between atoms: S_20  and  C_23
REMARK    9  A    between atoms: C_25  and  C_31
REMARK   10  A    between atoms: C_28  and  O_29
REMARK   11  A    between atoms: O_29  and  C_30
REMARK   12  A    between atoms: C_31  and  C_32
REMARK   13  A    between atoms: C_31  and  C_33
REMARK                            x       y       z     vdW  Elec       q    Type
REMARK                         _______ _______ _______ _____ _____    ______ ____
ROOT
ATOM      1  C   UNL     1      -4.449   0.301   0.496  0.00  0.00    +0.050 C 
ENDROOT
BRANCH   1   4
ATOM      2  C   UNL     1      -4.689   1.383   3.542  0.00  0.00    +0.035 C 
ATOM      3  C   UNL     1      -3.473   1.619   2.643  0.00  0.00    +0.103 C 
ATOM      4  C   UNL     1      -3.414   0.566   1.559  0.00  0.00    -0.037 C 
ATOM      5  C   UNL     1      -2.246  -0.091   1.738  0.00  0.00    +0.003 A 
ATOM      6  C   UNL     1      -1.611  -1.204   1.024  0.00  0.00    +0.056 A 
ATOM      7  C   UNL     1      -0.406  -1.664   1.442  0.00  0.00    +0.129 A 
ATOM      8  C   UNL     1       0.268  -1.109   2.544  0.00  0.00    +0.048 A 
ATOM      9  C   UNL     1      -0.236  -0.083   3.263  0.00  0.00    +0.029 A 
ATOM     10  C   UNL     1      -1.535   0.492   2.899  0.00  0.00    +0.043 A 
ATOM     11  N   UNL     1      -2.236   1.471   3.417  0.00  0.00    -0.378 N 
ATOM     12  H   UNL     1      -1.980   2.008   4.184  0.00  0.00    +0.160 HD
BRANCH   7  13
ATOM     13  O   UNL     1       0.170  -2.696   0.771  0.00  0.00    -0.420 OA
BRANCH  13  14
ATOM     14  C   UNL     1       1.440  -3.148   1.245  0.00  0.00    +0.489 C 
ATOM     15  F   UNL     1       2.362  -2.098   1.183  0.00  0.00    -0.149 F 
ATOM     16  F   UNL     1       1.316  -3.583   2.569  0.00  0.00    -0.149 F 
ATOM     17 CL   UNL     1       2.014  -4.513   0.216  0.00  0.00    +0.000 Cl
ENDBRANCH  13  14
ENDBRANCH   7  13
ENDBRANCH   1   4
BRANCH   1  18
ATOM     18  C   UNL     1      -3.925  -0.762  -0.472  0.00  0.00    +0.110 C 
BRANCH  18  19
ATOM     19  N   UNL     1      -4.873  -0.926  -1.577  0.00  0.00    -0.190 NA
ATOM     20  H   UNL     1      -4.837  -0.328  -2.340  0.00  0.00    +0.148 HD
BRANCH  19  21
ATOM     21  S   UNL     1      -6.007  -2.132  -1.522  0.00  0.00    +0.062 S 
ATOM     22  O   UNL     1      -6.774  -2.022  -2.713  0.00  0.00    -0.153 OA
ATOM     23  O   UNL     1      -5.317  -3.322  -1.167  0.00  0.00    -0.153 OA
BRANCH  21  24
ATOM     24  C   UNL     1      -7.096  -1.763  -0.187  0.00  0.00    +0.147 A 
ATOM     25  C   UNL     1      -8.400  -1.385  -0.442  0.00  0.00    +0.036 A 
ATOM     26  C   UNL     1      -9.255  -1.095   0.605  0.00  0.00    -0.043 A 
ATOM     27  C   UNL     1      -8.807  -1.184   1.911  0.00  0.00    +0.007 A 
ATOM     28  C   UNL     1      -7.504  -1.562   2.171  0.00  0.00    +0.048 A 
ATOM     29  C   UNL     1      -6.646  -1.858   1.122  0.00  0.00    +0.146 A 
BRANCH  26  30
ATOM     30  C   UNL     1     -10.676  -0.682   0.324  0.00  0.00    +0.013 C 
ATOM     31  C   UNL     1     -11.636  -1.679   0.978  0.00  0.00    +0.012 C 
ATOM     32  C   UNL     1     -10.924   0.715   0.896  0.00  0.00    +0.012 C 
ENDBRANCH  26  30
BRANCH  29  33
ATOM     33  O   UNL     1      -5.365  -2.236   1.376  0.00  0.00    -0.493 OA
ATOM     34  C   UNL     1      -4.996  -2.395   2.747  0.00  0.00    +0.277 C 
ENDBRANCH  29  33
ENDBRANCH  21  24
ENDBRANCH  19  21
ENDBRANCH  18  19
ENDBRANCH   1  18
TORSDOF 9
