REMARK  Name = ZINC04078513
REMARK  7 active torsions:
REMARK  status: ('A' for Active; 'I' for Inactive)
REMARK    1  A    between atoms: C_1  and  C_2
REMARK    2  A    between atoms: C_2  and  O_3
REMARK    3  A    between atoms: O_3  and  C_4
REMARK    4  A    between atoms: C_4  and  C_6
REMARK    5  A    between atoms: N_12  and  C_23
REMARK    6  A    between atoms: C_23  and  C_24
REMARK    7  A    between atoms: C_29  and  C_30
REMARK                            x       y       z     vdW  Elec       q    Type
REMARK                         _______ _______ _______ _____ _____    ______ ____
ROOT
ATOM      1  C   UNL     1      -2.427  -1.981  -0.719  0.00  0.00    +0.061 A 
ATOM      2  C   UNL     1      -3.499  -1.088  -0.770  0.00  0.00    +0.016 A 
ATOM      3  C   UNL     1      -4.786  -1.558  -0.617  0.00  0.00    +0.020 A 
ATOM      4  C   UNL     1      -5.022  -2.907  -0.416  0.00  0.00    +0.065 A 
ATOM      5  C   UNL     1      -3.969  -3.807  -0.366  0.00  0.00    +0.054 A 
ATOM      6  C   UNL     1      -2.666  -3.338  -0.523  0.00  0.00    +0.039 A 
ATOM      7  N   UNL     1      -4.162  -5.164  -0.174  0.00  0.00    -0.262 N 
ATOM      8  C   UNL     1      -4.926  -5.803   0.671  0.00  0.00    +0.252 C 
ATOM      9  O   UNL     1      -4.864  -7.016   0.620  0.00  0.00    -0.270 OA
ATOM     10  C   UNL     1      -5.846  -5.259   1.673  0.00  0.00    +0.053 A 
ATOM     11  C   UNL     1      -5.877  -5.825   2.954  0.00  0.00    +0.014 A 
ATOM     12  C   UNL     1      -6.732  -5.325   3.911  0.00  0.00    +0.001 A 
ATOM     13  C   UNL     1      -7.566  -4.261   3.614  0.00  0.00    +0.001 A 
ATOM     14  C   UNL     1      -7.544  -3.696   2.352  0.00  0.00    +0.018 A 
ATOM     15  C   UNL     1      -6.692  -4.191   1.385  0.00  0.00    +0.056 A 
ATOM     16  S   UNL     1      -6.681  -3.470  -0.223  0.00  0.00    +0.088 S 
ATOM     17  O   UNL     1      -6.771  -4.584  -1.101  0.00  0.00    -0.247 OA
ENDROOT
BRANCH   1  18
ATOM     18  C   UNL     1      -1.043  -1.488  -0.881  0.00  0.00    +0.339 C 
ATOM     19  O   UNL     1      -0.112  -2.268  -0.842  0.00  0.00    -0.245 OA
BRANCH  18  20
ATOM     20  O   UNL     1      -0.814  -0.174  -1.071  0.00  0.00    -0.461 OA
BRANCH  20  22
ATOM     21  C   UNL     1       0.609   1.747  -1.425  0.00  0.00    +0.048 C 
ATOM     22  C   UNL     1       0.548   0.232  -1.219  0.00  0.00    +0.229 C 
ENDBRANCH  20  22
ENDBRANCH  18  20
ENDBRANCH   1  18
BRANCH   7  23
ATOM     23  C   UNL     1      -3.383  -6.025  -1.067  0.00  0.00    +0.149 C 
BRANCH  23  24
ATOM     24  C   UNL     1      -2.114  -6.450  -0.374  0.00  0.00    -0.027 A 
ATOM     25  C   UNL     1      -1.903  -6.112   0.950  0.00  0.00    +0.005 A 
ATOM     26  C   UNL     1      -0.740  -6.502   1.586  0.00  0.00    +0.000 A 
ATOM     27  C   UNL     1       0.213  -7.230   0.898  0.00  0.00    +0.000 A 
ATOM     28  C   UNL     1       0.003  -7.568  -0.425  0.00  0.00    +0.003 A 
ATOM     29  C   UNL     1      -1.163  -7.182  -1.060  0.00  0.00    -0.046 A 
ATOM     30  C   UNL     1      -1.396  -7.555  -2.502  0.00  0.00    +0.044 C 
ENDBRANCH  23  24
ENDBRANCH   7  23
TORSDOF 5
