REMARK  Name = ZINC36297641
REMARK  6 active torsions:
REMARK  status: ('A' for Active; 'I' for Inactive)
REMARK    1  A    between atoms: C_1  and  C_2
REMARK    2  A    between atoms: C_3  and  C_22
REMARK    3  A    between atoms: C_5  and  C_19
REMARK    4  A    between atoms: C_6  and  C_10
REMARK    5  A    between atoms: C_19  and  C_20
REMARK    6  A    between atoms: C_20  and  N_21
REMARK                            x       y       z     vdW  Elec       q    Type
REMARK                         _______ _______ _______ _____ _____    ______ ____
ROOT
ATOM      1  C   UNL     1      -0.005   1.497  -0.220  0.00  0.00    +0.054 C 
ATOM      2  C   UNL     1       0.007  -0.006  -0.124  0.00  0.00    +0.015 A 
ATOM      3  C   UNL     1      -1.005  -0.876  -0.306  0.00  0.00    +0.065 A 
ATOM      4  N   UNL     1      -0.788  -2.237  -0.172  0.00  0.00    -0.289 N 
ATOM      5  C   UNL     1      -1.521  -3.415  -0.269  0.00  0.00    +0.050 A 
ATOM      6  C   UNL     1      -0.679  -4.444  -0.010  0.00  0.00    +0.094 A 
ATOM      7  N   UNL     1       0.543  -3.932   0.241  0.00  0.00    -0.221 NA
ATOM      8  C   UNL     1       0.483  -2.635   0.147  0.00  0.00    +0.179 A 
ATOM      9  S   UNL     1       1.370  -1.098   0.251  0.00  0.00    -0.054 S 
ENDROOT
BRANCH   6  10
ATOM     10  C   UNL     1      -1.038  -5.883  -0.004  0.00  0.00    +0.006 A 
ATOM     11  C   UNL     1      -0.194  -6.816  -0.603  0.00  0.00    +0.014 A 
ATOM     12  C   UNL     1      -0.529  -8.155  -0.596  0.00  0.00    +0.050 A 
ATOM     13  C   UNL     1      -1.705  -8.577   0.005  0.00  0.00    +0.166 A 
ATOM     14  C   UNL     1      -2.553  -7.648   0.606  0.00  0.00    +0.167 A 
ATOM     15  C   UNL     1      -2.218  -6.306   0.606  0.00  0.00    +0.059 A 
ATOM     16  O   UNL     1      -3.631  -8.310   1.120  0.00  0.00    -0.453 OA
ATOM     17  C   UNL     1      -3.636  -9.596   0.473  0.00  0.00    +0.466 C 
ATOM     18  O   UNL     1      -2.252  -9.820   0.145  0.00  0.00    -0.453 OA
ENDBRANCH   6  10
BRANCH   3  19
ATOM     19  C   UNL     1      -2.353  -0.376  -0.649  0.00  0.00    -0.000 A 
ATOM     20  C   UNL     1      -3.412  -0.547   0.244  0.00  0.00    +0.010 A 
ATOM     21  C   UNL     1      -4.668  -0.077  -0.082  0.00  0.00    +0.001 A 
ATOM     22  C   UNL     1      -4.878   0.562  -1.291  0.00  0.00    +0.000 A 
ATOM     23  C   UNL     1      -3.833   0.735  -2.180  0.00  0.00    +0.001 A 
ATOM     24  C   UNL     1      -2.571   0.275  -1.864  0.00  0.00    +0.010 A 
ENDBRANCH   3  19
BRANCH   5  25
ATOM     25  C   UNL     1      -2.987  -3.526  -0.602  0.00  0.00    +0.036 C 
BRANCH  25  26
ATOM     26  C   UNL     1      -3.167  -3.514  -2.121  0.00  0.00    -0.080 C 
BRANCH  26  27
ATOM     27  N   UNL     1      -4.596  -3.622  -2.445  0.00  0.00    +0.378 N 
ATOM     28  H   UNL     1      -4.962  -4.484  -2.070  0.00  0.00    -0.090 HD
ATOM     29  H   UNL     1      -5.093  -2.842  -2.041  0.00  0.00    -0.090 HD
ATOM     30  H   UNL     1      -4.715  -3.614  -3.447  0.00  0.00    -0.090 HD
ENDBRANCH  26  27
ENDBRANCH  25  26
ENDBRANCH   5  25
TORSDOF 5
