REMARK  Name = ZINC48233954
REMARK  8 active torsions:
REMARK  status: ('A' for Active; 'I' for Inactive)
REMARK    1  A    between atoms: C_1  and  C_2
REMARK    2  A    between atoms: C_4  and  N_15
REMARK    3  A    between atoms: C_6  and  C_8
REMARK    4  A    between atoms: C_13  and  O_14
REMARK    5  A    between atoms: C_18  and  C_21
REMARK    6  A    between atoms: C_21  and  N_22
REMARK    7  A    between atoms: C_24  and  C_27
REMARK    8  A    between atoms: C_27  and  N_28
REMARK                            x       y       z     vdW  Elec       q    Type
REMARK                         _______ _______ _______ _____ _____    ______ ____
ROOT
ATOM      1  N   UNL     1       0.029  -2.826  -2.332  0.00  0.00    -0.315 N 
ATOM      2  C   UNL     1       0.043  -4.295  -2.297  0.00  0.00    +0.107 C 
ATOM      3  C   UNL     1       1.213  -4.798  -3.149  0.00  0.00    +0.024 C 
ATOM      4  C   UNL     1       1.107  -4.204  -4.555  0.00  0.00    +0.013 C 
ATOM      5  C   UNL     1       1.189  -2.678  -4.474  0.00  0.00    +0.024 C 
ATOM      6  C   UNL     1       0.013  -2.151  -3.637  0.00  0.00    +0.107 C 
ENDROOT
BRANCH   1  10
ATOM      7  C   UNL     1      -0.456   1.463   0.034  0.00  0.00    +0.066 C 
ATOM      8  C   UNL     1      -0.206  -0.023   0.013  0.00  0.00    +0.044 A 
ATOM      9  C   UNL     1      -0.211  -0.716  -1.183  0.00  0.00    +0.066 A 
ATOM     10  C   UNL     1       0.025  -2.092  -1.157  0.00  0.00    +0.125 A 
ATOM     11  N   UNL     1       0.245  -2.687   0.010  0.00  0.00    -0.212 NA
ATOM     12  C   UNL     1       0.241  -1.987   1.136  0.00  0.00    +0.165 A 
ATOM     13  N   UNL     1       0.025  -0.678   1.140  0.00  0.00    -0.232 NA
BRANCH  12  14
ATOM     14  C   UNL     1       0.490  -2.682   2.420  0.00  0.00    +0.061 A 
ATOM     15  C   UNL     1       0.730  -4.055   2.438  0.00  0.00    +0.015 A 
ATOM     16  C   UNL     1       0.961  -4.698   3.637  0.00  0.00    +0.001 A 
ATOM     17  C   UNL     1       0.955  -3.985   4.823  0.00  0.00    +0.004 A 
ATOM     18  C   UNL     1       0.719  -2.624   4.818  0.00  0.00    +0.046 A 
ATOM     19  C   UNL     1       0.490  -1.964   3.620  0.00  0.00    +0.128 A 
BRANCH  19  20
ATOM     20  O   UNL     1       0.263  -0.625   3.613  0.00  0.00    -0.506 OA
ATOM     21  H   UNL     1      -0.669  -0.384   3.699  0.00  0.00    +0.292 HD
ENDBRANCH  19  20
ENDBRANCH  12  14
ENDBRANCH   1  10
BRANCH   4  22
ATOM     22  C   UNL     1       2.254  -4.731  -5.419  0.00  0.00    +0.148 C 
BRANCH  22  23
ATOM     23  N   UNL     1       2.087  -4.258  -6.796  0.00  0.00    -0.251 N 
ATOM     24  C   UNL     1       3.005  -3.575  -7.517  0.00  0.00    +0.131 A 
ATOM     25  C   UNL     1       2.439  -3.342  -8.724  0.00  0.00    +0.066 A 
ATOM     26  N   UNL     1       1.218  -3.886  -8.683  0.00  0.00    -0.136 NA
ATOM     27  N   UNL     1       1.042  -4.426  -7.528  0.00  0.00    -0.066 NA
BRANCH  25  28
ATOM     28  C   UNL     1       3.062  -2.612  -9.886  0.00  0.00    -0.027 C 
BRANCH  28  29
ATOM     29  N   UNL     1       3.679  -3.583 -10.800  0.00  0.00    +0.382 N 
ATOM     30  H   UNL     1       4.391  -4.102 -10.309  0.00  0.00    -0.090 HD
ATOM     31  H   UNL     1       2.974  -4.218 -11.142  0.00  0.00    -0.090 HD
ATOM     32  H   UNL     1       4.096  -3.094 -11.578  0.00  0.00    -0.090 HD
ENDBRANCH  28  29
ENDBRANCH  25  28
ENDBRANCH  22  23
ENDBRANCH   4  22
TORSDOF 7
