REMARK  Name = ZINC41252447
REMARK  8 active torsions:
REMARK  status: ('A' for Active; 'I' for Inactive)
REMARK    1  A    between atoms: C_1  and  C_2
REMARK    2  A    between atoms: C_2  and  C_3
REMARK    3  A    between atoms: C_6  and  C_9
REMARK    4  A    between atoms: N_14  and  C_16
REMARK    5  A    between atoms: C_16  and  C_17
REMARK    6  A    between atoms: C_17  and  C_18
REMARK    7  A    between atoms: C_23  and  C_26
REMARK    8  A    between atoms: C_23  and  N_29
REMARK                            x       y       z     vdW  Elec       q    Type
REMARK                         _______ _______ _______ _____ _____    ______ ____
ROOT
ATOM      1  C   UNL     1       6.768  -5.080   4.974  0.00  0.00    +0.217 C 
ATOM      2  O   UNL     1       7.170  -3.966   5.236  0.00  0.00    -0.276 OA
ATOM      3  N   UNL     1       7.628  -6.023   4.542  0.00  0.00    -0.302 N 
ATOM      4  C   UNL     1       7.155  -7.375   4.215  0.00  0.00    +0.107 C 
ATOM      5  C   UNL     1       7.988  -8.393   5.002  0.00  0.00    +0.016 C 
ATOM      6  C   UNL     1       9.473  -8.160   4.715  0.00  0.00    +0.015 C 
ATOM      7  C   UNL     1       9.869  -6.755   5.174  0.00  0.00    +0.016 C 
ATOM      8  C   UNL     1       9.057  -5.717   4.384  0.00  0.00    +0.107 C 
ENDROOT
BRANCH   6   9
ATOM      9  N   UNL     1      10.273  -9.155   5.442  0.00  0.00    +0.389 N 
ATOM     10  C   UNL     1       9.903 -10.502   4.991  0.00  0.00    -0.077 C 
ATOM     11  C   UNL     1      10.674 -11.546   5.801  0.00  0.00    -0.019 C 
ATOM     12  C   UNL     1      12.177 -11.333   5.598  0.00  0.00    -0.004 C 
ATOM     13  C   UNL     1      12.539  -9.901   6.002  0.00  0.00    -0.019 C 
ATOM     14  C   UNL     1      11.698  -8.918   5.184  0.00  0.00    -0.077 C 
ATOM     15  H   UNL     1      10.093  -9.073   6.431  0.00  0.00    -0.080 HD
ENDBRANCH   6   9
BRANCH   6  16
ATOM     16  C   UNL     1       9.726  -8.296   3.236  0.00  0.00    +0.200 C 
ATOM     17  O   UNL     1       8.912  -8.852   2.530  0.00  0.00    -0.278 OA
ATOM     18  N   UNL     1      10.858  -7.799   2.698  0.00  0.00    -0.330 N 
ATOM     19  H   UNL     1      11.541  -7.418   3.271  0.00  0.00    +0.145 HD
ATOM     20  H   UNL     1      10.989  -7.822   1.737  0.00  0.00    +0.145 HD
ENDBRANCH   6  16
BRANCH   1  21
ATOM     21  C   UNL     1       5.306  -5.409   5.131  0.00  0.00    +0.119 C 
BRANCH  21  22
ATOM     22  C   UNL     1       4.555  -4.173   5.630  0.00  0.00    +0.156 C 
BRANCH  22  28
ATOM     23  C   UNL     1       1.059  -4.579   4.856  0.00  0.00    +0.092 A 
ATOM     24  C   UNL     1       0.498  -5.082   6.053  0.00  0.00    +0.035 A 
ATOM     25  C   UNL     1       1.324  -5.279   7.120  0.00  0.00    +0.074 A 
ATOM     26  C   UNL     1       2.692  -4.968   6.963  0.00  0.00    +0.267 A 
ATOM     27  O   UNL     1       3.470  -5.128   7.891  0.00  0.00    -0.266 OA
ATOM     28  N   UNL     1       3.134  -4.493   5.783  0.00  0.00    -0.228 N 
ATOM     29  N   UNL     1       2.344  -4.318   4.787  0.00  0.00    -0.168 NA
BRANCH  23  33
ATOM     30  C   UNL     1      -1.420  -3.929   1.463  0.00  0.00    -0.048 A 
ATOM     31  C   UNL     1      -0.066  -3.653   1.391  0.00  0.00    +0.004 A 
ATOM     32  C   UNL     1       0.743  -3.862   2.489  0.00  0.00    +0.010 A 
ATOM     33  C   UNL     1       0.194  -4.352   3.672  0.00  0.00    +0.002 A 
ATOM     34  C   UNL     1      -1.170  -4.628   3.740  0.00  0.00    +0.010 A 
ATOM     35  C   UNL     1      -1.971  -4.410   2.637  0.00  0.00    +0.004 A 
BRANCH  30  37
ATOM     36  C   UNL     1      -2.842  -2.269   0.292  0.00  0.00    +0.009 C 
ATOM     37  C   UNL     1      -2.299  -3.699   0.261  0.00  0.00    +0.032 C 
ENDBRANCH  30  37
ENDBRANCH  23  33
ENDBRANCH  22  28
ENDBRANCH  21  22
ENDBRANCH   1  21
TORSDOF 7
