REMARK  Name = ZINC40917184
REMARK  10 active torsions:
REMARK  status: ('A' for Active; 'I' for Inactive)
REMARK    1  A    between atoms: C_1  and  C_2
REMARK    2  A    between atoms: C_2  and  O_3
REMARK    3  A    between atoms: O_3  and  C_4
REMARK    4  A    between atoms: C_6  and  C_20
REMARK    5  A    between atoms: C_9  and  O_10
REMARK    6  A    between atoms: O_10  and  C_11
REMARK    7  A    between atoms: C_11  and  C_12
REMARK    8  A    between atoms: C_22  and  C_31
REMARK    9  A    between atoms: C_23  and  C_30
REMARK   10  A    between atoms: C_31  and  C_33
REMARK                            x       y       z     vdW  Elec       q    Type
REMARK                         _______ _______ _______ _____ _____    ______ ____
ROOT
ATOM      1  C   UNL     1       0.535  -1.881  -1.624  0.00  0.00    +0.163 A 
ATOM      2  C   UNL     1       0.029  -2.706  -0.632  0.00  0.00    +0.055 A 
ATOM      3  C   UNL     1       0.226  -4.072  -0.703  0.00  0.00    -0.014 A 
ATOM      4  C   UNL     1       0.929  -4.619  -1.761  0.00  0.00    +0.025 A 
ATOM      5  C   UNL     1       1.437  -3.801  -2.753  0.00  0.00    +0.063 A 
ATOM      6  C   UNL     1       1.237  -2.430  -2.692  0.00  0.00    +0.176 A 
ATOM      7 BR   UNL     1       2.399  -4.552  -4.198  0.00  0.00    -0.046 Br
ENDROOT
BRANCH   3   8
ATOM      8  C   UNL     1      -0.325  -4.968   0.376  0.00  0.00    +0.177 C 
ATOM      9  C   UNL     1      -1.289  -5.953  -0.232  0.00  0.00    +0.040 C 
ATOM     10  C   UNL     1      -1.007  -7.263  -0.375  0.00  0.00    +0.016 C 
ATOM     11  N   UNL     1       0.182  -7.804   0.036  0.00  0.00    -0.286 N 
ATOM     12  C   UNL     1       0.996  -7.020   0.841  0.00  0.00    +0.240 A 
ATOM     13  N   UNL     1       0.768  -5.692   1.014  0.00  0.00    -0.201 N 
ATOM     14  N   UNL     1       1.767  -5.250   1.879  0.00  0.00    -0.042 NA
ATOM     15  N   UNL     1       2.498  -6.282   2.154  0.00  0.00    -0.021 NA
ATOM     16  N   UNL     1       2.048  -7.327   1.545  0.00  0.00    -0.092 NA
ATOM     17  C   UNL     1      -2.037  -8.164  -1.008  0.00  0.00    +0.061 C 
ATOM     18  H   UNL     1       0.444  -8.701  -0.225  0.00  0.00    +0.155 HD
BRANCH   9  19
ATOM     19  C   UNL     1      -2.537  -5.485  -0.669  0.00  0.00    +0.160 C 
ATOM     20  O   UNL     1      -2.809  -5.497  -1.854  0.00  0.00    -0.293 OA
ATOM     21  C   UNL     1      -3.540  -4.968   0.329  0.00  0.00    +0.091 C 
ENDBRANCH   9  19
ENDBRANCH   3   8
BRANCH   1  22
ATOM     22  O   UNL     1       0.342  -0.536  -1.555  0.00  0.00    -0.489 OA
BRANCH  22  24
ATOM     23  C   UNL     1      -0.502   1.481  -0.526  0.00  0.00    +0.048 C 
ATOM     24  C   UNL     1      -0.387  -0.042  -0.430  0.00  0.00    +0.226 C 
ENDBRANCH  22  24
ENDBRANCH   1  22
BRANCH   6  25
ATOM     25  O   UNL     1       1.732  -1.625  -3.669  0.00  0.00    -0.483 OA
BRANCH  25  26
ATOM     26  C   UNL     1       3.055  -1.117  -3.485  0.00  0.00    +0.266 C 
BRANCH  26  27
ATOM     27  C   UNL     1       3.429  -0.251  -4.660  0.00  0.00    +0.008 A 
ATOM     28  C   UNL     1       2.528  -0.057  -5.691  0.00  0.00    +0.008 A 
ATOM     29  C   UNL     1       2.872   0.737  -6.768  0.00  0.00    +0.000 A 
ATOM     30  C   UNL     1       4.116   1.338  -6.817  0.00  0.00    +0.001 A 
ATOM     31  C   UNL     1       5.017   1.144  -5.787  0.00  0.00    +0.020 A 
ATOM     32  C   UNL     1       4.672   0.354  -4.705  0.00  0.00    +0.047 A 
ATOM     33 CL   UNL     1       5.801   0.116  -3.408  0.00  0.00    -0.083 Cl
ENDBRANCH  26  27
ENDBRANCH  25  26
ENDBRANCH   6  25
TORSDOF 7
