REMARK  Name = ZINC16319884
REMARK  5 active torsions:
REMARK  status: ('A' for Active; 'I' for Inactive)
REMARK    1  A    between atoms: C_3  and  C_6
REMARK    2  A    between atoms: C_9  and  C_11
REMARK    3  A    between atoms: C_11  and  C_25
REMARK    4  A    between atoms: C_12  and  C_13
REMARK    5  A    between atoms: C_16  and  C_18
REMARK                            x       y       z     vdW  Elec       q    Type
REMARK                         _______ _______ _______ _____ _____    ______ ____
ROOT
ATOM      1  C   UNL     1       1.208  -0.679  -0.013  0.00  0.00    +0.087 C 
ATOM      2  C   UNL     1       0.002  -0.004   0.002  0.00  0.00    +0.067 C 
ENDROOT
BRANCH   1   6
ATOM      3  C   UNL     1       2.101  -4.287  -0.040  0.00  0.00    +0.114 A 
ATOM      4  C   UNL     1       0.828  -4.803  -0.030  0.00  0.00    +0.078 A 
ATOM      5  S   UNL     1      -0.141  -3.301  -0.006  0.00  0.00    -0.074 S 
ATOM      6  C   UNL     1       1.228  -2.151  -0.021  0.00  0.00    +0.119 A 
ATOM      7  N   UNL     1       2.267  -2.976  -0.035  0.00  0.00    -0.235 NA
BRANCH   3  10
ATOM      8  C   UNL     1       5.349  -5.980  -0.081  0.00  0.00    +0.042 A 
ATOM      9  C   UNL     1       4.576  -4.801  -0.071  0.00  0.00    +0.051 A 
ATOM     10  C   UNL     1       3.272  -5.188  -0.056  0.00  0.00    +0.153 A 
ATOM     11  O   UNL     1       3.234  -6.534  -0.063  0.00  0.00    -0.461 OA
ATOM     12  C   UNL     1       4.488  -7.016  -0.078  0.00  0.00    +0.196 A 
ENDBRANCH   3  10
ENDBRANCH   1   6
BRANCH   2  13
ATOM     13  C   UNL     1      -0.017   1.404   0.010  0.00  0.00    +0.130 A 
ATOM     14  C   UNL     1      -1.150   2.201   0.019  0.00  0.00    +0.050 A 
ATOM     15  C   UNL     1      -0.711   3.527   0.028  0.00  0.00    +0.050 A 
ATOM     16  C   UNL     1       0.666   3.495   0.015  0.00  0.00    +0.136 A 
ATOM     17  O   UNL     1       1.065   2.211   0.004  0.00  0.00    -0.455 OA
BRANCH  16  18
ATOM     18  C   UNL     1       1.554   4.673   0.012  0.00  0.00    +0.017 A 
ATOM     19  C   UNL     1       1.012   5.961   0.017  0.00  0.00    +0.012 A 
ATOM     20  C   UNL     1       1.847   7.058   0.019  0.00  0.00    +0.016 A 
ATOM     21  C   UNL     1       3.221   6.885   0.005  0.00  0.00    +0.018 A 
ATOM     22  C   UNL     1       3.766   5.612  -0.006  0.00  0.00    +0.016 A 
ATOM     23  C   UNL     1       2.941   4.506  -0.003  0.00  0.00    +0.012 A 
ATOM     24 BR   UNL     1       4.360   8.395   0.001  0.00  0.00    -0.050 Br
ENDBRANCH  16  18
ENDBRANCH   2  13
BRANCH   1  25
ATOM     25  C   UNL     1       2.439   0.054  -0.020  0.00  0.00    +0.102 C 
ATOM     26  N   UNL     1       3.415   0.635  -0.026  0.00  0.00    -0.191 NA
ENDBRANCH   1  25
TORSDOF 5
