REMARK  Name = ZINC22681059
REMARK  8 active torsions:
REMARK  status: ('A' for Active; 'I' for Inactive)
REMARK    1  A    between atoms: C_1  and  C_2
REMARK    2  A    between atoms: N_5  and  C_8
REMARK    3  A    between atoms: C_8  and  C_10
REMARK    4  A    between atoms: C_8  and  C_29
REMARK    5  A    between atoms: C_10  and  N_11
REMARK    6  A    between atoms: C_12  and  C_14
REMARK    7  A    between atoms: N_19  and  S_21
REMARK    8  A    between atoms: S_21  and  C_24
REMARK                            x       y       z     vdW  Elec       q    Type
REMARK                         _______ _______ _______ _____ _____    ______ ____
ROOT
ATOM      1  N   UNL     1      -1.214   2.109  -0.267  0.00  0.00    -0.316 N 
ATOM      2  C   UNL     1      -0.020   1.581  -0.604  0.00  0.00    +0.217 C 
ATOM      3  O   UNL     1       0.091   0.384  -0.762  0.00  0.00    -0.275 OA
ATOM      4  H   UNL     1      -1.314   3.195  -0.124  0.00  0.00    +0.149 HD
ENDROOT
BRANCH   2   5
ATOM      5  C   UNL     1       1.176   2.479  -0.790  0.00  0.00    +0.091 C 
ATOM      6  C   UNL     1       1.462   3.225   0.515  0.00  0.00    +0.015 C 
ATOM      7  C   UNL     1       2.656   4.162   0.318  0.00  0.00    +0.018 C 
ATOM      8  C   UNL     1       3.893   3.336  -0.049  0.00  0.00    +0.109 C 
ATOM      9  N   UNL     1       3.578   2.506  -1.220  0.00  0.00    -0.175 NA
ATOM     10  C   UNL     1       2.396   1.635  -1.169  0.00  0.00    +0.122 C 
BRANCH   9  11
ATOM     11  S   UNL     1       4.535   2.553  -2.570  0.00  0.00    +0.067 S 
ATOM     12  O   UNL     1       3.723   2.133  -3.658  0.00  0.00    -0.152 OA
ATOM     13  O   UNL     1       5.198   3.809  -2.555  0.00  0.00    -0.152 OA
BRANCH  11  14
ATOM     14  C   UNL     1       5.781   1.324  -2.368  0.00  0.00    +0.143 A 
ATOM     15  C   UNL     1       5.761   0.019  -2.736  0.00  0.00    +0.036 A 
ATOM     16  C   UNL     1       6.867  -0.768  -2.474  0.00  0.00    +0.010 A 
ATOM     17  C   UNL     1       7.938  -0.213  -1.856  0.00  0.00    +0.047 A 
ATOM     18  S   UNL     1       7.401   1.475  -1.631  0.00  0.00    -0.077 S 
ENDBRANCH  11  14
ENDBRANCH   9  11
ENDBRANCH   2   5
BRANCH   1  19
ATOM     19  C   UNL     1      -2.377   1.236  -0.092  0.00  0.00    +0.094 C 
BRANCH  19  20
ATOM     20  C   UNL     1      -3.622   2.090   0.156  0.00  0.00    -0.013 C 
BRANCH  20  25
ATOM     21  C   UNL     1      -3.400   5.188   4.955  0.00  0.00    +0.007 C 
ATOM     22  C   UNL     1      -3.804   4.167   3.889  0.00  0.00    -0.018 C 
ATOM     23  C   UNL     1      -4.188   4.899   2.600  0.00  0.00    -0.015 C 
ATOM     24  C   UNL     1      -4.533   3.871   1.519  0.00  0.00    -0.078 C 
ATOM     25  N   UNL     1      -3.375   2.999   1.283  0.00  0.00    +0.386 N 
ATOM     26  C   UNL     1      -3.018   2.251   2.495  0.00  0.00    -0.078 C 
ATOM     27  C   UNL     1      -2.627   3.230   3.604  0.00  0.00    -0.015 C 
ATOM     28  H   UNL     1      -2.521   3.641   1.021  0.00  0.00    -0.081 HD
ENDBRANCH  20  25
BRANCH  20  29
ATOM     29  C   UNL     1      -3.935   2.894  -1.079  0.00  0.00    -0.022 A 
ATOM     30  C   UNL     1      -4.854   2.652  -2.045  0.00  0.00    +0.009 A 
ATOM     31  C   UNL     1      -4.968   3.539  -3.100  0.00  0.00    +0.008 A 
ATOM     32  C   UNL     1      -4.155   4.623  -3.137  0.00  0.00    +0.045 A 
ATOM     33  S   UNL     1      -3.195   4.416  -1.647  0.00  0.00    -0.103 S 
ENDBRANCH  20  29
ENDBRANCH  19  20
ENDBRANCH   1  19
TORSDOF 7
