REMARK  Name = ZINC59991154
REMARK  11 active torsions:
REMARK  status: ('A' for Active; 'I' for Inactive)
REMARK    1  A    between atoms: C_1  and  C_2
REMARK    2  A    between atoms: C_5  and  S_23
REMARK    3  A    between atoms: C_7  and  C_8
REMARK    4  A    between atoms: N_10  and  C_11
REMARK    5  A    between atoms: C_11  and  C_12
REMARK    6  A    between atoms: C_12  and  C_13
REMARK    7  A    between atoms: C_12  and  C_14
REMARK    8  A    between atoms: C_12  and  N_15
REMARK    9  A    between atoms: C_19  and  C_22
REMARK   10  A    between atoms: S_23  and  N_26
REMARK   11  A    between atoms: C_31  and  C_33
REMARK                            x       y       z     vdW  Elec       q    Type
REMARK                         _______ _______ _______ _____ _____    ______ ____
ROOT
ATOM      1  C   UNL     1       1.714   1.458   2.292  0.00  0.00    +0.044 C 
ATOM      2  C   UNL     1       1.395   0.098   1.727  0.00  0.00    -0.038 A 
ATOM      3  C   UNL     1       1.171  -0.053   0.373  0.00  0.00    +0.006 A 
ATOM      4  C   UNL     1       0.878  -1.301  -0.147  0.00  0.00    +0.029 A 
ATOM      5  C   UNL     1       0.806  -2.405   0.684  0.00  0.00    +0.106 A 
ATOM      6  C   UNL     1       1.027  -2.267   2.039  0.00  0.00    +0.041 A 
ATOM      7  C   UNL     1       1.329  -1.012   2.570  0.00  0.00    +0.041 A 
ENDROOT
BRANCH   7   8
ATOM      8  C   UNL     1       1.573  -0.859   4.020  0.00  0.00    +0.244 C 
ATOM      9  O   UNL     1       1.782   0.244   4.487  0.00  0.00    -0.270 OA
ATOM     10  N   UNL     1       1.564  -1.941   4.823  0.00  0.00    -0.313 N 
ATOM     11  H   UNL     1       1.397  -2.820   4.450  0.00  0.00    +0.149 HD
BRANCH  10  12
ATOM     12  C   UNL     1       1.805  -1.788   6.260  0.00  0.00    +0.092 C 
BRANCH  12  13
ATOM     13  C   UNL     1       1.740  -3.159   6.936  0.00  0.00    -0.055 C 
ATOM     14  C   UNL     1       1.993  -3.001   8.437  0.00  0.00    -0.008 C 
ATOM     15  C   UNL     1       0.356  -3.773   6.714  0.00  0.00    -0.008 C 
BRANCH  13  16
ATOM     16  N   UNL     1       2.764  -4.040   6.358  0.00  0.00    +0.384 N 
ATOM     17  C   UNL     1       4.091  -3.446   6.564  0.00  0.00    -0.078 C 
ATOM     18  C   UNL     1       5.154  -4.318   5.893  0.00  0.00    -0.018 C 
ATOM     19  C   UNL     1       5.120  -5.720   6.508  0.00  0.00    -0.001 C 
ATOM     20  C   UNL     1       3.711  -6.300   6.353  0.00  0.00    -0.031 C 
ATOM     21  C   UNL     1       2.701  -5.354   7.007  0.00  0.00    -0.075 C 
ATOM     22  C   UNL     1       3.644  -7.669   7.033  0.00  0.00    +0.005 C 
ATOM     23  H   UNL     1       2.596  -4.146   5.369  0.00  0.00    -0.081 HD
ENDBRANCH  13  16
ENDBRANCH  12  13
ENDBRANCH  10  12
ENDBRANCH   7   8
BRANCH   5  24
ATOM     24  S   UNL     1       0.430  -3.989   0.011  0.00  0.00    +0.061 S 
ATOM     25  O   UNL     1      -0.115  -4.762   1.071  0.00  0.00    -0.153 OA
ATOM     26  O   UNL     1      -0.271  -3.759  -1.203  0.00  0.00    -0.153 OA
BRANCH  24  27
ATOM     27  N   UNL     1       1.869  -4.699  -0.401  0.00  0.00    -0.174 NA
ATOM     28  C   UNL     1       2.372  -4.625  -1.779  0.00  0.00    +0.110 C 
ATOM     29  C   UNL     1       2.673  -6.044  -2.272  0.00  0.00    +0.017 C 
ATOM     30  C   UNL     1       3.626  -6.729  -1.290  0.00  0.00    +0.003 C 
ATOM     31  C   UNL     1       2.962  -6.826   0.085  0.00  0.00    +0.020 C 
ATOM     32  C   UNL     1       2.668  -5.411   0.606  0.00  0.00    +0.077 C 
ATOM     33  C   UNL     1       1.883  -5.497   1.916  0.00  0.00    +0.026 C 
ENDBRANCH  24  27
ENDBRANCH   5  24
TORSDOF 6
