REMARK  Name = ZINC27903289
REMARK  8 active torsions:
REMARK  status: ('A' for Active; 'I' for Inactive)
REMARK    1  A    between atoms: C_1  and  C_2
REMARK    2  A    between atoms: C_5  and  C_31
REMARK    3  A    between atoms: C_6  and  O_8
REMARK    4  A    between atoms: O_8  and  C_9
REMARK    5  A    between atoms: N_15  and  C_16
REMARK    6  A    between atoms: C_16  and  C_17
REMARK    7  A    between atoms: N_25  and  C_30
REMARK    8  A    between atoms: N_28  and  C_29
REMARK                            x       y       z     vdW  Elec       q    Type
REMARK                         _______ _______ _______ _____ _____    ______ ____
ROOT
ATOM      1  C   UNL     1       2.509  -2.914  -2.064  0.00  0.00    +0.289 C 
ATOM      2  N   UNL     1       2.353  -3.301  -3.285  0.00  0.00    -0.211 NA
ATOM      3  C   UNL     1       0.926  -3.328  -3.632  0.00  0.00    +0.229 C 
ATOM      4  C   UNL     1       0.220  -2.873  -2.327  0.00  0.00    +0.207 C 
ATOM      5  N   UNL     1       1.344  -2.632  -1.409  0.00  0.00    -0.266 N 
ATOM      6  C   UNL     1      -0.549  -1.571  -2.418  0.00  0.00    +0.247 C 
ATOM      7  O   UNL     1      -1.129  -1.131  -1.448  0.00  0.00    -0.273 OA
ATOM      8  N   UNL     1      -0.581  -0.911  -3.588  0.00  0.00    -0.227 N 
ATOM      9  C   UNL     1       0.029  -1.329  -4.699  0.00  0.00    +0.312 C 
ATOM     10  O   UNL     1      -0.081  -0.640  -5.694  0.00  0.00    -0.252 OA
ATOM     11  N   UNL     1       0.760  -2.449  -4.800  0.00  0.00    -0.264 N 
ATOM     12  C   UNL     1       1.383  -2.805  -6.077  0.00  0.00    +0.136 C 
ATOM     13  C   UNL     1      -1.331   0.346  -3.648  0.00  0.00    +0.143 C 
ENDROOT
BRANCH   1  14
ATOM     14  O   UNL     1       3.723  -2.798  -1.482  0.00  0.00    -0.426 OA
BRANCH  14  20
ATOM     15  C   UNL     1       7.255  -0.961  -4.305  0.00  0.00    +0.044 C 
ATOM     16  C   UNL     1       6.570  -2.131  -3.647  0.00  0.00    -0.047 A 
ATOM     17  C   UNL     1       7.061  -3.411  -3.828  0.00  0.00    +0.004 A 
ATOM     18  C   UNL     1       6.435  -4.486  -3.225  0.00  0.00    +0.007 A 
ATOM     19  C   UNL     1       5.320  -4.283  -2.434  0.00  0.00    -0.008 A 
ATOM     20  C   UNL     1       4.822  -3.000  -2.255  0.00  0.00    +0.135 A 
ATOM     21  C   UNL     1       5.453  -1.923  -2.862  0.00  0.00    +0.050 A 
ATOM     22  C   UNL     1       4.642  -5.454  -1.772  0.00  0.00    +0.047 C 
ENDBRANCH  14  20
ENDBRANCH   1  14
BRANCH   5  23
ATOM     23  C   UNL     1       1.232  -2.173  -0.022  0.00  0.00    +0.145 C 
BRANCH  23  24
ATOM     24  C   UNL     1       1.215  -3.363   0.902  0.00  0.00    -0.030 A 
ATOM     25  C   UNL     1       2.405  -3.917   1.338  0.00  0.00    +0.005 A 
ATOM     26  C   UNL     1       2.389  -5.009   2.185  0.00  0.00    +0.000 A 
ATOM     27  C   UNL     1       1.185  -5.548   2.596  0.00  0.00    +0.000 A 
ATOM     28  C   UNL     1      -0.005  -4.994   2.160  0.00  0.00    +0.000 A 
ATOM     29  C   UNL     1       0.011  -3.902   1.313  0.00  0.00    +0.005 A 
ENDBRANCH  23  24
ENDBRANCH   5  23
TORSDOF 4
