REMARK  Name = ZINC04165698
REMARK  7 active torsions:
REMARK  status: ('A' for Active; 'I' for Inactive)
REMARK    1  A    between atoms: C_1  and  C_2
REMARK    2  A    between atoms: C_2  and  C_3
REMARK    3  A    between atoms: C_2  and  C_4
REMARK    4  A    between atoms: C_11  and  N_27
REMARK    5  A    between atoms: C_12  and  C_25
REMARK    6  A    between atoms: C_13  and  C_15
REMARK    7  A    between atoms: C_20  and  C_21
REMARK                            x       y       z     vdW  Elec       q    Type
REMARK                         _______ _______ _______ _____ _____    ______ ____
ROOT
ATOM      1  C   UNL     1      -1.838  -0.895   0.148  0.00  0.00    +0.046 A 
ATOM      2  C   UNL     1      -2.231  -1.446  -1.010  0.00  0.00    +0.049 A 
ATOM      3  C   UNL     1      -3.587  -1.819  -0.881  0.00  0.00    +0.245 A 
ATOM      4  N   UNL     1      -3.980  -1.499   0.318  0.00  0.00    -0.135 NA
ATOM      5  N   UNL     1      -2.895  -0.918   0.993  0.00  0.00    -0.278 N 
ATOM      6  H   UNL     1      -2.902  -0.588   1.905  0.00  0.00    +0.189 HD
ATOM      7  O   UNL     1      -4.274  -2.405  -1.898  0.00  0.00    -0.421 OA
ATOM      8  C   UNL     1      -3.712  -2.378  -3.123  0.00  0.00    +0.201 C 
ATOM      9  C   UNL     1      -2.425  -2.051  -3.367  0.00  0.00    +0.098 C 
ATOM     10  C   UNL     1      -1.451  -1.675  -2.280  0.00  0.00    +0.102 C 
ENDROOT
BRANCH  10  11
ATOM     11  C   UNL     1      -0.462  -2.793  -2.075  0.00  0.00    -0.023 A 
ATOM     12  C   UNL     1      -0.886  -4.006  -1.563  0.00  0.00    +0.005 A 
ATOM     13  C   UNL     1       0.021  -5.032  -1.375  0.00  0.00    +0.000 A 
ATOM     14  C   UNL     1       1.352  -4.846  -1.700  0.00  0.00    +0.001 A 
ATOM     15  C   UNL     1       1.775  -3.634  -2.213  0.00  0.00    +0.012 A 
ATOM     16  C   UNL     1       0.867  -2.609  -2.405  0.00  0.00    +0.059 A 
BRANCH  16  17
ATOM     17  C   UNL     1       1.328  -1.290  -2.969  0.00  0.00    +0.418 C 
ATOM     18  F   UNL     1       2.679  -1.379  -3.321  0.00  0.00    -0.166 F 
ATOM     19  F   UNL     1       0.570  -0.978  -4.103  0.00  0.00    -0.166 F 
ATOM     20  F   UNL     1       1.162  -0.288  -2.007  0.00  0.00    -0.166 F 
ENDBRANCH  16  17
ENDBRANCH  10  11
BRANCH   1  22
ATOM     21  C   UNL     1      -0.549   1.158   0.668  0.00  0.00    +0.014 C 
ATOM     22  C   UNL     1      -0.465  -0.355   0.456  0.00  0.00    +0.031 C 
ATOM     23  C   UNL     1       0.072  -1.019   1.725  0.00  0.00    +0.014 C 
ENDBRANCH   1  22
BRANCH   8  24
ATOM     24  N   UNL     1      -4.502  -2.707  -4.196  0.00  0.00    -0.328 N 
ATOM     25  H   UNL     1      -5.431  -2.948  -4.058  0.00  0.00    +0.145 HD
ATOM     26  H   UNL     1      -4.131  -2.699  -5.092  0.00  0.00    +0.145 HD
ENDBRANCH   8  24
BRANCH   9  27
ATOM     27  C   UNL     1      -1.964  -2.061  -4.723  0.00  0.00    +0.101 C 
ATOM     28  N   UNL     1      -1.599  -2.068  -5.799  0.00  0.00    -0.191 NA
ENDBRANCH   9  27
TORSDOF 5
