REMARK  Name = ZINC00985160
REMARK  4 active torsions:
REMARK  status: ('A' for Active; 'I' for Inactive)
REMARK    1  A    between atoms: C_6  and  C_7
REMARK    2  A    between atoms: C_14  and  N_28
REMARK    3  A    between atoms: C_15  and  C_26
REMARK    4  A    between atoms: C_16  and  C_18
REMARK                            x       y       z     vdW  Elec       q    Type
REMARK                         _______ _______ _______ _____ _____    ______ ____
ROOT
ATOM      1  C   UNL     1      -1.640  -0.891  -0.130  0.00  0.00    +0.100 A 
ATOM      2  C   UNL     1      -2.643  -0.468   0.746  0.00  0.00    +0.054 A 
ATOM      3  C   UNL     1      -3.696  -1.329   0.632  0.00  0.00    +0.223 A 
ATOM      4  N   UNL     1      -3.366  -2.261  -0.286  0.00  0.00    -0.246 N 
ATOM      5  H   UNL     1      -3.923  -3.001  -0.574  0.00  0.00    +0.192 HD
ATOM      6  N   UNL     1      -2.076  -1.968  -0.757  0.00  0.00    -0.171 NA
ATOM      7  O   UNL     1      -4.835  -1.195   1.357  0.00  0.00    -0.423 OA
ATOM      8  C   UNL     1      -4.811  -0.346   2.404  0.00  0.00    +0.200 C 
ATOM      9  C   UNL     1      -3.831   0.560   2.617  0.00  0.00    +0.098 C 
ATOM     10  C   UNL     1      -2.654   0.711   1.685  0.00  0.00    +0.102 C 
ENDROOT
BRANCH   1  16
ATOM     11  C   UNL     1       0.400   0.221   0.773  0.00  0.00    +0.014 A 
ATOM     12  C   UNL     1       1.627   0.825   0.590  0.00  0.00    +0.050 A 
ATOM     13  C   UNL     1       2.148   0.974  -0.687  0.00  0.00    +0.166 A 
ATOM     14  C   UNL     1       1.431   0.512  -1.790  0.00  0.00    +0.167 A 
ATOM     15  C   UNL     1       0.200  -0.092  -1.611  0.00  0.00    +0.059 A 
ATOM     16  C   UNL     1      -0.320  -0.241  -0.326  0.00  0.00    +0.006 A 
ATOM     17  O   UNL     1       2.152   0.776  -2.919  0.00  0.00    -0.453 OA
ATOM     18  C   UNL     1       3.124   1.765  -2.533  0.00  0.00    +0.466 C 
ATOM     19  O   UNL     1       3.317   1.525  -1.126  0.00  0.00    -0.453 OA
ENDBRANCH   1  16
BRANCH  10  20
ATOM     20  C   UNL     1      -2.791   1.988   0.896  0.00  0.00    -0.033 A 
ATOM     21  C   UNL     1      -3.860   2.157   0.035  0.00  0.00    +0.007 A 
ATOM     22  C   UNL     1      -3.987   3.327  -0.689  0.00  0.00    +0.040 A 
ATOM     23  C   UNL     1      -3.044   4.331  -0.552  0.00  0.00    +0.137 A 
ATOM     24  C   UNL     1      -1.973   4.161   0.311  0.00  0.00    +0.053 A 
ATOM     25  C   UNL     1      -1.851   2.991   1.038  0.00  0.00    +0.022 A 
ATOM     26 BR   UNL     1      -0.684   5.531   0.500  0.00  0.00    -0.047 Br
ATOM     27  F   UNL     1      -3.167   5.476  -1.259  0.00  0.00    -0.204 F 
ENDBRANCH  10  20
BRANCH   8  28
ATOM     28  N   UNL     1      -5.844  -0.404   3.307  0.00  0.00    -0.328 N 
ATOM     29  H   UNL     1      -6.562  -1.044   3.181  0.00  0.00    +0.145 HD
ATOM     30  H   UNL     1      -5.855   0.194   4.071  0.00  0.00    +0.145 HD
ENDBRANCH   8  28
BRANCH   9  31
ATOM     31  C   UNL     1      -3.912   1.407   3.768  0.00  0.00    +0.101 C 
ATOM     32  N   UNL     1      -3.977   2.080   4.682  0.00  0.00    -0.191 NA
ENDBRANCH   9  31
TORSDOF 4
