REMARK  Name = ZINC40343311
REMARK  9 active torsions:
REMARK  status: ('A' for Active; 'I' for Inactive)
REMARK    1  A    between atoms: C_1  and  C_2
REMARK    2  A    between atoms: C_2  and  C_3
REMARK    3  A    between atoms: C_3  and  O_4
REMARK    4  A    between atoms: O_4  and  C_5
REMARK    5  A    between atoms: C_9  and  C_11
REMARK    6  A    between atoms: C_14  and  C_30
REMARK    7  A    between atoms: N_21  and  C_22
REMARK    8  A    between atoms: C_22  and  C_23
REMARK    9  A    between atoms: C_23  and  C_24
REMARK                            x       y       z     vdW  Elec       q    Type
REMARK                         _______ _______ _______ _____ _____    ______ ____
ROOT
ATOM      1  C   UNL     1       2.061  -6.028  -3.555  0.00  0.00    +0.141 C 
ATOM      2  C   UNL     1       3.428  -6.518  -3.164  0.00  0.00    +0.035 A 
ATOM      3  C   UNL     1       4.414  -6.598  -2.174  0.00  0.00    +0.099 A 
ATOM      4  N   UNL     1       5.428  -7.271  -2.681  0.00  0.00    -0.173 NA
ATOM      5  N   UNL     1       5.181  -7.623  -3.893  0.00  0.00    -0.272 N 
ATOM      6  H   UNL     1       5.785  -8.126  -4.461  0.00  0.00    +0.189 HD
ATOM      7  C   UNL     1       3.941  -7.184  -4.261  0.00  0.00    +0.126 A 
ATOM      8  C   UNL     1       2.950  -7.136  -5.341  0.00  0.00    +0.265 C 
ATOM      9  O   UNL     1       3.098  -7.631  -6.442  0.00  0.00    -0.268 OA
ATOM     10  N   UNL     1       1.851  -6.467  -4.941  0.00  0.00    -0.285 N 
ENDROOT
BRANCH   3  11
ATOM     11  C   UNL     1       4.332  -6.030  -0.805  0.00  0.00    +0.003 A 
ATOM     12  C   UNL     1       3.663  -4.828  -0.586  0.00  0.00    +0.011 A 
ATOM     13  C   UNL     1       3.591  -4.304   0.689  0.00  0.00    +0.020 A 
ATOM     14  C   UNL     1       4.181  -4.971   1.748  0.00  0.00    +0.041 A 
ATOM     15  C   UNL     1       4.846  -6.166   1.536  0.00  0.00    +0.020 A 
ATOM     16  C   UNL     1       4.919  -6.701   0.265  0.00  0.00    +0.011 A 
ATOM     17 CL   UNL     1       4.087  -4.306   3.349  0.00  0.00    -0.084 Cl
ENDBRANCH   3  11
BRANCH   1  22
ATOM     18  C   UNL     1       1.341  -2.529  -2.322  0.00  0.00    +0.121 A 
ATOM     19  C   UNL     1       1.909  -1.762  -3.329  0.00  0.00    +0.045 A 
ATOM     20  C   UNL     1       2.522  -2.377  -4.403  0.00  0.00    +0.004 A 
ATOM     21  C   UNL     1       2.571  -3.757  -4.475  0.00  0.00    +0.006 A 
ATOM     22  C   UNL     1       2.006  -4.524  -3.473  0.00  0.00    -0.019 A 
ATOM     23  C   UNL     1       1.396  -3.913  -2.394  0.00  0.00    +0.051 A 
BRANCH  18  24
ATOM     24  O   UNL     1       0.738  -1.926  -1.265  0.00  0.00    -0.492 OA
BRANCH  24  25
ATOM     25  C   UNL     1       0.718  -0.497  -1.257  0.00  0.00    +0.229 C 
BRANCH  25  27
ATOM     26  C   UNL     1      -0.019   1.526   0.010  0.00  0.00    +0.007 C 
ATOM     27  C   UNL     1       0.002  -0.004   0.002  0.00  0.00    +0.038 C 
ENDBRANCH  25  27
ENDBRANCH  24  25
ENDBRANCH  18  24
ENDBRANCH   1  22
BRANCH  10  28
ATOM     28  C   UNL     1       0.654  -6.218  -5.748  0.00  0.00    +0.114 C 
BRANCH  28  29
ATOM     29  C   UNL     1       0.815  -4.899  -6.507  0.00  0.00    +0.054 C 
BRANCH  29  30
ATOM     30  C   UNL     1      -0.416  -4.644  -7.337  0.00  0.00    -0.046 A 
ATOM     31  C   UNL     1      -0.487  -5.119  -8.633  0.00  0.00    +0.004 A 
ATOM     32  C   UNL     1      -1.616  -4.885  -9.395  0.00  0.00    +0.000 A 
ATOM     33  C   UNL     1      -2.675  -4.175  -8.860  0.00  0.00    +0.000 A 
ATOM     34  C   UNL     1      -2.605  -3.700  -7.564  0.00  0.00    +0.000 A 
ATOM     35  C   UNL     1      -1.477  -3.938  -6.801  0.00  0.00    +0.004 A 
ENDBRANCH  29  30
ENDBRANCH  28  29
ENDBRANCH  10  28
TORSDOF 8
