REMARK  Name = ZINC08432701
REMARK  9 active torsions:
REMARK  status: ('A' for Active; 'I' for Inactive)
REMARK    1  A    between atoms: C_1  and  C_2
REMARK    2  A    between atoms: C_8  and  C_13
REMARK    3  A    between atoms: C_9  and  O_12
REMARK    4  A    between atoms: C_13  and  C_15
REMARK    5  A    between atoms: C_13  and  N_29
REMARK    6  A    between atoms: C_18  and  O_21
REMARK    7  A    between atoms: O_21  and  C_22
REMARK    8  A    between atoms: C_22  and  C_23
REMARK    9  A    between atoms: N_29  and  C_30
REMARK                            x       y       z     vdW  Elec       q    Type
REMARK                         _______ _______ _______ _____ _____    ______ ____
ROOT
ATOM      1  C   UNL     1       4.915   4.014  -0.011  0.00  0.00    +0.136 C 
ENDROOT
BRANCH   1   9
ATOM      2  C   UNL     1      -2.129   2.578  -1.287  0.00  0.00    +0.065 C 
ATOM      3  C   UNL     1      -0.734   2.068  -1.034  0.00  0.00    +0.039 A 
ATOM      4  C   UNL     1      -0.509   0.694  -0.999  0.00  0.00    +0.023 A 
ATOM      5  C   UNL     1       0.748   0.214  -0.765  0.00  0.00    +0.012 A 
ATOM      6  C   UNL     1       1.789   1.144  -0.577  0.00  0.00    +0.004 A 
ATOM      7  C   UNL     1       3.108   0.726  -0.338  0.00  0.00    +0.010 A 
ATOM      8  C   UNL     1       4.089   1.653  -0.160  0.00  0.00    +0.010 A 
ATOM      9  C   UNL     1       3.804   3.015  -0.212  0.00  0.00    +0.021 A 
ATOM     10  C   UNL     1       2.533   3.460  -0.442  0.00  0.00    +0.148 A 
ATOM     11  C   UNL     1       1.491   2.527  -0.630  0.00  0.00    +0.113 A 
ATOM     12  N   UNL     1       0.238   2.930  -0.857  0.00  0.00    -0.248 NA
BRANCH  10  13
ATOM     13  O   UNL     1       2.274   4.792  -0.489  0.00  0.00    -0.504 OA
ATOM     14  H   UNL     1       2.041   5.178   0.367  0.00  0.00    +0.292 HD
ENDBRANCH  10  13
ENDBRANCH   1   9
BRANCH   1  15
ATOM     15  C   UNL     1       4.984   4.402   1.443  0.00  0.00    -0.023 A 
ATOM     16  C   UNL     1       5.525   3.527   2.366  0.00  0.00    +0.009 A 
ATOM     17  C   UNL     1       5.595   3.883   3.700  0.00  0.00    +0.046 A 
ATOM     18  C   UNL     1       5.111   5.116   4.113  0.00  0.00    +0.121 A 
ATOM     19  C   UNL     1       4.563   5.990   3.186  0.00  0.00    +0.046 A 
ATOM     20  C   UNL     1       4.501   5.632   1.853  0.00  0.00    +0.009 A 
BRANCH  18  21
ATOM     21  O   UNL     1       5.173   5.466   5.425  0.00  0.00    -0.487 OA
BRANCH  21  22
ATOM     22  C   UNL     1       5.750   4.516   6.323  0.00  0.00    +0.264 C 
BRANCH  22  23
ATOM     23  C   UNL     1       5.733   5.074   7.723  0.00  0.00    -0.010 A 
ATOM     24  C   UNL     1       6.807   5.810   8.187  0.00  0.00    +0.007 A 
ATOM     25  C   UNL     1       6.789   6.327   9.469  0.00  0.00    +0.000 A 
ATOM     26  C   UNL     1       5.702   6.098  10.291  0.00  0.00    +0.000 A 
ATOM     27  C   UNL     1       4.630   5.357   9.830  0.00  0.00    +0.000 A 
ATOM     28  C   UNL     1       4.646   4.845   8.546  0.00  0.00    +0.007 A 
ENDBRANCH  22  23
ENDBRANCH  21  22
ENDBRANCH  18  21
ENDBRANCH   1  15
BRANCH   1  29
ATOM     29  N   UNL     1       6.189   3.416  -0.418  0.00  0.00    -0.320 N 
ATOM     30  H   UNL     1       6.752   2.979   0.240  0.00  0.00    +0.148 HD
BRANCH  29  31
ATOM     31  C   UNL     1       6.590   3.474  -1.748  0.00  0.00    +0.097 A 
ATOM     32  C   UNL     1       5.731   4.005  -2.705  0.00  0.00    +0.041 A 
ATOM     33  C   UNL     1       6.147   4.063  -4.023  0.00  0.00    +0.005 A 
ATOM     34  C   UNL     1       7.407   3.575  -4.343  0.00  0.00    +0.018 A 
ATOM     35  C   UNL     1       8.205   3.056  -3.343  0.00  0.00    +0.084 A 
ATOM     36  N   UNL     1       7.832   2.989  -2.037  0.00  0.00    -0.350 N 
ATOM     37  H   UNL     1       8.447   2.598  -1.313  0.00  0.00    +0.166 HD
ENDBRANCH  29  31
ENDBRANCH   1  29
TORSDOF 8
