REMARK  Name = ZINC23391805
REMARK  5 active torsions:
REMARK  status: ('A' for Active; 'I' for Inactive)
REMARK    1  A    between atoms: C_3  and  S_19
REMARK    2  A    between atoms: C_5  and  S_7
REMARK    3  A    between atoms: S_7  and  O_10
REMARK    4  A    between atoms: O_10  and  C_11
REMARK    5  A    between atoms: S_19  and  N_22
REMARK                            x       y       z     vdW  Elec       q    Type
REMARK                         _______ _______ _______ _____ _____    ______ ____
ROOT
ATOM      1  C   UNL     1       1.175   1.783   0.000  0.00  0.00    +0.004 A 
ATOM      2  C   UNL     1       1.156   3.166   0.008  0.00  0.00    +0.028 A 
ATOM      3  C   UNL     1      -0.050   3.840   0.022  0.00  0.00    +0.107 A 
ATOM      4  C   UNL     1      -1.238   3.133   0.030  0.00  0.00    +0.059 A 
ATOM      5  C   UNL     1      -1.219   1.751   0.017  0.00  0.00    +0.130 A 
ATOM      6  C   UNL     1      -0.013   1.076   0.008  0.00  0.00    +0.030 A 
ENDROOT
BRANCH   5   7
ATOM      7  S   UNL     1      -2.733   0.849   0.020  0.00  0.00    +0.151 S 
ATOM      8  O   UNL     1      -3.722   1.714  -0.522  0.00  0.00    -0.131 OA
ATOM      9  O   UNL     1      -2.447  -0.426  -0.540  0.00  0.00    -0.131 OA
BRANCH   7  10
ATOM     10  O   UNL     1      -3.113   0.611   1.474  0.00  0.00    -0.341 OA
BRANCH  10  11
ATOM     11  C   UNL     1      -3.600   1.711   2.106  0.00  0.00    +0.176 A 
ATOM     12  C   UNL     1      -4.962   1.976   2.089  0.00  0.00    +0.070 A 
ATOM     13  C   UNL     1      -5.455   3.096   2.732  0.00  0.00    +0.045 A 
ATOM     14  C   UNL     1      -4.592   3.952   3.393  0.00  0.00    +0.021 A 
ATOM     15  C   UNL     1      -3.234   3.691   3.410  0.00  0.00    +0.025 A 
ATOM     16  C   UNL     1      -2.737   2.570   2.773  0.00  0.00    +0.085 A 
ATOM     17 CL   UNL     1      -1.033   2.238   2.801  0.00  0.00    -0.080 Cl
ATOM     18 CL   UNL     1      -7.159   3.427   2.713  0.00  0.00    -0.083 Cl
ENDBRANCH  10  11
ENDBRANCH   7  10
ENDBRANCH   5   7
BRANCH   3  19
ATOM     19  S   UNL     1      -0.074   5.602   0.032  0.00  0.00    +0.056 S 
ATOM     20  O   UNL     1      -1.319   5.988   0.596  0.00  0.00    -0.153 OA
ATOM     21  O   UNL     1       1.171   6.022   0.573  0.00  0.00    -0.153 OA
BRANCH  19  22
ATOM     22  N   UNL     1      -0.096   6.100  -1.548  0.00  0.00    -0.204 NA
ATOM     23  H   UNL     1      -0.111   7.199  -1.586  0.00  0.00    +0.144 HD
ATOM     24  H   UNL     1      -0.993   5.703  -2.045  0.00  0.00    +0.144 HD
ENDBRANCH  19  22
ENDBRANCH   3  19
TORSDOF 5
