REMARK  Name = ZINC32124712
REMARK  8 active torsions:
REMARK  status: ('A' for Active; 'I' for Inactive)
REMARK    1  A    between atoms: C_1  and  C_2
REMARK    2  A    between atoms: C_5  and  S_8
REMARK    3  A    between atoms: S_8  and  C_9
REMARK    4  A    between atoms: C_12  and  C_18
REMARK    5  A    between atoms: C_14  and  N_15
REMARK    6  A    between atoms: N_24  and  C_25
REMARK    7  A    between atoms: C_28  and  O_31
REMARK    8  A    between atoms: O_31  and  C_32
REMARK                            x       y       z     vdW  Elec       q    Type
REMARK                         _______ _______ _______ _____ _____    ______ ____
ROOT
ATOM      1  C   UNL     1       0.893  -4.498   1.817  0.00  0.00    +0.043 A 
ATOM      2  C   UNL     1       1.029  -3.629   2.912  0.00  0.00    +0.018 A 
ATOM      3  C   UNL     1       0.938  -4.110   4.179  0.00  0.00    +0.009 A 
ATOM      4  C   UNL     1       0.706  -5.488   4.394  0.00  0.00    -0.022 A 
ATOM      5  C   UNL     1       0.570  -6.359   3.288  0.00  0.00    +0.041 A 
ATOM      6  C   UNL     1       0.658  -5.867   2.026  0.00  0.00    +0.140 A 
ENDROOT
BRANCH   4   7
ATOM      7  C   UNL     1       0.612  -5.991   5.703  0.00  0.00    +0.028 C 
ATOM      8  C   UNL     1      -0.093  -5.278   6.677  0.00  0.00    +0.078 C 
ATOM      9  C   UNL     1      -0.945  -4.080   6.509  0.00  0.00    +0.256 C 
ATOM     10  O   UNL     1      -1.137  -3.550   5.431  0.00  0.00    -0.269 OA
ATOM     11  N   UNL     1      -1.482  -3.635   7.639  0.00  0.00    -0.260 N 
ATOM     12  C   UNL     1      -1.195  -4.313   8.792  0.00  0.00    +0.166 C 
ATOM     13  N   UNL     1      -1.624  -4.037  10.015  0.00  0.00    -0.226 NA
ATOM     14  S   UNL     1      -0.189  -5.571   8.327  0.00  0.00    -0.049 S 
ATOM     15  H   UNL     1      -2.059  -2.855   7.647  0.00  0.00    +0.157 HD
BRANCH  13  16
ATOM     16  C   UNL     1      -1.248  -4.805  11.046  0.00  0.00    +0.067 A 
ATOM     17  C   UNL     1      -1.268  -6.213  10.928  0.00  0.00    +0.031 A 
ATOM     18  C   UNL     1      -0.884  -6.986  11.980  0.00  0.00    +0.048 A 
ATOM     19  C   UNL     1      -0.472  -6.391  13.176  0.00  0.00    +0.120 A 
ATOM     20  C   UNL     1      -0.449  -4.999  13.302  0.00  0.00    +0.048 A 
ATOM     21  C   UNL     1      -0.824  -4.211  12.257  0.00  0.00    +0.031 A 
BRANCH  19  22
ATOM     22  O   UNL     1      -0.092  -7.167  14.218  0.00  0.00    -0.495 OA
ATOM     23  C   UNL     1       0.318  -6.496  15.411  0.00  0.00    +0.277 C 
ENDBRANCH  19  22
ENDBRANCH  13  16
ENDBRANCH   4   7
BRANCH   6  24
ATOM     24  N   UNL     1       0.510  -6.776   0.867  0.00  0.00    +0.058 N 
ATOM     25  O   UNL     1       0.289  -8.059   1.061  0.00  0.00    -0.126 OA
ATOM     26  O   UNL     1       0.600  -6.301  -0.358  0.00  0.00    -0.126 OA
ENDBRANCH   6  24
BRANCH   1  27
ATOM     27  S   UNL     1       1.012  -3.868   0.176  0.00  0.00    -0.087 S 
BRANCH  27  32
ATOM     28  C   UNL     1       2.537   1.923   0.942  0.00  0.00    +0.044 C 
ATOM     29  C   UNL     1       2.156   0.477   0.751  0.00  0.00    -0.050 A 
ATOM     30  C   UNL     1       3.138  -0.498   0.732  0.00  0.00    +0.004 A 
ATOM     31  C   UNL     1       2.794  -1.823   0.558  0.00  0.00    +0.015 A 
ATOM     32  C   UNL     1       1.457  -2.178   0.400  0.00  0.00    +0.013 A 
ATOM     33  C   UNL     1       0.473  -1.193   0.419  0.00  0.00    +0.015 A 
ATOM     34  C   UNL     1       0.826   0.129   0.600  0.00  0.00    +0.004 A 
ENDBRANCH  27  32
ENDBRANCH   1  27
TORSDOF 6
