REMARK  Name = ZINC65265704
REMARK  6 active torsions:
REMARK  status: ('A' for Active; 'I' for Inactive)
REMARK    1  A    between atoms: C_1  and  C_2
REMARK    2  A    between atoms: C_3  and  C_8
REMARK    3  A    between atoms: C_4  and  C_7
REMARK    4  A    between atoms: C_8  and  C_9
REMARK    5  A    between atoms: N_26  and  C_27
REMARK    6  A    between atoms: C_27  and  C_28
REMARK                            x       y       z     vdW  Elec       q    Type
REMARK                         _______ _______ _______ _____ _____    ______ ____
ROOT
ATOM      1  C   UNL     1       1.411  -0.170  -3.054  0.00  0.00    +0.220 C 
ATOM      2  O   UNL     1       2.340  -0.406  -2.311  0.00  0.00    -0.275 OA
ATOM      3  N   UNL     1       1.645   0.252  -4.312  0.00  0.00    -0.299 N 
ATOM      4  C   UNL     1       0.531   0.548  -5.223  0.00  0.00    +0.108 C 
ATOM      5  C   UNL     1       0.723  -0.253  -6.515  0.00  0.00    +0.021 C 
ATOM      6  C   UNL     1       2.104   0.051  -7.099  0.00  0.00    +0.036 C 
ATOM      7  C   UNL     1       3.185  -0.358  -6.102  0.00  0.00    +0.102 C 
ATOM      8  C   UNL     1       3.021   0.431  -4.799  0.00  0.00    +0.141 C 
ATOM      9  C   UNL     1       4.553  -0.084  -6.691  0.00  0.00    +0.099 C 
ATOM     10  N   UNL     1       5.637  -0.607  -6.008  0.00  0.00    -0.286 N 
ATOM     11  C   UNL     1       5.494  -1.876  -5.434  0.00  0.00    +0.145 A 
ATOM     12  C   UNL     1       4.230  -2.461  -5.338  0.00  0.00    +0.069 A 
ATOM     13  C   UNL     1       4.104  -3.714  -4.757  0.00  0.00    +0.028 A 
ATOM     14  C   UNL     1       5.253  -4.344  -4.295  0.00  0.00    +0.022 A 
ATOM     15  C   UNL     1       6.471  -3.709  -4.426  0.00  0.00    +0.113 A 
ATOM     16  N   UNL     1       6.561  -2.515  -4.981  0.00  0.00    -0.238 NA
ATOM     17  N   UNL     1       3.097  -1.799  -5.831  0.00  0.00    -0.328 N 
ATOM     18  N   UNL     1       4.701   0.603  -7.777  0.00  0.00    -0.370 N 
ATOM     19  H   UNL     1       2.271  -2.283  -5.989  0.00  0.00    +0.147 HD
ATOM     20  H   UNL     1       3.924   0.958  -8.236  0.00  0.00    +0.161 HD
ATOM     21  H   UNL     1       6.467  -0.111  -5.929  0.00  0.00    +0.155 HD
ENDROOT
BRANCH   1  22
ATOM     22  C   UNL     1      -0.005  -0.348  -2.571  0.00  0.00    +0.136 C 
BRANCH  22  25
ATOM     23  C   UNL     1      -0.018   1.503   0.010  0.00  0.00    +0.069 C 
ATOM     24  C   UNL     1       0.002  -0.004   0.002  0.00  0.00    +0.084 A 
ATOM     25  C   UNL     1       0.008  -0.824  -1.141  0.00  0.00    +0.026 A 
ATOM     26  C   UNL     1       0.027  -2.108  -0.735  0.00  0.00    +0.138 A 
ATOM     27  O   UNL     1       0.034  -2.119   0.606  0.00  0.00    -0.359 OA
ATOM     28  N   UNL     1       0.023  -0.775   1.052  0.00  0.00    -0.083 NA
ATOM     29  C   UNL     1       0.039  -3.320  -1.631  0.00  0.00    +0.089 C 
ENDBRANCH  22  25
ENDBRANCH   1  22
BRANCH  18  30
ATOM     30  C   UNL     1       6.043   0.845  -8.313  0.00  0.00    +0.149 C 
BRANCH  30  31
ATOM     31  C   UNL     1       5.939   1.664  -9.574  0.00  0.00    -0.028 A 
ATOM     32  C   UNL     1       5.809   1.035 -10.798  0.00  0.00    +0.005 A 
ATOM     33  C   UNL     1       5.714   1.786 -11.955  0.00  0.00    +0.000 A 
ATOM     34  C   UNL     1       5.748   3.166 -11.888  0.00  0.00    +0.000 A 
ATOM     35  C   UNL     1       5.878   3.795 -10.664  0.00  0.00    +0.000 A 
ATOM     36  C   UNL     1       5.968   3.044  -9.507  0.00  0.00    +0.005 A 
ENDBRANCH  30  31
ENDBRANCH  18  30
TORSDOF 4
