REMARK  Name = ZINC20673156
REMARK  5 active torsions:
REMARK  status: ('A' for Active; 'I' for Inactive)
REMARK    1  A    between atoms: C_1  and  C_2
REMARK    2  A    between atoms: C_2  and  N_3
REMARK    3  A    between atoms: C_13  and  C_16
REMARK    4  A    between atoms: C_20  and  C_24
REMARK    5  A    between atoms: C_20  and  C_25
REMARK                            x       y       z     vdW  Elec       q    Type
REMARK                         _______ _______ _______ _____ _____    ______ ____
ROOT
ATOM      1  N   UNL     1      -3.454   0.701  -3.652  0.00  0.00    -0.329 N 
ATOM      2  C   UNL     1      -2.101   0.441  -3.649  0.00  0.00    +0.135 A 
ATOM      3  C   UNL     1      -1.426   0.133  -2.448  0.00  0.00    +0.078 A 
ATOM      4  C   UNL     1      -0.054  -0.129  -2.491  0.00  0.00    +0.059 A 
ATOM      5  N   UNL     1       0.564  -0.073  -3.659  0.00  0.00    -0.218 NA
ATOM      6  C   UNL     1      -0.099   0.221  -4.771  0.00  0.00    +0.220 A 
ATOM      7  N   UNL     1      -1.400   0.473  -4.778  0.00  0.00    -0.199 NA
ATOM      8  N   UNL     1       0.592   0.267  -5.963  0.00  0.00    -0.300 N 
ATOM      9  C   UNL     1       1.719   1.205  -5.882  0.00  0.00    +0.108 C 
ATOM     10  C   UNL     1       2.547   1.122  -7.167  0.00  0.00    +0.032 C 
ATOM     11  C   UNL     1       1.657   1.466  -8.364  0.00  0.00    +0.078 C 
ATOM     12  C   UNL     1       0.465   0.506  -8.398  0.00  0.00    +0.032 C 
ATOM     13  C   UNL     1      -0.302   0.607  -7.077  0.00  0.00    +0.108 C 
ATOM     14  C   UNL     1       0.721  -0.476  -1.251  0.00  0.00    +0.063 C 
ATOM     15  C   UNL     1       0.008   0.028   0.002  0.00  0.00    -0.022 C 
ATOM     16  C   UNL     1      -1.431  -0.503   0.020  0.00  0.00    +0.086 C 
ATOM     17  C   UNL     1      -2.150   0.090  -1.175  0.00  0.00    +0.169 C 
ATOM     18  O   UNL     1      -3.283   0.514  -1.081  0.00  0.00    -0.292 OA
ATOM     19  C   UNL     1      -0.013   1.557  -0.003  0.00  0.00    +0.011 C 
ATOM     20  C   UNL     1       0.750  -0.469   1.245  0.00  0.00    +0.011 C 
ATOM     21  H   UNL     1      -4.038   0.582  -2.728  0.00  0.00    +0.147 HD
ENDROOT
BRANCH  11  22
ATOM     22  C   UNL     1       2.450   1.329  -9.639  0.00  0.00    +0.214 C 
ATOM     23  O   UNL     1       2.097   0.541 -10.490  0.00  0.00    -0.276 OA
ATOM     24  N   UNL     1       3.550   2.083  -9.832  0.00  0.00    -0.329 N 
ATOM     25  H   UNL     1       4.129   1.983 -10.762  0.00  0.00    +0.145 HD
ATOM     26  H   UNL     1       3.870   2.797  -9.059  0.00  0.00    +0.145 HD
ENDBRANCH  11  22
BRANCH   1  28
ATOM     27  C   UNL     1      -5.604   1.354  -4.616  0.00  0.00    +0.024 C 
ATOM     28  C   UNL     1      -4.114   1.135  -4.885  0.00  0.00    +0.099 C 
ENDBRANCH   1  28
TORSDOF 2
