REMARK  Name = ZINC07553565
REMARK  8 active torsions:
REMARK  status: ('A' for Active; 'I' for Inactive)
REMARK    1  A    between atoms: C_1  and  C_2
REMARK    2  A    between atoms: C_2  and  N_3
REMARK    3  A    between atoms: N_3  and  C_4
REMARK    4  A    between atoms: C_4  and  C_5
REMARK    5  A    between atoms: C_6  and  C_8
REMARK    6  A    between atoms: C_9  and  C_25
REMARK    7  A    between atoms: C_14  and  C_16
REMARK    8  A    between atoms: C_19  and  N_22
REMARK                            x       y       z     vdW  Elec       q    Type
REMARK                         _______ _______ _______ _____ _____    ______ ____
ROOT
ATOM      1  C   UNL     1       1.166   1.811   0.072  0.00  0.00    +0.056 C 
ATOM      2  C   UNL     1       2.326   1.144   0.243  0.00  0.00    +0.017 C 
ATOM      3  N   UNL     1       3.509   1.811   0.383  0.00  0.00    -0.300 N 
ATOM      4  C   UNL     1       3.616   3.146   0.363  0.00  0.00    +0.135 C 
ATOM      5  S   UNL     1       5.162   3.856   0.551  0.00  0.00    -0.019 S 
ATOM      6  N   UNL     1       2.545   3.948   0.201  0.00  0.00    -0.315 N 
ATOM      7  C   UNL     1       1.221   3.325   0.035  0.00  0.00    +0.139 C 
ATOM      8  C   UNL     1       2.316  -0.363   0.279  0.00  0.00    +0.061 C 
ATOM      9  H   UNL     1       4.318   1.289   0.504  0.00  0.00    +0.154 HD
ATOM     10  H   UNL     1       2.645   4.913   0.190  0.00  0.00    +0.149 HD
ENDROOT
BRANCH   7  11
ATOM     11  C   UNL     1       0.651   3.779  -1.284  0.00  0.00    -0.023 A 
ATOM     12  C   UNL     1       1.456   3.818  -2.408  0.00  0.00    +0.008 A 
ATOM     13  C   UNL     1       0.931   4.230  -3.619  0.00  0.00    +0.033 A 
ATOM     14  C   UNL     1      -0.394   4.612  -3.704  0.00  0.00    +0.126 A 
ATOM     15  C   UNL     1      -1.197   4.578  -2.579  0.00  0.00    +0.033 A 
ATOM     16  C   UNL     1      -0.674   4.161  -1.369  0.00  0.00    +0.008 A 
BRANCH  14  17
ATOM     17  N   UNL     1      -0.954   5.059  -5.000  0.00  0.00    +0.056 N 
ATOM     18  O   UNL     1      -2.122   5.395  -5.075  0.00  0.00    -0.126 OA
ATOM     19  O   UNL     1      -0.247   5.089  -5.990  0.00  0.00    -0.126 OA
ENDBRANCH  14  17
ENDBRANCH   7  11
BRANCH   1  21
ATOM     20  N   UNL     1      -0.670   0.590   1.006  0.00  0.00    -0.298 N 
ATOM     21  C   UNL     1      -0.062   1.120  -0.074  0.00  0.00    +0.246 C 
ATOM     22  O   UNL     1      -0.571   1.008  -1.175  0.00  0.00    -0.270 OA
BRANCH  20  24
ATOM     23  C   UNL     1      -1.474  -1.694   0.666  0.00  0.00    +0.024 C 
ATOM     24  C   UNL     1      -1.874  -0.228   0.842  0.00  0.00    +0.104 C 
ENDBRANCH  20  24
BRANCH  20  25
ATOM     25  C   UNL     1      -0.127   0.833   2.345  0.00  0.00    +0.104 C 
ATOM     26  C   UNL     1      -0.845   2.026   2.978  0.00  0.00    +0.024 C 
ENDBRANCH  20  25
ENDBRANCH   1  21
TORSDOF 5
