REMARK  Name = ZINC20734040
REMARK  5 active torsions:
REMARK  status: ('A' for Active; 'I' for Inactive)
REMARK    1  A    between atoms: C_1  and  O_2
REMARK    2  A    between atoms: O_2  and  C_3
REMARK    3  A    between atoms: C_3  and  C_5
REMARK    4  A    between atoms: C_5  and  N_6
REMARK    5  A    between atoms: C_18  and  C_20
REMARK                            x       y       z     vdW  Elec       q    Type
REMARK                         _______ _______ _______ _____ _____    ______ ____
ROOT
ATOM      1  N   UNL     1       1.084  -4.478  -1.887  0.00  0.00    -0.289 N 
ATOM      2  C   UNL     1       1.656  -3.643  -2.777  0.00  0.00    +0.303 C 
ATOM      3  O   UNL     1       1.522  -2.441  -2.656  0.00  0.00    -0.253 OA
ATOM      4  N   UNL     1       2.376  -4.141  -3.802  0.00  0.00    -0.273 N 
ATOM      5  C   UNL     1       3.104  -3.249  -4.716  0.00  0.00    +0.116 C 
ATOM      6  C   UNL     1       4.609  -3.509  -4.581  0.00  0.00    +0.076 C 
ATOM      7  C   UNL     1       4.848  -4.998  -4.580  0.00  0.00    +0.066 A 
ATOM      8  C   UNL     1       3.895  -5.923  -4.334  0.00  0.00    +0.064 A 
ATOM      9  N   UNL     1       4.487  -7.145  -4.416  0.00  0.00    -0.346 N 
ATOM     10  H   UNL     1       4.058  -8.004  -4.285  0.00  0.00    +0.167 HD
ATOM     11  C   UNL     1       5.790  -6.932  -4.714  0.00  0.00    +0.197 A 
ATOM     12  N   UNL     1       5.995  -5.645  -4.811  0.00  0.00    -0.240 NA
ATOM     13  C   UNL     1       2.458  -5.595  -4.032  0.00  0.00    +0.159 C 
ATOM     14  H   UNL     1       1.128  -5.437  -2.023  0.00  0.00    +0.151 HD
ENDROOT
BRANCH  13  15
ATOM     15  C   UNL     1       1.591  -5.979  -5.203  0.00  0.00    +0.017 A 
ATOM     16  C   UNL     1       2.168  -6.256  -6.428  0.00  0.00    +0.047 A 
ATOM     17  C   UNL     1       1.371  -6.609  -7.504  0.00  0.00    +0.124 A 
ATOM     18  C   UNL     1      -0.003  -6.686  -7.352  0.00  0.00    +0.041 A 
ATOM     19  C   UNL     1      -0.579  -6.410  -6.127  0.00  0.00    +0.041 A 
ATOM     20  C   UNL     1       0.218  -6.061  -5.050  0.00  0.00    +0.129 A 
ATOM     21  F   UNL     1      -0.345  -5.796  -3.851  0.00  0.00    -0.205 F 
ATOM     22  F   UNL     1       1.935  -6.879  -8.702  0.00  0.00    -0.205 F 
ENDBRANCH  13  15
BRANCH   1  23
ATOM     23  C   UNL     1       0.396  -3.936  -0.712  0.00  0.00    +0.226 C 
BRANCH  23  24
ATOM     24  C   UNL     1      -0.151  -5.069   0.117  0.00  0.00    +0.324 C 
ATOM     25  O   UNL     1       0.017  -6.213  -0.237  0.00  0.00    -0.249 OA
BRANCH  24  27
ATOM     26  C   UNL     1      -1.315  -5.932   1.984  0.00  0.00    +0.280 C 
ATOM     27  O   UNL     1      -0.825  -4.809   1.248  0.00  0.00    -0.467 OA
ENDBRANCH  24  27
ENDBRANCH  23  24
ENDBRANCH   1  23
TORSDOF 4
