REMARK  Name = ZINC40169051
REMARK  6 active torsions:
REMARK  status: ('A' for Active; 'I' for Inactive)
REMARK    1  A    between atoms: C_1  and  C_2
REMARK    2  A    between atoms: C_2  and  C_4
REMARK    3  A    between atoms: C_2  and  O_18
REMARK    4  A    between atoms: C_9  and  C_12
REMARK    5  A    between atoms: O_18  and  C_19
REMARK    6  A    between atoms: C_29  and  C_30
REMARK                            x       y       z     vdW  Elec       q    Type
REMARK                         _______ _______ _______ _____ _____    ______ ____
ROOT
ATOM      1  C   UNL     1       0.054   1.629  -0.053  0.00  0.00    +0.062 C 
ATOM      2  C   UNL     1       0.058   0.102   0.045  0.00  0.00    +0.256 C 
ENDROOT
BRANCH   2   3
ATOM      3  C   UNL     1      -1.354  -0.395   0.220  0.00  0.00    +0.259 C 
ATOM      4  O   UNL     1      -1.883  -1.039  -0.660  0.00  0.00    -0.271 OA
ATOM      5  N   UNL     1      -2.029  -0.122   1.354  0.00  0.00    -0.262 N 
ATOM      6  C   UNL     1      -3.294  -0.659   1.556  0.00  0.00    +0.165 A 
ATOM      7  N   UNL     1      -4.110  -0.511   2.583  0.00  0.00    -0.225 NA
ATOM      8  C   UNL     1      -5.295  -1.102   2.610  0.00  0.00    +0.080 A 
ATOM      9  C   UNL     1      -5.681  -1.880   1.555  0.00  0.00    +0.076 A 
ATOM     10  S   UNL     1      -4.253  -1.727   0.491  0.00  0.00    -0.060 S 
ATOM     11  H   UNL     1      -1.631   0.449   2.030  0.00  0.00    +0.157 HD
BRANCH   8  12
ATOM     12  C   UNL     1      -6.195  -0.920   3.775  0.00  0.00    +0.001 A 
ATOM     13  C   UNL     1      -7.439  -1.549   3.803  0.00  0.00    +0.010 A 
ATOM     14  C   UNL     1      -8.272  -1.377   4.890  0.00  0.00    +0.001 A 
ATOM     15  C   UNL     1      -7.875  -0.582   5.950  0.00  0.00    +0.000 A 
ATOM     16  C   UNL     1      -6.642   0.045   5.928  0.00  0.00    +0.001 A 
ATOM     17  C   UNL     1      -5.798  -0.126   4.849  0.00  0.00    +0.010 A 
ENDBRANCH   8  12
ENDBRANCH   2   3
BRANCH   2  18
ATOM     18  O   UNL     1       0.613  -0.451  -1.150  0.00  0.00    -0.473 OA
BRANCH  18  19
ATOM     19  C   UNL     1       1.942  -0.741  -1.138  0.00  0.00    +0.215 A 
ATOM     20  C   UNL     1       2.446  -1.748  -0.283  0.00  0.00    +0.235 A 
ATOM     21  O   UNL     1       1.708  -2.378   0.458  0.00  0.00    -0.283 OA
ATOM     22  C   UNL     1       3.898  -2.010  -0.321  0.00  0.00    +0.068 A 
ATOM     23  C   UNL     1       4.477  -2.987   0.488  0.00  0.00    +0.015 A 
ATOM     24  C   UNL     1       5.835  -3.205   0.427  0.00  0.00    +0.001 A 
ATOM     25  C   UNL     1       6.625  -2.458  -0.435  0.00  0.00    +0.004 A 
ATOM     26  C   UNL     1       6.065  -1.489  -1.241  0.00  0.00    +0.047 A 
ATOM     27  C   UNL     1       4.696  -1.254  -1.194  0.00  0.00    +0.140 A 
ATOM     28  O   UNL     1       4.133  -0.310  -1.977  0.00  0.00    -0.448 OA
ATOM     29  C   UNL     1       2.812  -0.058  -1.963  0.00  0.00    +0.216 A 
BRANCH  29  30
ATOM     30  C   UNL     1       2.279   0.979  -2.849  0.00  0.00    +0.173 A 
ATOM     31  C   UNL     1       2.988   1.675  -3.788  0.00  0.00    +0.053 A 
ATOM     32  C   UNL     1       2.086   2.561  -4.401  0.00  0.00    +0.042 A 
ATOM     33  C   UNL     1       0.884   2.370  -3.817  0.00  0.00    +0.196 A 
ATOM     34  O   UNL     1       1.002   1.412  -2.886  0.00  0.00    -0.460 OA
ENDBRANCH  29  30
ENDBRANCH  18  19
ENDBRANCH   2  18
TORSDOF 5
