REMARK  Name = ZINC36089427
REMARK  8 active torsions:
REMARK  status: ('A' for Active; 'I' for Inactive)
REMARK    1  A    between atoms: C_1  and  C_2
REMARK    2  A    between atoms: C_3  and  C_14
REMARK    3  A    between atoms: C_5  and  C_7
REMARK    4  A    between atoms: C_14  and  N_15
REMARK    5  A    between atoms: C_19  and  C_22
REMARK    6  A    between atoms: N_24  and  C_25
REMARK    7  A    between atoms: C_30  and  C_35
REMARK    8  A    between atoms: C_32  and  C_34
REMARK                            x       y       z     vdW  Elec       q    Type
REMARK                         _______ _______ _______ _____ _____    ______ ____
ROOT
ATOM      1  N   UNL     1      -2.989  -0.232  -1.369  0.00  0.00    +0.384 N 
ATOM      2  C   UNL     1      -2.974  -1.540  -2.035  0.00  0.00    -0.078 C 
ATOM      3  C   UNL     1      -3.391  -1.377  -3.498  0.00  0.00    -0.018 C 
ATOM      4  C   UNL     1      -4.803  -0.788  -3.558  0.00  0.00    +0.009 C 
ATOM      5  C   UNL     1      -4.825   0.540  -2.797  0.00  0.00    +0.058 C 
ATOM      6  C   UNL     1      -4.355   0.306  -1.360  0.00  0.00    -0.066 C 
ATOM      7  H   UNL     1      -2.382   0.403  -1.866  0.00  0.00    -0.081 HD
ENDROOT
BRANCH   5   8
ATOM      8  C   UNL     1      -6.228   1.091  -2.785  0.00  0.00    +0.215 C 
ATOM      9  O   UNL     1      -6.795   1.281  -1.730  0.00  0.00    -0.276 OA
ATOM     10  N   UNL     1      -6.852   1.371  -3.946  0.00  0.00    -0.312 N 
ATOM     11  H   UNL     1      -6.398   1.219  -4.790  0.00  0.00    +0.149 HD
BRANCH  10  12
ATOM     12  C   UNL     1      -8.216   1.906  -3.934  0.00  0.00    +0.076 C 
ATOM     13  C   UNL     1      -9.216   0.752  -3.845  0.00  0.00    +0.022 C 
ATOM     14  C   UNL     1     -10.640   1.310  -3.833  0.00  0.00    +0.002 C 
ATOM     15  C   UNL     1     -10.888   2.102  -5.118  0.00  0.00    +0.003 C 
ATOM     16  C   UNL     1      -9.888   3.257  -5.207  0.00  0.00    -0.009 C 
ATOM     17  C   UNL     1      -8.464   2.698  -5.220  0.00  0.00    +0.009 C 
ATOM     18  C   UNL     1      -8.288   1.777  -6.428  0.00  0.00    +0.009 C 
ATOM     19  C   UNL     1     -10.136   4.049  -6.492  0.00  0.00    +0.008 C 
ENDBRANCH  10  12
ENDBRANCH   5   8
BRANCH   1  20
ATOM     20  C   UNL     1      -2.513  -0.381   0.012  0.00  0.00    -0.019 C 
BRANCH  20  23
ATOM     21  C   UNL     1      -0.018   1.503   0.010  0.00  0.00    +0.088 C 
ATOM     22  C   UNL     1       0.002  -0.004   0.002  0.00  0.00    +0.124 A 
ATOM     23  C   UNL     1      -1.070  -0.816   0.003  0.00  0.00    +0.066 A 
ATOM     24  N   UNL     1      -0.627  -2.083  -0.007  0.00  0.00    -0.216 NA
ATOM     25  C   UNL     1       0.685  -2.068  -0.013  0.00  0.00    +0.228 A 
ATOM     26  O   UNL     1       1.098  -0.788  -0.013  0.00  0.00    -0.440 OA
BRANCH  25  27
ATOM     27  C   UNL     1       1.562  -3.258  -0.023  0.00  0.00    +0.037 A 
ATOM     28  C   UNL     1       1.006  -4.538  -0.033  0.00  0.00    +0.014 A 
ATOM     29  C   UNL     1       1.829  -5.644  -0.042  0.00  0.00    +0.021 A 
ATOM     30  C   UNL     1       3.205  -5.487  -0.042  0.00  0.00    +0.041 A 
ATOM     31  C   UNL     1       3.762  -4.220  -0.032  0.00  0.00    +0.021 A 
ATOM     32  C   UNL     1       2.949  -3.106  -0.029  0.00  0.00    +0.014 A 
ATOM     33 CL   UNL     1       4.234  -6.885  -0.053  0.00  0.00    -0.084 Cl
ENDBRANCH  25  27
ENDBRANCH  20  23
ENDBRANCH   1  20
TORSDOF 5
