REMARK  Name = ZINC06932144
REMARK  7 active torsions:
REMARK  status: ('A' for Active; 'I' for Inactive)
REMARK    1  A    between atoms: C_1  and  C_2
REMARK    2  A    between atoms: C_2  and  N_3
REMARK    3  A    between atoms: N_3  and  C_4
REMARK    4  A    between atoms: C_6  and  C_11
REMARK    5  A    between atoms: C_9  and  C_10
REMARK    6  A    between atoms: N_14  and  C_15
REMARK    7  A    between atoms: N_17  and  C_26
REMARK                            x       y       z     vdW  Elec       q    Type
REMARK                         _______ _______ _______ _____ _____    ______ ____
ROOT
ATOM      1  N   UNL     1       2.457   3.719   0.017  0.00  0.00    -0.255 N 
ATOM      2  C   UNL     1       3.059   4.066   1.171  0.00  0.00    +0.311 C 
ATOM      3  O   UNL     1       2.662   3.608   2.226  0.00  0.00    -0.252 OA
ATOM      4  N   UNL     1       4.101   4.920   1.158  0.00  0.00    -0.267 N 
ATOM      5  H   UNL     1       4.465   5.228   0.313  0.00  0.00    +0.156 HD
ENDROOT
BRANCH   4   6
ATOM      6  C   UNL     1       4.660   5.365   2.366  0.00  0.00    +0.059 A 
ATOM      7  C   UNL     1       5.957   5.124   2.645  0.00  0.00    +0.112 A 
ATOM      8  N   UNL     1       6.543   5.540   3.811  0.00  0.00    -0.316 N 
ATOM      9  C   UNL     1       5.863   6.217   4.756  0.00  0.00    +0.259 A 
ATOM     10  O   UNL     1       6.420   6.569   5.781  0.00  0.00    -0.267 OA
ATOM     11  C   UNL     1       4.445   6.525   4.540  0.00  0.00    +0.048 A 
ATOM     12  C   UNL     1       3.841   6.101   3.335  0.00  0.00    +0.010 A 
ATOM     13  C   UNL     1       2.493   6.374   3.103  0.00  0.00    +0.010 A 
ATOM     14  C   UNL     1       1.771   7.059   4.042  0.00  0.00    +0.001 A 
ATOM     15  C   UNL     1       2.361   7.482   5.226  0.00  0.00    +0.001 A 
ATOM     16  C   UNL     1       3.689   7.222   5.483  0.00  0.00    +0.014 A 
ATOM     17  C   UNL     1       7.959   5.238   4.037  0.00  0.00    +0.152 C 
ENDBRANCH   4   6
BRANCH   1  18
ATOM     18  C   UNL     1       1.374   2.832   0.031  0.00  0.00    +0.041 A 
ATOM     19  C   UNL     1       0.079   3.317   0.156  0.00  0.00    +0.027 A 
ATOM     20  C   UNL     1      -0.987   2.439   0.170  0.00  0.00    -0.049 A 
ATOM     21  C   UNL     1      -0.766   1.079   0.055  0.00  0.00    +0.004 A 
ATOM     22  C   UNL     1       0.523   0.593  -0.064  0.00  0.00    +0.005 A 
ATOM     23  C   UNL     1       1.593   1.466  -0.079  0.00  0.00    -0.029 A 
ATOM     24  C   UNL     1       2.997   0.935  -0.214  0.00  0.00    +0.045 C 
ATOM     25  C   UNL     1      -2.393   2.965   0.305  0.00  0.00    +0.044 C 
ENDBRANCH   1  18
BRANCH   1  27
ATOM     26  C   UNL     1       2.193   5.574  -1.555  0.00  0.00    +0.025 C 
ATOM     27  C   UNL     1       2.935   4.271  -1.253  0.00  0.00    +0.112 C 
ENDBRANCH   1  27
TORSDOF 3
