REMARK  Name = ZINC43209061
REMARK  13 active torsions:
REMARK  status: ('A' for Active; 'I' for Inactive)
REMARK    1  A    between atoms: C_1  and  O_2
REMARK    2  A    between atoms: O_2  and  C_3
REMARK    3  A    between atoms: C_3  and  C_5
REMARK    4  A    between atoms: C_8  and  C_11
REMARK    5  A    between atoms: C_11  and  C_13
REMARK    6  A    between atoms: C_11  and  N_30
REMARK    7  A    between atoms: C_13  and  C_15
REMARK    8  A    between atoms: C_13  and  C_27
REMARK    9  A    between atoms: C_15  and  N_16
REMARK   10  A    between atoms: N_16  and  C_17
REMARK   11  A    between atoms: C_17  and  C_18
REMARK   12  A    between atoms: N_30  and  C_31
REMARK   13  A    between atoms: C_31  and  C_32
REMARK                            x       y       z     vdW  Elec       q    Type
REMARK                         _______ _______ _______ _____ _____    ______ ____
ROOT
ATOM      1  C   UNL     1       0.755  -6.253   1.233  0.00  0.00    -0.028 C 
ENDROOT
BRANCH   1   5
ATOM      2  C   UNL     1      -0.180  -2.091   1.540  0.00  0.00    +0.059 A 
ATOM      3  C   UNL     1      -0.705  -2.853   0.493  0.00  0.00    +0.015 A 
ATOM      4  C   UNL     1      -0.399  -4.195   0.401  0.00  0.00    +0.003 A 
ATOM      5  C   UNL     1       0.425  -4.787   1.341  0.00  0.00    -0.061 A 
ATOM      6  C   UNL     1       0.948  -4.038   2.381  0.00  0.00    +0.003 A 
ATOM      7  C   UNL     1       0.656  -2.694   2.482  0.00  0.00    +0.015 A 
BRANCH   2   8
ATOM      8  C   UNL     1      -0.503  -0.654   1.646  0.00  0.00    +0.339 C 
ATOM      9  O   UNL     1      -0.041   0.007   2.554  0.00  0.00    -0.245 OA
BRANCH   8  11
ATOM     10  C   UNL     1      -1.580   1.318   0.898  0.00  0.00    +0.280 C 
ATOM     11  O   UNL     1      -1.310  -0.076   0.735  0.00  0.00    -0.464 OA
ENDBRANCH   8  11
ENDBRANCH   2   8
ENDBRANCH   1   5
BRANCH   1  12
ATOM     12  N   UNL     1       2.168  -6.464   1.574  0.00  0.00    +0.387 N 
ATOM     13  H   UNL     1       2.356  -6.074   2.485  0.00  0.00    -0.085 HD
ATOM     14  H   UNL     1       2.368  -7.453   1.584  0.00  0.00    -0.085 HD
BRANCH  12  15
ATOM     15  C   UNL     1       3.017  -5.803   0.574  0.00  0.00    -0.046 C 
BRANCH  15  16
ATOM     16  C   UNL     1       4.462  -5.919   0.985  0.00  0.00    -0.061 A 
ATOM     17  C   UNL     1       5.033  -4.945   1.784  0.00  0.00    +0.005 A 
ATOM     18  C   UNL     1       6.358  -5.048   2.164  0.00  0.00    +0.050 A 
ATOM     19  C   UNL     1       7.117  -6.128   1.745  0.00  0.00    +0.166 A 
ATOM     20  C   UNL     1       6.543  -7.109   0.941  0.00  0.00    +0.166 A 
ATOM     21  C   UNL     1       5.213  -7.003   0.568  0.00  0.00    +0.051 A 
ATOM     22  O   UNL     1       7.487  -8.056   0.667  0.00  0.00    -0.453 OA
ATOM     23  C   UNL     1       8.751  -7.438   0.971  0.00  0.00    +0.466 C 
ATOM     24  O   UNL     1       8.421  -6.460   1.975  0.00  0.00    -0.453 OA
ENDBRANCH  15  16
ENDBRANCH  12  15
ENDBRANCH   1  12
BRANCH   1  25
ATOM     25  C   UNL     1      -0.127  -7.046   2.200  0.00  0.00    +0.075 C 
BRANCH  25  26
ATOM     26  C   UNL     1       0.096  -8.522   1.987  0.00  0.00    +0.356 C 
ATOM     27  O   UNL     1      -0.033  -9.298   2.918  0.00  0.00    -0.246 OA
ATOM     28  O   UNL     1       0.405  -8.939   0.884  0.00  0.00    -0.246 OA
ENDBRANCH  25  26
BRANCH  25  29
ATOM     29  C   UNL     1       0.237  -6.679   3.640  0.00  0.00    -0.069 C 
BRANCH  29  30
ATOM     30  N   UNL     1      -0.712  -7.317   4.562  0.00  0.00    +0.382 N 
ATOM     31  H   UNL     1      -1.647  -6.996   4.359  0.00  0.00    -0.085 HD
ATOM     32  H   UNL     1      -0.668  -8.319   4.450  0.00  0.00    -0.085 HD
BRANCH  30  33
ATOM     33  C   UNL     1      -0.363  -6.964   5.945  0.00  0.00    -0.047 C 
BRANCH  33  34
ATOM     34  C   UNL     1      -1.336  -7.619   6.891  0.00  0.00    -0.061 A 
ATOM     35  C   UNL     1      -2.496  -6.959   7.254  0.00  0.00    +0.005 A 
ATOM     36  C   UNL     1      -3.392  -7.556   8.121  0.00  0.00    +0.050 A 
ATOM     37  C   UNL     1      -3.129  -8.817   8.630  0.00  0.00    +0.166 A 
ATOM     38  C   UNL     1      -1.960  -9.482   8.265  0.00  0.00    +0.166 A 
ATOM     39  C   UNL     1      -1.070  -8.880   7.391  0.00  0.00    +0.051 A 
ATOM     40  O   UNL     1      -1.933 -10.694   8.893  0.00  0.00    -0.453 OA
ATOM     41  C   UNL     1      -2.893 -10.595   9.961  0.00  0.00    +0.466 C 
ATOM     42  O   UNL     1      -3.834  -9.613   9.486  0.00  0.00    -0.453 OA
ENDBRANCH  33  34
ENDBRANCH  30  33
ENDBRANCH  29  30
ENDBRANCH  25  29
ENDBRANCH   1  25
TORSDOF 12
