REMARK  Name = ZINC26361482
REMARK  6 active torsions:
REMARK  status: ('A' for Active; 'I' for Inactive)
REMARK    1  A    between atoms: C_1  and  C_2
REMARK    2  A    between atoms: C_2  and  C_4
REMARK    3  A    between atoms: C_2  and  N_17
REMARK    4  A    between atoms: N_6  and  C_7
REMARK    5  A    between atoms: N_20  and  S_23
REMARK    6  A    between atoms: S_23  and  C_26
REMARK                            x       y       z     vdW  Elec       q    Type
REMARK                         _______ _______ _______ _____ _____    ______ ____
ROOT
ATOM      1  C   UNL     1       4.879   0.654  -6.313  0.00  0.00    -0.004 C 
ATOM      2  C   UNL     1       3.839  -0.333  -5.778  0.00  0.00    +0.017 C 
ENDROOT
BRANCH   2   3
ATOM      3  N   UNL     1       4.106  -0.605  -4.359  0.00  0.00    +0.389 N 
ATOM      4  C   UNL     1       5.525  -0.916  -4.141  0.00  0.00    -0.060 C 
ATOM      5  C   UNL     1       5.729  -1.369  -2.691  0.00  0.00    +0.091 C 
ATOM      6  N   UNL     1       5.173  -0.340  -1.799  0.00  0.00    -0.180 NA
ATOM      7  C   UNL     1       3.797   0.120  -2.038  0.00  0.00    +0.091 C 
ATOM      8  C   UNL     1       3.672   0.518  -3.517  0.00  0.00    -0.060 C 
ATOM      9  H   UNL     1       3.521  -1.489  -4.067  0.00  0.00    -0.081 HD
BRANCH   6  10
ATOM     10  S   UNL     1       6.072   0.280  -0.553  0.00  0.00    +0.067 S 
ATOM     11  O   UNL     1       7.052  -0.698  -0.234  0.00  0.00    -0.152 OA
ATOM     12  O   UNL     1       5.148   0.774   0.407  0.00  0.00    -0.152 OA
BRANCH  10  13
ATOM     13  C   UNL     1       6.941   1.677  -1.183  0.00  0.00    +0.144 A 
ATOM     14  C   UNL     1       6.557   2.976  -1.216  0.00  0.00    +0.038 A 
ATOM     15  C   UNL     1       7.412   3.914  -1.765  0.00  0.00    +0.030 A 
ATOM     16  C   UNL     1       8.610   3.505  -2.254  0.00  0.00    +0.080 A 
ATOM     17  S   UNL     1       8.555   1.748  -1.942  0.00  0.00    -0.057 S 
ATOM     18 CL   UNL     1       9.866   4.446  -2.996  0.00  0.00    -0.076 Cl
ENDBRANCH  10  13
ENDBRANCH   6  10
ENDBRANCH   2   3
BRANCH   2  19
ATOM     19  C   UNL     1       3.918  -1.619  -6.560  0.00  0.00    +0.203 C 
ATOM     20  O   UNL     1       4.416  -2.604  -6.057  0.00  0.00    -0.277 OA
ATOM     21  N   UNL     1       3.436  -1.674  -7.817  0.00  0.00    -0.286 N 
ATOM     22  H   UNL     1       3.049  -0.763  -8.298  0.00  0.00    +0.155 HD
BRANCH  21  23
ATOM     23  C   UNL     1       3.428  -2.885  -8.508  0.00  0.00    +0.043 A 
ATOM     24  C   UNL     1       4.380  -3.846  -8.241  0.00  0.00    +0.024 A 
ATOM     25  C   UNL     1       4.374  -5.059  -8.922  0.00  0.00    +0.004 A 
ATOM     26  C   UNL     1       3.440  -5.327  -9.876  0.00  0.00    +0.028 A 
ATOM     27  C   UNL     1       2.455  -4.373 -10.184  0.00  0.00    +0.073 A 
ATOM     28  C   UNL     1       2.449  -3.137  -9.492  0.00  0.00    +0.022 A 
ATOM     29  C   UNL     1       1.462  -2.186  -9.803  0.00  0.00    +0.013 A 
ATOM     30  C   UNL     1       0.546  -2.498 -10.767  0.00  0.00    +0.020 A 
ATOM     31  C   UNL     1       0.607  -3.732 -11.410  0.00  0.00    +0.111 A 
ATOM     32  N   UNL     1       1.529  -4.617 -11.118  0.00  0.00    -0.255 NA
ENDBRANCH  21  23
ENDBRANCH   2  19
TORSDOF 5
