REMARK  Name = ZINC46995028
REMARK  6 active torsions:
REMARK  status: ('A' for Active; 'I' for Inactive)
REMARK    1  A    between atoms: C_1  and  N_2
REMARK    2  A    between atoms: C_4  and  C_7
REMARK    3  A    between atoms: C_7  and  C_8
REMARK    4  A    between atoms: C_8  and  N_9
REMARK    5  A    between atoms: N_12  and  N_13
REMARK    6  A    between atoms: C_14  and  C_16
REMARK                            x       y       z     vdW  Elec       q    Type
REMARK                         _______ _______ _______ _____ _____    ______ ____
ROOT
ATOM      1  N   UNL     1       1.497  -4.877  -2.729  0.00  0.00    -0.298 N 
ATOM      2  C   UNL     1       2.669  -5.407  -3.131  0.00  0.00    +0.316 C 
ATOM      3  O   UNL     1       3.717  -4.901  -2.779  0.00  0.00    -0.251 OA
ATOM      4  N   UNL     1       2.680  -6.497  -3.923  0.00  0.00    -0.218 N 
ATOM      5  H   UNL     1       0.661  -5.281  -3.010  0.00  0.00    +0.150 HD
ATOM      6  H   UNL     1       3.523  -6.878  -4.212  0.00  0.00    +0.174 HD
ENDROOT
BRANCH   4   7
ATOM      7  N   UNL     1       1.472  -7.080  -4.328  0.00  0.00    -0.228 N 
ATOM      8  C   UNL     1       1.483  -8.171  -5.120  0.00  0.00    +0.276 C 
ATOM      9  O   UNL     1       2.541  -8.649  -5.483  0.00  0.00    -0.267 OA
ATOM     10  H   UNL     1       0.628  -6.699  -4.039  0.00  0.00    +0.173 HD
BRANCH   8  11
ATOM     11  C   UNL     1       0.218  -8.781  -5.545  0.00  0.00    +0.104 A 
ATOM     12  C   UNL     1       0.080  -9.896  -6.344  0.00  0.00    +0.047 A 
ATOM     13  C   UNL     1      -1.292 -10.127  -6.494  0.00  0.00    +0.036 A 
ATOM     14  C   UNL     1      -1.952  -9.170  -5.798  0.00  0.00    +0.098 A 
ATOM     15  N   UNL     1      -1.046  -8.349  -5.212  0.00  0.00    -0.356 N 
ATOM     16  H   UNL     1      -1.253  -7.584  -4.654  0.00  0.00    +0.166 HD
ATOM     17 BR   UNL     1      -2.084 -11.525  -7.490  0.00  0.00    -0.049 Br
ENDBRANCH   8  11
ENDBRANCH   4   7
BRANCH   1  18
ATOM     18  C   UNL     1       1.485  -3.692  -1.868  0.00  0.00    +0.110 C 
BRANCH  18  19
ATOM     19  C   UNL     1       0.039  -3.298  -1.561  0.00  0.00    +0.057 C 
BRANCH  19  23
ATOM     20  C   UNL     1      -0.018   1.461   0.010  0.00  0.00    +0.172 C 
ATOM     21  N   UNL     1       0.002  -0.004   0.002  0.00  0.00    -0.274 N 
ATOM     22  C   UNL     1       0.008  -0.792  -1.094  0.00  0.00    +0.111 A 
ATOM     23  C   UNL     1       0.027  -2.079  -0.676  0.00  0.00    -0.008 A 
ATOM     24  C   UNL     1       0.034  -2.078   0.723  0.00  0.00    +0.138 A 
ATOM     25  N   UNL     1       0.025  -0.834   1.130  0.00  0.00    -0.180 NA
ENDBRANCH  19  23
ENDBRANCH  18  19
ENDBRANCH   1  18
TORSDOF 5
