REMARK  Name = ZINC33468518
REMARK  11 active torsions:
REMARK  status: ('A' for Active; 'I' for Inactive)
REMARK    1  A    between atoms: C_1  and  C_2
REMARK    2  A    between atoms: C_2  and  C_3
REMARK    3  A    between atoms: C_3  and  C_4
REMARK    4  A    between atoms: C_4  and  C_5
REMARK    5  A    between atoms: C_5  and  N_6
REMARK    6  A    between atoms: C_10  and  C_11
REMARK    7  A    between atoms: C_12  and  N_23
REMARK    8  A    between atoms: C_15  and  C_22
REMARK    9  A    between atoms: N_23  and  C_24
REMARK   10  A    between atoms: C_24  and  C_25
REMARK   11  A    between atoms: C_25  and  C_26
REMARK                            x       y       z     vdW  Elec       q    Type
REMARK                         _______ _______ _______ _____ _____    ______ ____
ROOT
ATOM      1  C   UNL     1       1.045   2.014  -0.030  0.00  0.00    +0.081 A 
ATOM      2  C   UNL     1       2.384   1.606   0.174  0.00  0.00    +0.134 A 
ATOM      3  N   UNL     1       3.355   2.507   0.132  0.00  0.00    -0.214 NA
ATOM      4  C   UNL     1       3.104   3.796  -0.097  0.00  0.00    +0.145 A 
ATOM      5  C   UNL     1       4.175   4.707  -0.130  0.00  0.00    -0.007 A 
ATOM      6  C   UNL     1       3.929   6.027  -0.364  0.00  0.00    +0.008 A 
ATOM      7  C   UNL     1       2.611   6.458  -0.569  0.00  0.00    +0.019 A 
ATOM      8  C   UNL     1       1.593   5.569  -0.534  0.00  0.00    +0.096 A 
ATOM      9  N   UNL     1       1.829   4.247  -0.301  0.00  0.00    -0.267 N 
ATOM     10  C   UNL     1       0.791   3.384  -0.278  0.00  0.00    +0.267 A 
ATOM     11  O   UNL     1      -0.347   3.780  -0.464  0.00  0.00    -0.267 OA
ATOM     12  C   UNL     1       5.587   4.226   0.092  0.00  0.00    +0.047 C 
ENDROOT
BRANCH   1  17
ATOM     13  N   UNL     1      -2.022   1.859   2.969  0.00  0.00    -0.255 N 
ATOM     14  C   UNL     1      -0.994   1.982   2.147  0.00  0.00    +0.258 C 
ATOM     15  O   UNL     1      -0.109   2.790   2.368  0.00  0.00    -0.269 OA
ATOM     16  C   UNL     1      -0.951   1.144   0.997  0.00  0.00    +0.077 C 
ATOM     17  C   UNL     1      -0.013   1.076   0.008  0.00  0.00    +0.037 C 
ATOM     18  S   UNL     1      -2.462   0.211   1.197  0.00  0.00    -0.061 S 
ATOM     19  C   UNL     1      -3.004   0.963   2.724  0.00  0.00    +0.121 C 
ATOM     20  S   UNL     1      -4.412   0.636   3.641  0.00  0.00    -0.027 S 
BRANCH  13  21
ATOM     21  C   UNL     1      -2.099   2.706   4.162  0.00  0.00    +0.115 C 
BRANCH  21  22
ATOM     22  C   UNL     1      -2.847   3.997   3.824  0.00  0.00    +0.019 C 
BRANCH  22  23
ATOM     23  C   UNL     1      -2.927   4.881   5.070  0.00  0.00    +0.001 C 
BRANCH  23  25
ATOM     24  C   UNL     1      -3.755   7.057   5.978  0.00  0.00    +0.004 C 
ATOM     25  C   UNL     1      -3.675   6.172   4.732  0.00  0.00    -0.003 C 
ENDBRANCH  23  25
ENDBRANCH  22  23
ENDBRANCH  21  22
ENDBRANCH  13  21
ENDBRANCH   1  17
BRANCH   2  26
ATOM     26  N   UNL     1       2.677   0.281   0.414  0.00  0.00    -0.328 N 
ATOM     27  H   UNL     1       1.868  -0.463   0.448  0.00  0.00    +0.147 HD
BRANCH  26  28
ATOM     28  C   UNL     1       4.066  -0.136   0.624  0.00  0.00    +0.102 C 
BRANCH  28  29
ATOM     29  C   UNL     1       4.114  -1.645   0.868  0.00  0.00    +0.015 C 
ATOM     30  C   UNL     1       5.564  -2.081   1.087  0.00  0.00    +0.005 C 
ENDBRANCH  28  29
ENDBRANCH  26  28
ENDBRANCH   2  26
TORSDOF 8
