REMARK  Name = ZINC58152869
REMARK  6 active torsions:
REMARK  status: ('A' for Active; 'I' for Inactive)
REMARK    1  A    between atoms: C_1  and  C_2
REMARK    2  A    between atoms: C_15  and  C_17
REMARK    3  A    between atoms: C_17  and  N_18
REMARK    4  A    between atoms: N_18  and  C_19
REMARK    5  A    between atoms: C_24  and  N_25
REMARK    6  A    between atoms: N_25  and  C_26
REMARK                            x       y       z     vdW  Elec       q    Type
REMARK                         _______ _______ _______ _____ _____    ______ ____
ROOT
ATOM      1  N   UNL     1      -0.221  -1.904   4.455  0.00  0.00    -0.334 N 
ATOM      2  H   UNL     1      -1.166  -1.718   4.337  0.00  0.00    +0.147 HD
ENDROOT
BRANCH   1   3
ATOM      3  C   UNL     1       0.243  -2.415   5.668  0.00  0.00    +0.047 A 
ATOM      4  C   UNL     1       1.608  -2.566   5.883  0.00  0.00    +0.025 A 
ATOM      5  C   UNL     1       2.064  -3.072   7.085  0.00  0.00    +0.002 A 
ATOM      6  C   UNL     1       1.165  -3.428   8.073  0.00  0.00    +0.002 A 
ATOM      7  C   UNL     1      -0.194  -3.280   7.862  0.00  0.00    +0.023 A 
ATOM      8  C   UNL     1      -0.657  -2.769   6.665  0.00  0.00    +0.033 A 
BRANCH   8   9
ATOM      9  N   UNL     1      -2.030  -2.613   6.455  0.00  0.00    -0.399 NA
ATOM     10  H   UNL     1      -2.487  -2.433   7.337  0.00  0.00    +0.124 HD
ATOM     11  H   UNL     1      -2.189  -1.838   5.829  0.00  0.00    +0.124 HD
BRANCH   9  12
ATOM     12  C   UNL     1      -2.577  -3.841   5.862  0.00  0.00    +0.017 C 
ATOM     13  C   UNL     1      -2.462  -4.988   6.869  0.00  0.00    +0.027 C 
ATOM     14  C   UNL     1      -3.032  -6.267   6.251  0.00  0.00    -0.008 C 
ATOM     15  C   UNL     1      -4.503  -6.048   5.892  0.00  0.00    +0.007 C 
ATOM     16  C   UNL     1      -4.618  -4.901   4.886  0.00  0.00    -0.008 C 
ATOM     17  C   UNL     1      -4.048  -3.623   5.504  0.00  0.00    +0.027 C 
ATOM     18  C   UNL     1      -3.831  -5.252   3.622  0.00  0.00    +0.007 C 
ATOM     19  C   UNL     1      -2.360  -5.470   3.981  0.00  0.00    -0.008 C 
ATOM     20  C   UNL     1      -2.245  -6.617   4.987  0.00  0.00    +0.007 C 
ATOM     21  C   UNL     1      -1.790  -4.191   4.598  0.00  0.00    +0.027 C 
ENDBRANCH   9  12
ENDBRANCH   8   9
ENDBRANCH   1   3
BRANCH   1  22
ATOM     22  C   UNL     1       0.718  -1.648   3.360  0.00  0.00    +0.198 C 
BRANCH  22  36
ATOM     23  C   UNL     1       0.133   1.251  -0.205  0.00  0.00    +0.029 C 
ATOM     24  C   UNL     1      -0.084  -0.261  -0.121  0.00  0.00    +0.087 C 
ATOM     25  C   UNL     1       0.441  -0.921  -1.397  0.00  0.00    +0.118 C 
ATOM     26  C   UNL     1       0.606  -2.402  -1.185  0.00  0.00    +0.219 C 
ATOM     27  O   UNL     1      -0.201  -3.173  -1.662  0.00  0.00    -0.275 OA
ATOM     28  N   UNL     1       1.646  -2.879  -0.468  0.00  0.00    -0.284 N 
ATOM     29  C   UNL     1       2.531  -2.000   0.169  0.00  0.00    +0.055 A 
ATOM     30  C   UNL     1       3.901  -2.145   0.026  0.00  0.00    +0.025 A 
ATOM     31  C   UNL     1       4.756  -1.279   0.684  0.00  0.00    +0.002 A 
ATOM     32  C   UNL     1       4.248  -0.271   1.483  0.00  0.00    +0.002 A 
ATOM     33  C   UNL     1       2.881  -0.115   1.623  0.00  0.00    +0.025 A 
ATOM     34  C   UNL     1       2.018  -0.971   0.958  0.00  0.00    +0.058 A 
ATOM     35  N   UNL     1       0.631  -0.792   1.041  0.00  0.00    -0.265 N 
ATOM     36  C   UNL     1      -0.032  -1.103   2.172  0.00  0.00    +0.237 C 
ATOM     37  O   UNL     1      -1.233  -0.943   2.234  0.00  0.00    -0.274 OA
ATOM     38  H   UNL     1       1.781  -3.837  -0.392  0.00  0.00    +0.155 HD
ENDBRANCH  22  36
ENDBRANCH   1  22
TORSDOF 5
