REMARK  Name = ZINC39881544
REMARK  6 active torsions:
REMARK  status: ('A' for Active; 'I' for Inactive)
REMARK    1  A    between atoms: C_1  and  C_2
REMARK    2  A    between atoms: N_12  and  C_15
REMARK    3  A    between atoms: C_18  and  C_21
REMARK    4  A    between atoms: N_23  and  N_24
REMARK    5  A    between atoms: C_25  and  C_27
REMARK    6  A    between atoms: C_32  and  N_33
REMARK                            x       y       z     vdW  Elec       q    Type
REMARK                         _______ _______ _______ _____ _____    ______ ____
ROOT
ATOM      1  C   UNL     1       1.016  -6.027   5.062  0.00  0.00    +0.035 A 
ATOM      2  C   UNL     1       1.116  -4.643   5.164  0.00  0.00    +0.024 A 
ATOM      3  C   UNL     1       1.008  -4.032   6.393  0.00  0.00    +0.015 A 
ATOM      4  C   UNL     1       0.796  -4.804   7.539  0.00  0.00    +0.038 A 
ATOM      5  C   UNL     1       0.695  -6.194   7.433  0.00  0.00    +0.015 A 
ATOM      6  C   UNL     1       0.800  -6.798   6.201  0.00  0.00    +0.024 A 
ENDROOT
BRANCH   1  18
ATOM      7  C   UNL     1       8.144  -5.285   2.288  0.00  0.00    +0.044 C 
ATOM      8  C   UNL     1       6.802  -5.877   1.942  0.00  0.00    -0.048 A 
ATOM      9  C   UNL     1       6.643  -6.555   0.736  0.00  0.00    +0.004 A 
ATOM     10  C   UNL     1       5.442  -7.101   0.396  0.00  0.00    +0.010 A 
ATOM     11  C   UNL     1       4.352  -6.979   1.271  0.00  0.00    -0.001 A 
ATOM     12  C   UNL     1       3.093  -7.529   0.958  0.00  0.00    +0.017 A 
ATOM     13  C   UNL     1       2.079  -7.374   1.854  0.00  0.00    -0.007 A 
ATOM     14  C   UNL     1       2.285  -6.684   3.055  0.00  0.00    +0.107 A 
ATOM     15  N   UNL     1       3.478  -6.172   3.335  0.00  0.00    -0.342 N 
ATOM     16  C   UNL     1       4.511  -6.290   2.498  0.00  0.00    +0.048 A 
ATOM     17  C   UNL     1       5.767  -5.745   2.816  0.00  0.00    +0.029 A 
ATOM     18  N   UNL     1       1.126  -6.642   3.818  0.00  0.00    -0.286 N 
ATOM     19  C   UNL     1       0.035  -7.336   3.130  0.00  0.00    +0.117 C 
ATOM     20  C   UNL     1       0.641  -7.839   1.809  0.00  0.00    +0.058 C 
ATOM     21  H   UNL     1       3.601  -5.697   4.172  0.00  0.00    +0.167 HD
ENDBRANCH   1  18
BRANCH   4  22
ATOM     22  C   UNL     1       0.680  -4.152   8.858  0.00  0.00    +0.260 C 
ATOM     23  O   UNL     1       0.768  -2.943   8.948  0.00  0.00    -0.269 OA
ATOM     24  N   UNL     1       0.476  -4.897   9.962  0.00  0.00    -0.230 N 
ATOM     25  H   UNL     1       0.405  -5.862   9.889  0.00  0.00    +0.173 HD
BRANCH  24  26
ATOM     26  N   UNL     1       0.366  -4.279  11.214  0.00  0.00    -0.230 N 
ATOM     27  C   UNL     1       0.162  -5.024  12.318  0.00  0.00    +0.262 C 
ATOM     28  O   UNL     1       0.073  -6.233  12.228  0.00  0.00    -0.269 OA
ATOM     29  H   UNL     1       0.436  -3.314  11.286  0.00  0.00    +0.173 HD
BRANCH  27  30
ATOM     30  C   UNL     1       0.045  -4.371  13.640  0.00  0.00    +0.068 A 
ATOM     31  C   UNL     1       1.080  -3.564  14.116  0.00  0.00    +0.015 A 
ATOM     32  C   UNL     1       0.965  -2.958  15.350  0.00  0.00    +0.001 A 
ATOM     33  C   UNL     1      -0.173  -3.148  16.114  0.00  0.00    +0.002 A 
ATOM     34  C   UNL     1      -1.202  -3.946  15.648  0.00  0.00    +0.033 A 
ATOM     35  C   UNL     1      -1.102  -4.554  14.413  0.00  0.00    +0.138 A 
BRANCH  35  36
ATOM     36  N   UNL     1      -2.206  -5.403  13.913  0.00  0.00    +0.057 N 
ATOM     37  O   UNL     1      -3.148  -5.654  14.628  0.00  0.00    -0.126 OA
ATOM     38  O   UNL     1      -2.166  -5.846  12.789  0.00  0.00    -0.126 OA
ENDBRANCH  35  36
ENDBRANCH  27  30
ENDBRANCH  24  26
ENDBRANCH   4  22
TORSDOF 5
