REMARK  Name = ZINC16070635
REMARK  9 active torsions:
REMARK  status: ('A' for Active; 'I' for Inactive)
REMARK    1  A    between atoms: C_1  and  C_2
REMARK    2  A    between atoms: C_2  and  C_3
REMARK    3  A    between atoms: C_3  and  N_4
REMARK    4  A    between atoms: C_13  and  S_14
REMARK    5  A    between atoms: S_14  and  C_15
REMARK    6  A    between atoms: C_15  and  C_17
REMARK    7  A    between atoms: C_15  and  C_18
REMARK    8  A    between atoms: C_30  and  C_31
REMARK    9  A    between atoms: C_30  and  C_32
REMARK                            x       y       z     vdW  Elec       q    Type
REMARK                         _______ _______ _______ _____ _____    ______ ____
ROOT
ATOM      1  C   UNL     1      -2.485  -1.899   3.942  0.00  0.00    +0.137 C 
ATOM      2  C   UNL     1      -1.030  -2.042   3.488  0.00  0.00    +0.029 C 
ENDROOT
BRANCH   1   3
ATOM      3  C   UNL     1      -3.317  -2.985   3.309  0.00  0.00    +0.234 C 
ATOM      4  O   UNL     1      -3.692  -2.871   2.162  0.00  0.00    -0.274 OA
ATOM      5  N   UNL     1      -3.645  -4.082   4.019  0.00  0.00    -0.255 N 
ATOM      6  C   UNL     1      -3.202  -4.249   5.341  0.00  0.00    +0.059 A 
ATOM      7  C   UNL     1      -2.009  -3.695   5.770  0.00  0.00    +0.025 A 
ATOM      8  C   UNL     1      -1.598  -3.881   7.078  0.00  0.00    +0.002 A 
ATOM      9  C   UNL     1      -2.376  -4.616   7.954  0.00  0.00    +0.002 A 
ATOM     10  C   UNL     1      -3.580  -5.168   7.533  0.00  0.00    +0.025 A 
ATOM     11  C   UNL     1      -3.997  -4.988   6.223  0.00  0.00    +0.055 A 
ATOM     12  N   UNL     1      -5.201  -5.540   5.773  0.00  0.00    -0.282 N 
ATOM     13  C   UNL     1      -5.476  -5.610   4.457  0.00  0.00    +0.241 C 
ATOM     14  O   UNL     1      -6.545  -6.052   4.092  0.00  0.00    -0.273 OA
ATOM     15  C   UNL     1      -4.473  -5.147   3.433  0.00  0.00    +0.113 C 
ATOM     16  C   UNL     1      -5.208  -4.605   2.205  0.00  0.00    +0.042 C 
ATOM     17  C   UNL     1      -3.582  -6.320   3.021  0.00  0.00    +0.042 C 
ATOM     18  H   UNL     1      -5.845  -5.875   6.417  0.00  0.00    +0.155 HD
ENDBRANCH   1   3
BRANCH   1  19
ATOM     19  S   UNL     1      -3.118  -0.281   3.435  0.00  0.00    -0.075 S 
BRANCH  19  29
ATOM     20  N   UNL     1      -2.243   2.122   4.328  0.00  0.00    -0.287 N 
ATOM     21  C   UNL     1      -1.481   2.955   5.061  0.00  0.00    +0.263 A 
ATOM     22  O   UNL     1      -1.631   4.163   4.981  0.00  0.00    -0.267 OA
ATOM     23  C   UNL     1      -0.493   2.402   5.934  0.00  0.00    +0.076 A 
ATOM     24  C   UNL     1       0.441   3.121   6.816  0.00  0.00    -0.023 A 
ATOM     25  C   UNL     1       1.282   2.374   7.549  0.00  0.00    -0.004 A 
ATOM     26  S   UNL     1       0.897   0.692   7.119  0.00  0.00    -0.073 S 
ATOM     27  C   UNL     1      -0.401   1.003   5.951  0.00  0.00    +0.117 A 
ATOM     28  N   UNL     1      -1.183   0.234   5.202  0.00  0.00    -0.216 NA
ATOM     29  C   UNL     1      -2.091   0.768   4.410  0.00  0.00    +0.173 A 
ATOM     30  C   UNL     1       2.183   3.214   8.413  0.00  0.00    +0.043 C 
ATOM     31  C   UNL     1       1.504   4.601   8.448  0.00  0.00    +0.010 C 
ATOM     32  C   UNL     1       0.714   4.596   7.125  0.00  0.00    +0.037 C 
BRANCH  20  33
ATOM     33  C   UNL     1      -3.259   2.679   3.431  0.00  0.00    +0.127 C 
BRANCH  33  35
ATOM     34  C   UNL     1      -3.704   3.505   1.116  0.00  0.00    +0.005 C 
ATOM     35  C   UNL     1      -2.643   2.923   2.052  0.00  0.00    +0.018 C 
ENDBRANCH  33  35
ENDBRANCH  20  33
ENDBRANCH  19  29
ENDBRANCH   1  19
TORSDOF 5
