REMARK  Name = ZINC50793117
REMARK  5 active torsions:
REMARK  status: ('A' for Active; 'I' for Inactive)
REMARK    1  A    between atoms: C_1  and  C_2
REMARK    2  A    between atoms: N_11  and  C_12
REMARK    3  A    between atoms: C_12  and  C_13
REMARK    4  A    between atoms: C_16  and  N_22
REMARK    5  A    between atoms: C_17  and  N_19
REMARK                            x       y       z     vdW  Elec       q    Type
REMARK                         _______ _______ _______ _____ _____    ______ ____
ROOT
ATOM      1  C   UNL     1       3.284  -1.115   0.660  0.00  0.00    -0.028 A 
ATOM      2  C   UNL     1       3.223  -2.419   1.114  0.00  0.00    +0.007 A 
ATOM      3  C   UNL     1       3.733  -3.445   0.344  0.00  0.00    +0.025 A 
ATOM      4  C   UNL     1       4.309  -3.166  -0.889  0.00  0.00    +0.055 A 
ATOM      5  C   UNL     1       4.369  -1.854  -1.343  0.00  0.00    +0.147 A 
ATOM      6  C   UNL     1       3.851  -0.833  -0.569  0.00  0.00    +0.039 A 
ENDROOT
BRANCH   5   7
ATOM      7  N   UNL     1       4.982  -1.552  -2.655  0.00  0.00    +0.058 N 
ATOM      8  O   UNL     1       5.960  -2.161  -3.020  0.00  0.00    -0.126 OA
ATOM      9  O   UNL     1       4.504  -0.695  -3.362  0.00  0.00    -0.126 OA
ENDBRANCH   5   7
BRANCH   4  10
ATOM     10  N   UNL     1       4.827  -4.201  -1.670  0.00  0.00    -0.356 N 
ATOM     11  H   UNL     1       4.907  -5.094  -1.301  0.00  0.00    +0.142 HD
ATOM     12  H   UNL     1       5.108  -4.026  -2.582  0.00  0.00    +0.142 HD
ENDBRANCH   4  10
BRANCH   1  13
ATOM     13  C   UNL     1       2.725   0.002   1.503  0.00  0.00    +0.140 C 
BRANCH  13  23
ATOM     14  C   UNL     1       1.075   2.382   0.282  0.00  0.00    +0.028 C 
ATOM     15  C   UNL     1       0.693   0.905   0.157  0.00  0.00    +0.075 C 
ATOM     16  C   UNL     1      -0.826   0.731   0.316  0.00  0.00    +0.059 C 
ATOM     17  C   UNL     1      -0.981  -0.156   1.530  0.00  0.00    -0.025 A 
ATOM     18  C   UNL     1      -2.111  -0.651   2.153  0.00  0.00    +0.005 A 
ATOM     19  C   UNL     1      -1.992  -1.457   3.270  0.00  0.00    +0.000 A 
ATOM     20  C   UNL     1      -0.737  -1.767   3.764  0.00  0.00    +0.002 A 
ATOM     21  C   UNL     1       0.393  -1.276   3.146  0.00  0.00    +0.023 A 
ATOM     22  C   UNL     1       0.281  -0.461   2.017  0.00  0.00    +0.033 A 
ATOM     23  N   UNL     1       1.287   0.132   1.250  0.00  0.00    -0.322 N 
ENDBRANCH  13  23
ENDBRANCH   1  13
TORSDOF 4
