REMARK  Name = ZINC36595364
REMARK  16 active torsions:
REMARK  status: ('A' for Active; 'I' for Inactive)
REMARK    1  A    between atoms: C_1  and  C_2
REMARK    2  A    between atoms: C_2  and  C_3
REMARK    3  A    between atoms: C_3  and  C_4
REMARK    4  A    between atoms: C_3  and  C_6
REMARK    5  A    between atoms: C_4  and  C_5
REMARK    6  A    between atoms: C_6  and  C_8
REMARK    7  A    between atoms: C_6  and  N_22
REMARK    8  A    between atoms: N_10  and  C_11
REMARK    9  A    between atoms: C_11  and  S_12
REMARK   10  A    between atoms: S_12  and  C_15
REMARK   11  A    between atoms: C_18  and  C_21
REMARK   12  A    between atoms: N_22  and  C_23
REMARK   13  A    between atoms: C_23  and  C_24
REMARK   14  A    between atoms: C_27  and  C_29
REMARK   15  A    between atoms: C_30  and  C_32
REMARK   16  A    between atoms: C_37  and  O_38
REMARK                            x       y       z     vdW  Elec       q    Type
REMARK                         _______ _______ _______ _____ _____    ______ ____
ROOT
ATOM      1  C   UNL     1      -1.487  -2.751   1.988  0.00  0.00    +0.166 C 
ENDROOT
BRANCH   1   2
ATOM      2  C   UNL     1      -2.760  -3.552   2.075  0.00  0.00    +0.235 C 
ATOM      3  O   UNL     1      -3.828  -3.019   1.860  0.00  0.00    -0.274 OA
ATOM      4  N   UNL     1      -2.713  -4.862   2.390  0.00  0.00    -0.295 N 
ATOM      5  H   UNL     1      -1.857  -5.294   2.540  0.00  0.00    +0.150 HD
BRANCH   4   6
ATOM      6  C   UNL     1      -3.953  -5.633   2.508  0.00  0.00    +0.278 C 
BRANCH   6   7
ATOM      7  S   UNL     1      -4.633  -5.941   0.855  0.00  0.00    +0.013 S 
ATOM      8  O   UNL     1      -5.768  -6.791   0.943  0.00  0.00    -0.168 OA
ATOM      9  O   UNL     1      -4.692  -4.728   0.116  0.00  0.00    -0.168 OA
BRANCH   7  10
ATOM     10  C   UNL     1      -3.409  -6.907   0.035  0.00  0.00    +0.090 A 
ATOM     11  C   UNL     1      -2.638  -6.343  -0.964  0.00  0.00    +0.027 A 
ATOM     12  C   UNL     1      -1.677  -7.102  -1.607  0.00  0.00    +0.005 A 
ATOM     13  C   UNL     1      -1.488  -8.424  -1.251  0.00  0.00    -0.050 A 
ATOM     14  C   UNL     1      -2.259  -8.988  -0.252  0.00  0.00    +0.005 A 
ATOM     15  C   UNL     1      -3.216  -8.228   0.395  0.00  0.00    +0.027 A 
ATOM     16  C   UNL     1      -0.442  -9.251  -1.953  0.00  0.00    +0.044 C 
ENDBRANCH   7  10
ENDBRANCH   6   7
ENDBRANCH   4   6
ENDBRANCH   1   2
BRANCH   1  17
ATOM     17  N   UNL     1      -1.800  -1.324   2.092  0.00  0.00    -0.278 N 
ATOM     18  C   UNL     1      -1.013  -0.513   2.827  0.00  0.00    +0.251 C 
ATOM     19  O   UNL     1      -1.404   0.595   3.139  0.00  0.00    -0.270 OA
BRANCH  18  20
ATOM     20  C   UNL     1       0.323  -0.971   3.254  0.00  0.00    +0.078 A 
ATOM     21  C   UNL     1       0.862  -2.150   2.732  0.00  0.00    +0.017 A 
ATOM     22  C   UNL     1       2.110  -2.571   3.134  0.00  0.00    +0.001 A 
ATOM     23  C   UNL     1       2.835  -1.832   4.055  0.00  0.00    +0.004 A 
ATOM     24  C   UNL     1       2.314  -0.665   4.579  0.00  0.00    +0.046 A 
ATOM     25  C   UNL     1       1.061  -0.223   4.181  0.00  0.00    +0.129 A 
BRANCH  25  26
ATOM     26  O   UNL     1       0.551   0.926   4.691  0.00  0.00    -0.506 OA
ATOM     27  H   UNL     1       0.035   0.802   5.500  0.00  0.00    +0.292 HD
ENDBRANCH  25  26
ENDBRANCH  18  20
BRANCH  17  28
ATOM     28  C   UNL     1      -2.969  -0.777   1.398  0.00  0.00    +0.183 C 
BRANCH  28  29
ATOM     29  C   UNL     1      -4.051  -0.472   2.400  0.00  0.00    +0.122 A 
ATOM     30  C   UNL     1      -4.124   0.630   3.168  0.00  0.00    +0.046 A 
ATOM     31  C   UNL     1      -5.292   0.505   3.955  0.00  0.00    +0.045 A 
ATOM     32  C   UNL     1      -5.863  -0.666   3.620  0.00  0.00    +0.102 A 
ATOM     33  O   UNL     1      -5.111  -1.251   2.674  0.00  0.00    -0.463 OA
ATOM     34  C   UNL     1      -7.135  -1.225   4.205  0.00  0.00    +0.086 C 
ENDBRANCH  28  29
ENDBRANCH  17  28
ENDBRANCH   1  17
BRANCH   1  35
ATOM     35  C   UNL     1      -0.801  -3.026   0.648  0.00  0.00    +0.018 C 
BRANCH  35  37
ATOM     36  C   UNL     1       0.523  -5.123   0.955  0.00  0.00    +0.004 C 
ATOM     37  C   UNL     1      -0.772  -4.534   0.391  0.00  0.00    +0.002 C 
ENDBRANCH  35  37
BRANCH  35  38
ATOM     38  C   UNL     1      -1.577  -2.332  -0.473  0.00  0.00    +0.002 C 
ATOM     39  C   UNL     1      -1.070  -0.897  -0.631  0.00  0.00    +0.004 C 
ENDBRANCH  35  38
ENDBRANCH   1  35
TORSDOF 12
