REMARK  Name = ZINC01471925
REMARK  10 active torsions:
REMARK  status: ('A' for Active; 'I' for Inactive)
REMARK    1  A    between atoms: C_1  and  C_2
REMARK    2  A    between atoms: C_2  and  O_3
REMARK    3  A    between atoms: O_3  and  C_4
REMARK    4  A    between atoms: C_8  and  C_19
REMARK    5  A    between atoms: C_9  and  O_10
REMARK    6  A    between atoms: O_10  and  C_11
REMARK    7  A    between atoms: C_11  and  C_12
REMARK    8  A    between atoms: C_24  and  C_29
REMARK    9  A    between atoms: C_31  and  N_35
REMARK   10  A    between atoms: C_32  and  C_33
REMARK                            x       y       z     vdW  Elec       q    Type
REMARK                         _______ _______ _______ _____ _____    ______ ____
ROOT
ATOM      1  C   UNL     1      -1.498  -1.849   0.006  0.00  0.00    +0.162 A 
ATOM      2  C   UNL     1      -0.389  -2.680  -0.003  0.00  0.00    +0.049 A 
ATOM      3  C   UNL     1      -0.553  -4.052  -0.008  0.00  0.00    +0.004 A 
ATOM      4  C   UNL     1      -1.823  -4.600  -0.005  0.00  0.00    +0.008 A 
ATOM      5  C   UNL     1      -2.934  -3.777   0.004  0.00  0.00    +0.011 A 
ATOM      6  C   UNL     1      -2.776  -2.400   0.016  0.00  0.00    +0.166 A 
ENDROOT
BRANCH   5   7
ATOM      7  C   UNL     1      -4.316  -4.377   0.007  0.00  0.00    +0.107 C 
ATOM      8  C   UNL     1      -4.488  -5.227   1.236  0.00  0.00    +0.072 A 
ATOM      9  C   UNL     1      -4.437  -6.602   1.155  0.00  0.00    +0.141 A 
ATOM     10  C   UNL     1      -4.603  -7.363   2.331  0.00  0.00    +0.067 A 
ATOM     11  C   UNL     1      -4.806  -6.738   3.510  0.00  0.00    +0.019 A 
ATOM     12  N   UNL     1      -4.855  -5.382   3.582  0.00  0.00    -0.326 N 
ATOM     13  H   UNL     1      -5.003  -4.955   4.441  0.00  0.00    +0.169 HD
ATOM     14  C   UNL     1      -4.702  -4.622   2.482  0.00  0.00    +0.257 A 
ATOM     15  O   UNL     1      -4.749  -3.405   2.569  0.00  0.00    -0.267 OA
ATOM     16  C   UNL     1      -4.982  -7.556   4.764  0.00  0.00    +0.063 C 
ATOM     17  O   UNL     1      -4.234  -7.224  -0.026  0.00  0.00    -0.441 OA
ATOM     18  C   UNL     1      -4.449  -6.564  -1.178  0.00  0.00    +0.199 C 
ATOM     19  C   UNL     1      -4.499  -5.215  -1.228  0.00  0.00    +0.098 C 
BRANCH  18  20
ATOM     20  N   UNL     1      -4.622  -7.282  -2.335  0.00  0.00    -0.328 N 
ATOM     21  H   UNL     1      -4.589  -8.251  -2.314  0.00  0.00    +0.145 HD
ATOM     22  H   UNL     1      -4.779  -6.820  -3.173  0.00  0.00    +0.145 HD
ENDBRANCH  18  20
BRANCH  19  23
ATOM     23  C   UNL     1      -4.731  -4.571  -2.486  0.00  0.00    +0.101 C 
ATOM     24  N   UNL     1      -4.915  -4.060  -3.483  0.00  0.00    -0.191 NA
ENDBRANCH  19  23
ENDBRANCH   5   7
BRANCH   1  25
ATOM     25  O   UNL     1      -1.339  -0.499   0.012  0.00  0.00    -0.489 OA
BRANCH  25  27
ATOM     26  C   UNL     1      -0.019   1.526   0.010  0.00  0.00    +0.048 C 
ATOM     27  C   UNL     1       0.002  -0.004   0.002  0.00  0.00    +0.226 C 
ENDBRANCH  25  27
ENDBRANCH   1  25
BRANCH   6  28
ATOM     28  O   UNL     1      -3.868  -1.589   0.030  0.00  0.00    -0.483 OA
BRANCH  28  29
ATOM     29  C   UNL     1      -4.401  -1.196  -1.236  0.00  0.00    +0.266 C 
BRANCH  29  30
ATOM     30  C   UNL     1      -5.598  -0.306  -1.022  0.00  0.00    +0.008 A 
ATOM     31  C   UNL     1      -6.007   0.007   0.261  0.00  0.00    +0.008 A 
ATOM     32  C   UNL     1      -7.105   0.823   0.457  0.00  0.00    +0.000 A 
ATOM     33  C   UNL     1      -7.795   1.327  -0.630  0.00  0.00    +0.001 A 
ATOM     34  C   UNL     1      -7.388   1.015  -1.913  0.00  0.00    +0.020 A 
ATOM     35  C   UNL     1      -6.285   0.202  -2.110  0.00  0.00    +0.047 A 
ATOM     36 CL   UNL     1      -5.769  -0.185  -3.721  0.00  0.00    -0.083 Cl
ENDBRANCH  29  30
ENDBRANCH  28  29
ENDBRANCH   6  28
TORSDOF 8
