REMARK  Name = ZINC63393087
REMARK  7 active torsions:
REMARK  status: ('A' for Active; 'I' for Inactive)
REMARK    1  A    between atoms: C_1  and  C_2
REMARK    2  A    between atoms: C_2  and  C_3
REMARK    3  A    between atoms: C_2  and  C_4
REMARK    4  A    between atoms: C_2  and  C_5
REMARK    5  A    between atoms: N_13  and  C_14
REMARK    6  A    between atoms: N_17  and  C_20
REMARK    7  A    between atoms: C_20  and  C_21
REMARK                            x       y       z     vdW  Elec       q    Type
REMARK                         _______ _______ _______ _____ _____    ______ ____
ROOT
ATOM      1  C   UNL     1       1.155   0.141  -1.060  0.00  0.00    +0.109 A 
ATOM      2  N   UNL     1       2.372   0.309  -1.535  0.00  0.00    -0.144 NA
ATOM      3  N   UNL     1       2.700  -0.275  -2.607  0.00  0.00    -0.126 NA
ATOM      4  C   UNL     1       1.859  -1.049  -3.264  0.00  0.00    +0.189 A 
ATOM      5  S   UNL     1       0.481  -0.961  -2.296  0.00  0.00    -0.035 S 
ATOM      6  N   UNL     1       2.058  -1.757  -4.444  0.00  0.00    -0.247 N 
ATOM      7  C   UNL     1       3.249  -1.700  -5.072  0.00  0.00    +0.306 C 
ATOM      8  O   UNL     1       4.151  -1.031  -4.605  0.00  0.00    -0.252 OA
ATOM      9  N   UNL     1       3.442  -2.386  -6.216  0.00  0.00    -0.296 N 
ATOM     10  H   UNL     1       1.339  -2.291  -4.817  0.00  0.00    +0.158 HD
ATOM     11  H   UNL     1       2.723  -2.921  -6.588  0.00  0.00    +0.151 HD
ENDROOT
BRANCH   9  12
ATOM     12  C   UNL     1       4.737  -2.325  -6.897  0.00  0.00    +0.071 C 
ATOM     13  C   UNL     1       4.778  -1.096  -7.810  0.00  0.00    +0.004 C 
ATOM     14  C   UNL     1       6.101  -1.082  -8.579  0.00  0.00    -0.077 C 
ATOM     15  N   UNL     1       6.214  -2.300  -9.389  0.00  0.00    +0.380 N 
ATOM     16  C   UNL     1       6.248  -3.479  -8.516  0.00  0.00    -0.077 C 
ATOM     17  C   UNL     1       4.930  -3.586  -7.745  0.00  0.00    +0.004 C 
ATOM     18  H   UNL     1       5.420  -2.365 -10.009  0.00  0.00    -0.082 HD
BRANCH  15  19
ATOM     19  C   UNL     1       7.448  -2.245 -10.184  0.00  0.00    -0.075 C 
BRANCH  19  20
ATOM     20  C   UNL     1       7.345  -1.114 -11.209  0.00  0.00    -0.028 C 
ATOM     21  C   UNL     1       6.257  -1.444 -12.252  0.00  0.00    +0.002 C 
ATOM     22  C   UNL     1       6.831  -0.901 -13.584  0.00  0.00    +0.000 C 
ATOM     23  C   UNL     1       8.339  -1.235 -13.468  0.00  0.00    +0.000 C 
ATOM     24  C   UNL     1       8.669  -0.982 -11.982  0.00  0.00    +0.002 C 
ENDBRANCH  19  20
ENDBRANCH  15  19
ENDBRANCH   9  12
BRANCH   1  26
ATOM     25  C   UNL     1       0.508   2.238   0.094  0.00  0.00    +0.018 C 
ATOM     26  C   UNL     1       0.513   0.711   0.179  0.00  0.00    +0.013 C 
ATOM     27  C   UNL     1       1.306   0.272   1.412  0.00  0.00    +0.018 C 
ATOM     28  C   UNL     1      -0.925   0.201   0.289  0.00  0.00    +0.018 C 
ENDBRANCH   1  26
TORSDOF 4
