REMARK  Name = ZINC06135264
REMARK  8 active torsions:
REMARK  status: ('A' for Active; 'I' for Inactive)
REMARK    1  A    between atoms: C_1  and  C_2
REMARK    2  A    between atoms: C_2  and  C_3
REMARK    3  A    between atoms: C_10  and  C_15
REMARK    4  A    between atoms: C_15  and  C_17
REMARK    5  A    between atoms: C_15  and  N_29
REMARK    6  A    between atoms: N_21  and  C_22
REMARK    7  A    between atoms: C_22  and  C_23
REMARK    8  A    between atoms: C_38  and  C_40
REMARK                            x       y       z     vdW  Elec       q    Type
REMARK                         _______ _______ _______ _____ _____    ______ ____
ROOT
ATOM      1  C   UNL     1      -2.135   4.651   0.751  0.00  0.00    +0.179 C 
ENDROOT
BRANCH   1   9
ATOM      2  C   UNL     1       0.703   9.884  -0.937  0.00  0.00    -0.047 A 
ATOM      3  C   UNL     1       1.737   9.280  -1.641  0.00  0.00    +0.005 A 
ATOM      4  C   UNL     1       1.813   7.908  -1.740  0.00  0.00    +0.026 A 
ATOM      5  C   UNL     1       0.845   7.117  -1.129  0.00  0.00    +0.049 A 
ATOM      6  C   UNL     1      -0.202   7.732  -0.416  0.00  0.00    -0.001 A 
ATOM      7  C   UNL     1      -0.258   9.127  -0.329  0.00  0.00    +0.013 A 
ATOM      8  C   UNL     1      -1.215   6.892   0.223  0.00  0.00    +0.021 A 
ATOM      9  C   UNL     1      -1.109   5.545   0.105  0.00  0.00    +0.045 A 
ATOM     10  C   UNL     1      -0.036   4.978  -0.616  0.00  0.00    +0.255 A 
ATOM     11  O   UNL     1       0.044   3.765  -0.706  0.00  0.00    -0.268 OA
ATOM     12  N   UNL     1       0.897   5.742  -1.211  0.00  0.00    -0.322 N 
ATOM     13  H   UNL     1       1.639   5.306  -1.721  0.00  0.00    +0.169 HD
BRANCH   2  15
ATOM     14  C   UNL     1      -0.174  11.937  -2.016  0.00  0.00    +0.009 C 
ATOM     15  C   UNL     1       0.641  11.386  -0.844  0.00  0.00    +0.032 C 
ENDBRANCH   2  15
ENDBRANCH   1   9
BRANCH   1  16
ATOM     16  N   UNL     1      -2.620   3.673  -0.232  0.00  0.00    -0.313 N 
ATOM     17  C   UNL     1      -3.292   2.623   0.397  0.00  0.00    +0.034 A 
ATOM     18  C   UNL     1      -2.831   2.218   1.651  0.00  0.00    +0.026 A 
ATOM     19  C   UNL     1      -3.446   1.182   2.320  0.00  0.00    +0.040 A 
ATOM     20  C   UNL     1      -4.528   0.535   1.746  0.00  0.00    +0.124 A 
ATOM     21  C   UNL     1      -4.989   0.933   0.506  0.00  0.00    +0.043 A 
ATOM     22  C   UNL     1      -4.373   1.974  -0.172  0.00  0.00    -0.024 A 
ATOM     23  C   UNL     1      -4.933   2.378  -1.512  0.00  0.00    +0.039 C 
ATOM     24  C   UNL     1      -3.918   3.255  -2.250  0.00  0.00    +0.027 C 
ATOM     25  C   UNL     1      -3.418   4.325  -1.272  0.00  0.00    +0.072 C 
ATOM     26  C   UNL     1      -2.553   5.341  -2.021  0.00  0.00    +0.028 C 
ATOM     27  F   UNL     1      -5.131  -0.484   2.398  0.00  0.00    -0.205 F 
ENDBRANCH   1  16
BRANCH   1  28
ATOM     28  C   UNL     1      -3.291   5.486   1.241  0.00  0.00    +0.177 A 
ATOM     29  N   UNL     1      -4.073   6.244   0.512  0.00  0.00    -0.111 NA
ATOM     30  N   UNL     1      -4.939   6.790   1.295  0.00  0.00    -0.023 NA
ATOM     31  N   UNL     1      -4.724   6.407   2.505  0.00  0.00    -0.044 NA
ATOM     32  N   UNL     1      -3.716   5.601   2.513  0.00  0.00    -0.223 N 
BRANCH  32  33
ATOM     33  C   UNL     1      -3.142   4.937   3.686  0.00  0.00    +0.182 C 
BRANCH  33  34
ATOM     34  C   UNL     1      -2.152   5.859   4.351  0.00  0.00    -0.026 A 
ATOM     35  C   UNL     1      -0.812   5.787   4.021  0.00  0.00    +0.005 A 
ATOM     36  C   UNL     1       0.096   6.636   4.627  0.00  0.00    +0.000 A 
ATOM     37  C   UNL     1      -0.336   7.550   5.571  0.00  0.00    +0.000 A 
ATOM     38  C   UNL     1      -1.676   7.617   5.904  0.00  0.00    +0.000 A 
ATOM     39  C   UNL     1      -2.584   6.772   5.295  0.00  0.00    +0.005 A 
ENDBRANCH  33  34
ENDBRANCH  32  33
ENDBRANCH   1  28
TORSDOF 6
