REMARK  Name = ZINC35888986
REMARK  11 active torsions:
REMARK  status: ('A' for Active; 'I' for Inactive)
REMARK    1  A    between atoms: C_1  and  C_2
REMARK    2  A    between atoms: C_2  and  C_3
REMARK    3  A    between atoms: C_12  and  C_13
REMARK    4  A    between atoms: C_13  and  C_15
REMARK    5  A    between atoms: C_13  and  C_30
REMARK    6  A    between atoms: C_15  and  C_16
REMARK    7  A    between atoms: N_18  and  C_19
REMARK    8  A    between atoms: C_19  and  C_20
REMARK    9  A    between atoms: C_20  and  C_21
REMARK   10  A    between atoms: C_21  and  N_22
REMARK   11  A    between atoms: C_27  and  C_29
REMARK                            x       y       z     vdW  Elec       q    Type
REMARK                         _______ _______ _______ _____ _____    ______ ____
ROOT
ATOM      1  C   UNL     1       5.278  -1.492  -3.042  0.00  0.00    +0.060 C 
ENDROOT
BRANCH   1  11
ATOM      2  C   UNL     1       0.707  -0.490  -1.238  0.00  0.00    -0.024 A 
ATOM      3  C   UNL     1      -0.018  -0.817  -2.363  0.00  0.00    +0.005 A 
ATOM      4  C   UNL     1       0.620  -1.265  -3.511  0.00  0.00    +0.001 A 
ATOM      5  C   UNL     1       1.980  -1.391  -3.545  0.00  0.00    +0.010 A 
ATOM      6  C   UNL     1       2.735  -1.065  -2.417  0.00  0.00    +0.004 A 
ATOM      7  C   UNL     1       2.094  -0.605  -1.252  0.00  0.00    +0.050 A 
ATOM      8  N   UNL     1       3.075  -0.360  -0.318  0.00  0.00    -0.360 N 
ATOM      9  H   UNL     1       2.919  -0.035   0.582  0.00  0.00    +0.165 HD
ATOM     10  C   UNL     1       4.304  -0.641  -0.850  0.00  0.00    +0.088 A 
ATOM     11  C   UNL     1       4.167  -1.079  -2.112  0.00  0.00    -0.015 A 
BRANCH   2  13
ATOM     12  C   UNL     1      -0.019   1.526   0.010  0.00  0.00    +0.009 C 
ATOM     13  C   UNL     1       0.002  -0.004   0.002  0.00  0.00    +0.034 C 
ENDBRANCH   2  13
ENDBRANCH   1  11
BRANCH   1  14
ATOM     14  C   UNL     1       6.222  -0.335  -3.243  0.00  0.00    -0.036 A 
ATOM     15  C   UNL     1       6.885   0.211  -2.160  0.00  0.00    +0.008 A 
ATOM     16  C   UNL     1       7.752   1.273  -2.339  0.00  0.00    +0.050 A 
ATOM     17  C   UNL     1       7.958   1.793  -3.606  0.00  0.00    +0.166 A 
ATOM     18  C   UNL     1       7.291   1.243  -4.698  0.00  0.00    +0.167 A 
ATOM     19  C   UNL     1       6.428   0.176  -4.511  0.00  0.00    +0.053 A 
ATOM     20  O   UNL     1       7.659   1.924  -5.822  0.00  0.00    -0.453 OA
ATOM     21  C   UNL     1       8.242   3.154  -5.354  0.00  0.00    +0.466 C 
ATOM     22  O   UNL     1       8.745   2.818  -4.047  0.00  0.00    -0.453 OA
ENDBRANCH   1  14
BRANCH   1  23
ATOM     23  C   UNL     1       6.040  -2.672  -2.435  0.00  0.00    +0.108 C 
BRANCH  23  24
ATOM     24  C   UNL     1       7.071  -3.164  -3.418  0.00  0.00    +0.214 C 
ATOM     25  O   UNL     1       7.185  -2.624  -4.498  0.00  0.00    -0.276 OA
ATOM     26  N   UNL     1       7.866  -4.203  -3.097  0.00  0.00    -0.315 N 
ATOM     27  H   UNL     1       7.775  -4.635  -2.233  0.00  0.00    +0.149 HD
BRANCH  26  28
ATOM     28  C   UNL     1       8.868  -4.682  -4.053  0.00  0.00    +0.102 C 
BRANCH  28  29
ATOM     29  C   UNL     1       9.630  -5.861  -3.445  0.00  0.00    +0.000 C 
BRANCH  29  30
ATOM     30  C   UNL     1      10.677  -6.361  -4.443  0.00  0.00    -0.077 C 
BRANCH  30  31
ATOM     31  N   UNL     1      11.409  -7.493  -3.860  0.00  0.00    +0.381 N 
ATOM     32  C   UNL     1      10.486  -8.617  -3.657  0.00  0.00    -0.078 C 
ATOM     33  C   UNL     1      11.225  -9.771  -2.975  0.00  0.00    -0.019 C 
ATOM     34  C   UNL     1      12.390 -10.219  -3.862  0.00  0.00    -0.003 C 
ATOM     35  C   UNL     1      13.306  -9.021  -4.128  0.00  0.00    -0.016 C 
ATOM     36  C   UNL     1      12.490  -7.895  -4.767  0.00  0.00    -0.072 C 
ATOM     37  C   UNL     1      13.401  -6.695  -5.036  0.00  0.00    -0.013 C 
ATOM     38  H   UNL     1      11.801  -7.218  -2.972  0.00  0.00    -0.081 HD
ENDBRANCH  30  31
ENDBRANCH  29  30
ENDBRANCH  28  29
ENDBRANCH  26  28
ENDBRANCH  23  24
ENDBRANCH   1  23
TORSDOF 9
