REMARK  Name = ZINC22912978
REMARK  7 active torsions:
REMARK  status: ('A' for Active; 'I' for Inactive)
REMARK    1  A    between atoms: C_4  and  C_7
REMARK    2  A    between atoms: C_7  and  C_8
REMARK    3  A    between atoms: C_8  and  C_32
REMARK    4  A    between atoms: N_11  and  C_15
REMARK    5  A    between atoms: C_15  and  N_16
REMARK    6  A    between atoms: N_19  and  C_22
REMARK    7  A    between atoms: C_22  and  C_23
REMARK                            x       y       z     vdW  Elec       q    Type
REMARK                         _______ _______ _______ _____ _____    ______ ____
ROOT
ATOM      1  C   UNL     1       3.711  -0.707  -0.038  0.00  0.00    +0.142 C 
ATOM      2  C   UNL     1       4.182  -0.989   1.375  0.00  0.00    +0.252 C 
ATOM      3  O   UNL     1       4.447  -0.176   2.234  0.00  0.00    -0.272 OA
ATOM      4  N   UNL     1       4.244  -2.332   1.477  0.00  0.00    -0.210 N 
ATOM      5  C   UNL     1       3.881  -2.931   0.337  0.00  0.00    +0.311 C 
ATOM      6  O   UNL     1       3.857  -4.136   0.185  0.00  0.00    -0.252 OA
ATOM      7  N   UNL     1       3.547  -2.049  -0.623  0.00  0.00    -0.281 N 
ATOM      8  H   UNL     1       3.207  -2.158  -1.663  0.00  0.00    +0.152 HD
ENDROOT
BRANCH   1   9
ATOM      9  C   UNL     1       2.396   0.029  -0.022  0.00  0.00    -0.015 A 
ATOM     10  C   UNL     1       1.208  -0.679  -0.013  0.00  0.00    +0.006 A 
ATOM     11  C   UNL     1       0.002  -0.004   0.002  0.00  0.00    +0.000 A 
ATOM     12  C   UNL     1      -0.017   1.378   0.010  0.00  0.00    +0.000 A 
ATOM     13  C   UNL     1       1.171   2.086   0.002  0.00  0.00    +0.000 A 
ATOM     14  C   UNL     1       2.377   1.411  -0.015  0.00  0.00    +0.006 A 
ENDBRANCH   1   9
BRANCH   1  15
ATOM     15  C   UNL     1       4.764   0.093  -0.807  0.00  0.00    +0.075 C 
BRANCH  15  19
ATOM     16  C   UNL     1       8.355  -2.200  -1.112  0.00  0.00    +0.000 A 
ATOM     17  C   UNL     1       7.384  -2.304  -2.090  0.00  0.00    +0.000 A 
ATOM     18  C   UNL     1       6.222  -1.561  -1.992  0.00  0.00    +0.004 A 
ATOM     19  C   UNL     1       6.031  -0.716  -0.914  0.00  0.00    -0.045 A 
ATOM     20  C   UNL     1       7.004  -0.609   0.061  0.00  0.00    +0.004 A 
ATOM     21  C   UNL     1       8.164  -1.355  -0.035  0.00  0.00    +0.000 A 
ENDBRANCH  15  19
ENDBRANCH   1  15
BRANCH   4  22
ATOM     22  C   UNL     1       4.658  -3.047   2.687  0.00  0.00    +0.205 C 
BRANCH  22  23
ATOM     23  N   UNL     1       3.482  -3.313   3.525  0.00  0.00    -0.290 NA
ATOM     24  C   UNL     1       3.123  -2.131   4.320  0.00  0.00    +0.067 C 
ATOM     25  C   UNL     1       1.849  -2.423   5.117  0.00  0.00    -0.063 C 
ATOM     26  N   UNL     1       2.073  -3.588   5.983  0.00  0.00    +0.384 N 
ATOM     27  C   UNL     1       2.432  -4.771   5.188  0.00  0.00    -0.063 C 
ATOM     28  C   UNL     1       3.706  -4.479   4.391  0.00  0.00    +0.067 C 
ATOM     29  H   UNL     1       2.917  -3.358   6.651  0.00  0.00    -0.081 HD
BRANCH  26  30
ATOM     30  C   UNL     1       0.896  -3.855   6.822  0.00  0.00    -0.043 C 
BRANCH  30  31
ATOM     31  C   UNL     1       0.705  -2.720   7.795  0.00  0.00    -0.063 A 
ATOM     32  C   UNL     1      -0.077  -1.633   7.448  0.00  0.00    +0.005 A 
ATOM     33  C   UNL     1      -0.253  -0.591   8.334  0.00  0.00    +0.046 A 
ATOM     34  C   UNL     1       0.356  -0.624   9.586  0.00  0.00    +0.124 A 
ATOM     35  C   UNL     1       1.134  -1.723   9.925  0.00  0.00    -0.002 A 
ATOM     36  C   UNL     1       1.306  -2.764   9.040  0.00  0.00    +0.009 A 
ATOM     37  C   UNL     1       1.648  -1.488  11.332  0.00  0.00    +0.080 C 
ATOM     38  C   UNL     1       0.728  -0.344  11.821  0.00  0.00    +0.234 C 
ATOM     39  O   UNL     1       0.331   0.292  10.593  0.00  0.00    -0.491 OA
ENDBRANCH  30  31
ENDBRANCH  26  30
ENDBRANCH  22  23
ENDBRANCH   4  22
TORSDOF 7
