REMARK  Name = ZINC62671402
REMARK  7 active torsions:
REMARK  status: ('A' for Active; 'I' for Inactive)
REMARK    1  A    between atoms: C_1  and  C_2
REMARK    2  A    between atoms: N_5  and  C_7
REMARK    3  A    between atoms: C_14  and  C_30
REMARK    4  A    between atoms: N_15  and  C_29
REMARK    5  A    between atoms: P_16  and  N_18
REMARK    6  A    between atoms: N_18  and  C_19
REMARK    7  A    between atoms: C_24  and  C_25
REMARK                            x       y       z     vdW  Elec       q    Type
REMARK                         _______ _______ _______ _____ _____    ______ ____
ROOT
ATOM      1  C   UNL     1       1.887   0.766   0.228  0.00  0.00    +0.068 C 
ATOM      2  C   UNL     1       1.046  -0.479   0.116  0.00  0.00    +0.076 A 
ATOM      3  C   UNL     1       0.632  -1.074  -1.052  0.00  0.00    +0.111 A 
ATOM      4  C   UNL     1      -0.117  -2.189  -0.745  0.00  0.00    +0.142 A 
ATOM      5  N   UNL     1      -0.156  -2.272   0.599  0.00  0.00    -0.217 N 
ATOM      6  N   UNL     1       0.582  -1.194   1.119  0.00  0.00    -0.169 NA
ATOM      7  N   UNL     1      -0.664  -2.978  -1.748  0.00  0.00    -0.284 N 
ATOM      8  C   UNL     1      -0.308  -2.875  -3.064  0.00  0.00    +0.117 C 
ATOM      9  N   UNL     1       0.358  -1.938  -3.656  0.00  0.00    -0.295 N 
ATOM     10  P   UNL     1       0.909  -0.637  -2.796  0.00  0.00    +0.290 P 
ATOM     11  O   UNL     1       2.352  -0.427  -3.051  0.00  0.00    -0.271 OA
ATOM     12  C   UNL     1       0.625  -2.029  -5.094  0.00  0.00    +0.153 C 
ATOM     13  H   UNL     1      -1.333  -3.636  -1.503  0.00  0.00    +0.155 HD
ENDROOT
BRANCH   8  14
ATOM     14  C   UNL     1      -0.747  -3.991  -3.931  0.00  0.00    +0.049 A 
ATOM     15  C   UNL     1      -1.540  -3.739  -5.050  0.00  0.00    +0.014 A 
ATOM     16  C   UNL     1      -1.946  -4.783  -5.855  0.00  0.00    +0.001 A 
ATOM     17  C   UNL     1      -1.567  -6.080  -5.555  0.00  0.00    +0.003 A 
ATOM     18  C   UNL     1      -0.782  -6.340  -4.448  0.00  0.00    +0.039 A 
ATOM     19  C   UNL     1      -0.364  -5.301  -3.635  0.00  0.00    +0.134 A 
ATOM     20  F   UNL     1       0.409  -5.555  -2.556  0.00  0.00    -0.205 F 
ENDBRANCH   8  14
BRANCH   5  21
ATOM     21  C   UNL     1      -0.812  -3.260   1.346  0.00  0.00    +0.067 A 
ATOM     22  C   UNL     1      -2.006  -3.800   0.888  0.00  0.00    +0.028 A 
ATOM     23  C   UNL     1      -2.650  -4.774   1.626  0.00  0.00    +0.002 A 
ATOM     24  C   UNL     1      -2.106  -5.210   2.820  0.00  0.00    +0.000 A 
ATOM     25  C   UNL     1      -0.917  -4.674   3.279  0.00  0.00    +0.002 A 
ATOM     26  C   UNL     1      -0.266  -3.704   2.542  0.00  0.00    +0.028 A 
ENDBRANCH   5  21
BRANCH  10  27
ATOM     27  N   UNL     1       0.057   0.708  -3.188  0.00  0.00    -0.275 N 
ATOM     28  H   UNL     1       0.506   1.466  -3.594  0.00  0.00    +0.155 HD
BRANCH  27  29
ATOM     29  C   UNL     1      -1.316   0.762  -2.939  0.00  0.00    +0.046 A 
ATOM     30  C   UNL     1      -1.982  -0.360  -2.463  0.00  0.00    +0.024 A 
ATOM     31  C   UNL     1      -3.340  -0.303  -2.217  0.00  0.00    +0.002 A 
ATOM     32  C   UNL     1      -4.036   0.871  -2.443  0.00  0.00    +0.001 A 
ATOM     33  C   UNL     1      -3.377   1.990  -2.917  0.00  0.00    +0.014 A 
ATOM     34  C   UNL     1      -2.018   1.941  -3.160  0.00  0.00    +0.076 A 
BRANCH  34  35
ATOM     35  C   UNL     1      -1.298   3.163  -3.670  0.00  0.00    +0.419 C 
ATOM     36  F   UNL     1      -2.209   4.215  -3.812  0.00  0.00    -0.166 F 
ATOM     37  F   UNL     1      -0.300   3.530  -2.760  0.00  0.00    -0.166 F 
ATOM     38  F   UNL     1      -0.717   2.878  -4.910  0.00  0.00    -0.166 F 
ENDBRANCH  34  35
ENDBRANCH  27  29
ENDBRANCH  10  27
TORSDOF 5
