REMARK  Name = ZINC40404259
REMARK  16 active torsions:
REMARK  status: ('A' for Active; 'I' for Inactive)
REMARK    1  A    between atoms: C_1  and  C_2
REMARK    2  A    between atoms: C_2  and  C_3
REMARK    3  A    between atoms: C_3  and  N_4
REMARK    4  A    between atoms: N_4  and  C_5
REMARK    5  A    between atoms: N_4  and  C_28
REMARK    6  A    between atoms: C_5  and  C_6
REMARK    7  A    between atoms: N_18  and  C_21
REMARK    8  A    between atoms: C_21  and  C_22
REMARK    9  A    between atoms: C_28  and  C_29
REMARK   10  A    between atoms: C_29  and  C_31
REMARK   11  A    between atoms: C_29  and  O_37
REMARK   12  A    between atoms: C_31  and  O_32
REMARK   13  A    between atoms: O_32  and  C_33
REMARK   14  A    between atoms: C_33  and  C_34
REMARK   15  A    between atoms: C_34  and  C_35
REMARK   16  A    between atoms: C_34  and  C_36
REMARK                            x       y       z     vdW  Elec       q    Type
REMARK                         _______ _______ _______ _____ _____    ______ ____
ROOT
ATOM      1  C   UNL     1       0.838  -2.352   1.203  0.00  0.00    +0.094 A 
ATOM      2  N   UNL     1       1.565  -2.866   2.229  0.00  0.00    -0.312 N 
ATOM      3  H   UNL     1       1.133  -3.453   2.869  0.00  0.00    +0.170 HD
ATOM      4  C   UNL     1       2.872  -2.578   2.375  0.00  0.00    +0.260 A 
ATOM      5  O   UNL     1       3.510  -3.049   3.300  0.00  0.00    -0.267 OA
ATOM      6  C   UNL     1       3.501  -1.710   1.423  0.00  0.00    +0.075 A 
ATOM      7  C   UNL     1       4.889  -1.261   1.380  0.00  0.00    -0.020 A 
ATOM      8  C   UNL     1       5.237  -0.434   0.369  0.00  0.00    +0.010 A 
ATOM      9  S   UNL     1       3.754  -0.211  -0.571  0.00  0.00    -0.072 S 
ATOM     10  C   UNL     1       2.669  -1.228   0.399  0.00  0.00    +0.116 A 
ATOM     11  N   UNL     1       1.384  -1.563   0.317  0.00  0.00    -0.229 NA
ATOM     12  C   UNL     1       6.592   0.153   0.123  0.00  0.00    +0.127 C 
ATOM     13  N   UNL     1       7.400  -0.020   1.345  0.00  0.00    -0.293 NA
ATOM     14  C   UNL     1       7.322  -1.407   1.825  0.00  0.00    +0.090 C 
ATOM     15  C   UNL     1       5.934  -1.684   2.410  0.00  0.00    +0.052 C 
ENDROOT
BRANCH   1  16
ATOM     16  C   UNL     1      -0.622  -2.703   1.082  0.00  0.00    -0.003 C 
BRANCH  16  17
ATOM     17  N   UNL     1      -1.224  -1.924  -0.008  0.00  0.00    +0.386 N 
ATOM     18  H   UNL     1      -0.690  -2.060  -0.853  0.00  0.00    -0.081 HD
BRANCH  17  19
ATOM     19  C   UNL     1      -1.221  -0.499   0.349  0.00  0.00    -0.078 C 
BRANCH  19  21
ATOM     20  C   UNL     1      -2.032   1.183   2.009  0.00  0.00    +0.002 C 
ATOM     21  C   UNL     1      -2.143  -0.272   1.550  0.00  0.00    -0.022 C 
ENDBRANCH  19  21
ENDBRANCH  17  19
BRANCH  17  22
ATOM     22  C   UNL     1      -2.607  -2.371  -0.225  0.00  0.00    -0.044 C 
BRANCH  22  23
ATOM     23  C   UNL     1      -3.175  -1.687  -1.469  0.00  0.00    +0.124 C 
BRANCH  23  24
ATOM     24  O   UNL     1      -3.303  -0.285  -1.225  0.00  0.00    -0.391 OA
ATOM     25  H   UNL     1      -3.888  -0.066  -0.486  0.00  0.00    +0.210 HD
ENDBRANCH  23  24
BRANCH  23  26
ATOM     26  C   UNL     1      -4.550  -2.276  -1.792  0.00  0.00    +0.189 C 
BRANCH  26  27
ATOM     27  O   UNL     1      -5.030  -1.721  -3.018  0.00  0.00    -0.377 OA
BRANCH  27  28
ATOM     28  C   UNL     1      -6.314  -2.207  -3.413  0.00  0.00    +0.163 C 
BRANCH  28  29
ATOM     29  C   UNL     1      -6.726  -1.549  -4.731  0.00  0.00    +0.009 C 
ATOM     30  C   UNL     1      -8.041  -2.160  -5.218  0.00  0.00    +0.009 C 
ATOM     31  C   UNL     1      -6.912  -0.046  -4.514  0.00  0.00    +0.009 C 
ENDBRANCH  28  29
ENDBRANCH  27  28
ENDBRANCH  26  27
ENDBRANCH  23  26
ENDBRANCH  22  23
ENDBRANCH  17  22
ENDBRANCH  16  17
ENDBRANCH   1  16
BRANCH  13  32
ATOM     32  C   UNL     1       8.794   0.380   1.115  0.00  0.00    +0.120 C 
BRANCH  32  33
ATOM     33  C   UNL     1       8.855   1.863   0.853  0.00  0.00    -0.033 A 
ATOM     34  C   UNL     1       8.742   2.341  -0.439  0.00  0.00    +0.005 A 
ATOM     35  C   UNL     1       8.798   3.701  -0.680  0.00  0.00    +0.000 A 
ATOM     36  C   UNL     1       8.966   4.583   0.371  0.00  0.00    +0.000 A 
ATOM     37  C   UNL     1       9.078   4.105   1.663  0.00  0.00    +0.000 A 
ATOM     38  C   UNL     1       9.018   2.745   1.905  0.00  0.00    +0.005 A 
ENDBRANCH  32  33
ENDBRANCH  13  32
TORSDOF 13
