REMARK  Name = ZINC63540932
REMARK  10 active torsions:
REMARK  status: ('A' for Active; 'I' for Inactive)
REMARK    1  A    between atoms: C_1  and  C_2
REMARK    2  A    between atoms: C_4  and  O_12
REMARK    3  A    between atoms: C_5  and  C_9
REMARK    4  A    between atoms: C_9  and  C_10
REMARK    5  A    between atoms: C_9  and  C_11
REMARK    6  A    between atoms: O_12  and  C_13
REMARK    7  A    between atoms: C_13  and  C_14
REMARK    8  A    between atoms: C_16  and  C_22
REMARK    9  A    between atoms: C_19  and  O_20
REMARK   10  A    between atoms: O_20  and  C_21
REMARK                            x       y       z     vdW  Elec       q    Type
REMARK                         _______ _______ _______ _____ _____    ______ ____
ROOT
ATOM      1  C   UNL     1       0.230  -2.879  -4.799  0.00  0.00    +0.032 A 
ATOM      2  C   UNL     1       0.243  -4.249  -4.625  0.00  0.00    +0.015 A 
ATOM      3  C   UNL     1       0.037  -5.087  -5.705  0.00  0.00    -0.028 A 
ATOM      4  C   UNL     1      -0.183  -4.556  -6.963  0.00  0.00    +0.009 A 
ATOM      5  C   UNL     1      -0.198  -3.186  -7.142  0.00  0.00    +0.046 A 
ATOM      6  C   UNL     1       0.004  -2.343  -6.059  0.00  0.00    +0.126 A 
ENDROOT
BRANCH   3   7
ATOM      7  C   UNL     1       0.053  -6.581  -5.512  0.00  0.00    +0.111 C 
ATOM      8  C   UNL     1      -1.236  -7.188  -6.072  0.00  0.00    +0.128 C 
ATOM      9  C   UNL     1      -1.192  -6.966  -7.579  0.00  0.00    -0.035 C 
ATOM     10  C   UNL     1      -2.319  -6.347  -7.900  0.00  0.00    -0.001 A 
ATOM     11  C   UNL     1      -2.884  -5.948  -9.200  0.00  0.00    +0.010 A 
ATOM     12  C   UNL     1      -4.081  -5.304  -9.161  0.00  0.00    +0.001 A 
ATOM     13  C   UNL     1      -4.764  -5.021  -7.974  0.00  0.00    +0.002 A 
ATOM     14  C   UNL     1      -4.322  -5.356  -6.736  0.00  0.00    +0.026 A 
ATOM     15  C   UNL     1      -3.076  -6.043  -6.647  0.00  0.00    +0.043 A 
ATOM     16  N   UNL     1      -2.435  -6.503  -5.590  0.00  0.00    -0.376 N 
ATOM     17  C   UNL     1       0.019  -7.341  -8.400  0.00  0.00    +0.048 C 
ATOM     18  C   UNL     1       1.238  -6.771  -7.652  0.00  0.00    +0.086 C 
ATOM     19  N   UNL     1       1.193  -7.163  -6.239  0.00  0.00    -0.307 NA
ATOM     20  H   UNL     1       2.064  -6.951  -5.776  0.00  0.00    +0.123 HD
ATOM     21  H   UNL     1      -2.699  -6.406  -4.662  0.00  0.00    +0.160 HD
ENDBRANCH   3   7
BRANCH   6  22
ATOM     22  O   UNL     1      -0.016  -0.996  -6.232  0.00  0.00    -0.495 OA
ATOM     23  C   UNL     1      -0.255  -0.515  -7.556  0.00  0.00    +0.277 C 
ENDBRANCH   6  22
BRANCH   1  24
ATOM     24  C   UNL     1       0.456  -1.966  -3.621  0.00  0.00    +0.268 C 
BRANCH  24  25
ATOM     25  O   UNL     1       0.665  -2.750  -2.445  0.00  0.00    -0.487 OA
BRANCH  25  29
ATOM     26  C   UNL     1       1.137   1.502  -0.095  0.00  0.00    +0.045 C 
ATOM     27  C   UNL     1       1.121  -0.005  -0.101  0.00  0.00    -0.029 A 
ATOM     28  C   UNL     1       0.898  -0.689  -1.280  0.00  0.00    +0.050 A 
ATOM     29  C   UNL     1       0.884  -2.076  -1.285  0.00  0.00    +0.125 A 
ATOM     30  C   UNL     1       1.095  -2.774  -0.105  0.00  0.00    -0.002 A 
ATOM     31  C   UNL     1       1.317  -2.087   1.072  0.00  0.00    +0.027 A 
ATOM     32  C   UNL     1       1.336  -0.703   1.074  0.00  0.00    +0.044 A 
ATOM     33 CL   UNL     1       1.624   0.158   2.554  0.00  0.00    -0.083 Cl
BRANCH  30  34
ATOM     34  C   UNL     1       1.079  -4.281  -0.107  0.00  0.00    +0.016 C 
ATOM     35  C   UNL     1       2.433  -4.806   0.375  0.00  0.00    +0.012 C 
ATOM     36  C   UNL     1      -0.024  -4.781   0.827  0.00  0.00    +0.012 C 
ENDBRANCH  30  34
ENDBRANCH  25  29
ENDBRANCH  24  25
ENDBRANCH   1  24
TORSDOF 6
