REMARK  Name = ZINC39699466
REMARK  15 active torsions:
REMARK  status: ('A' for Active; 'I' for Inactive)
REMARK    1  A    between atoms: C_1  and  C_2
REMARK    2  A    between atoms: C_2  and  N_3
REMARK    3  A    between atoms: N_3  and  C_4
REMARK    4  A    between atoms: N_3  and  C_6
REMARK    5  A    between atoms: C_4  and  C_5
REMARK    6  A    between atoms: C_6  and  C_7
REMARK    7  A    between atoms: C_7  and  C_8
REMARK    8  A    between atoms: C_8  and  N_9
REMARK    9  A    between atoms: N_9  and  C_10
REMARK   10  A    between atoms: C_10  and  C_12
REMARK   11  A    between atoms: C_10  and  C_19
REMARK   12  A    between atoms: C_15  and  C_18
REMARK   13  A    between atoms: N_21  and  C_22
REMARK   14  A    between atoms: C_28  and  C_30
REMARK   15  A    between atoms: C_34  and  C_36
REMARK                            x       y       z     vdW  Elec       q    Type
REMARK                         _______ _______ _______ _____ _____    ______ ____
ROOT
ATOM      1  N   UNL     1       2.792  -4.317   3.781  0.00  0.00    -0.284 N 
ATOM      2  C   UNL     1       4.115  -4.267   3.529  0.00  0.00    +0.245 C 
ATOM      3  O   UNL     1       4.880  -4.966   4.160  0.00  0.00    -0.273 OA
ENDROOT
BRANCH   2   4
ATOM      4  C   UNL     1       4.645  -3.343   2.463  0.00  0.00    +0.214 C 
ATOM      5  C   UNL     1       4.886  -1.965   3.038  0.00  0.00    +0.011 C 
ATOM      6  C   UNL     1       6.184  -1.723   2.890  0.00  0.00    +0.026 C 
ATOM      7  C   UNL     1       6.826  -2.875   2.241  0.00  0.00    +0.067 C 
ATOM      8  N   UNL     1       5.954  -3.810   1.991  0.00  0.00    -0.267 NA
BRANCH   7   9
ATOM      9  C   UNL     1       8.270  -2.961   1.916  0.00  0.00    -0.000 A 
ATOM     10  C   UNL     1       9.123  -1.905   2.232  0.00  0.00    +0.010 A 
ATOM     11  C   UNL     1      10.466  -1.991   1.926  0.00  0.00    +0.001 A 
ATOM     12  C   UNL     1      10.966  -3.123   1.308  0.00  0.00    +0.000 A 
ATOM     13  C   UNL     1      10.124  -4.175   0.992  0.00  0.00    +0.001 A 
ATOM     14  C   UNL     1       8.781  -4.102   1.298  0.00  0.00    +0.010 A 
ENDBRANCH   7   9
ENDBRANCH   2   4
BRANCH   1  15
ATOM     15  C   UNL     1       1.858  -3.559   2.946  0.00  0.00    +0.107 C 
BRANCH  15  16
ATOM     16  C   UNL     1       1.587  -4.332   1.653  0.00  0.00    +0.000 C 
BRANCH  16  17
ATOM     17  C   UNL     1       0.571  -3.565   0.804  0.00  0.00    -0.077 C 
BRANCH  17  18
ATOM     18  N   UNL     1       0.412  -4.235  -0.493  0.00  0.00    +0.379 N 
ATOM     19  H   UNL     1       1.310  -4.304  -0.949  0.00  0.00    -0.082 HD
BRANCH  18  21
ATOM     20  C   UNL     1      -0.185  -6.326  -1.621  0.00  0.00    -0.017 C 
ATOM     21  C   UNL     1      -0.136  -5.582  -0.284  0.00  0.00    -0.082 C 
ENDBRANCH  18  21
BRANCH  18  22
ATOM     22  C   UNL     1      -0.506  -3.458  -1.336  0.00  0.00    -0.082 C 
ATOM     23  C   UNL     1       0.155  -2.135  -1.726  0.00  0.00    -0.017 C 
ENDBRANCH  18  22
ENDBRANCH  17  18
ENDBRANCH  16  17
ENDBRANCH  15  16
ENDBRANCH   1  15
BRANCH   1  24
ATOM     24  C   UNL     1       2.289  -5.131   4.891  0.00  0.00    +0.192 C 
BRANCH  24  25
ATOM     25  C   UNL     1       2.523  -4.406   6.191  0.00  0.00    -0.018 A 
ATOM     26  C   UNL     1       2.209  -3.064   6.301  0.00  0.00    +0.006 A 
ATOM     27  C   UNL     1       2.424  -2.400   7.494  0.00  0.00    +0.004 A 
ATOM     28  C   UNL     1       2.953  -3.077   8.577  0.00  0.00    -0.050 A 
ATOM     29  C   UNL     1       3.266  -4.419   8.467  0.00  0.00    +0.004 A 
ATOM     30  C   UNL     1       3.047  -5.085   7.276  0.00  0.00    +0.006 A 
ATOM     31  C   UNL     1       3.188  -2.353   9.878  0.00  0.00    +0.044 C 
ENDBRANCH  24  25
BRANCH  24  32
ATOM     32  C   UNL     1       0.812  -5.370   4.708  0.00  0.00    +0.238 C 
ATOM     33  O   UNL     1       0.289  -5.146   3.637  0.00  0.00    -0.273 OA
ATOM     34  N   UNL     1       0.072  -5.833   5.735  0.00  0.00    -0.311 N 
ATOM     35  H   UNL     1       0.490  -6.012   6.592  0.00  0.00    +0.149 HD
BRANCH  34  36
ATOM     36  C   UNL     1      -1.363  -6.066   5.558  0.00  0.00    +0.073 C 
ATOM     37  C   UNL     1      -2.124  -4.759   5.790  0.00  0.00    +0.022 C 
ATOM     38  C   UNL     1      -3.623  -5.002   5.605  0.00  0.00    +0.002 C 
ATOM     39  C   UNL     1      -4.098  -6.054   6.609  0.00  0.00    +0.000 C 
ATOM     40  C   UNL     1      -3.337  -7.361   6.377  0.00  0.00    +0.002 C 
ATOM     41  C   UNL     1      -1.837  -7.118   6.562  0.00  0.00    +0.022 C 
ENDBRANCH  34  36
ENDBRANCH  24  32
ENDBRANCH   1  24
TORSDOF 12
