REMARK  Name = ZINC19974012
REMARK  3 active torsions:
REMARK  status: ('A' for Active; 'I' for Inactive)
REMARK    1  A    between atoms: C_1  and  C_2
REMARK    2  A    between atoms: C_5  and  C_8
REMARK    3  A    between atoms: C_11  and  N_17
REMARK                            x       y       z     vdW  Elec       q    Type
REMARK                         _______ _______ _______ _____ _____    ______ ____
ROOT
ATOM      1  C   UNL     1      -3.435  -2.509  -0.138  0.00  0.00    +0.028 C 
ATOM      2  C   UNL     1      -2.179  -2.950   0.616  0.00  0.00    +0.031 C 
ATOM      3  C   UNL     1      -0.945  -2.289  -0.002  0.00  0.00    +0.080 C 
ATOM      4  C   UNL     1      -0.776  -2.774  -1.445  0.00  0.00    +0.096 C 
ATOM      5  C   UNL     1      -2.064  -2.513  -2.194  0.00  0.00    +0.136 C 
ATOM      6  O   UNL     1      -2.058  -1.928  -3.251  0.00  0.00    -0.297 OA
ATOM      7  C   UNL     1      -3.360  -3.002  -1.586  0.00  0.00    +0.082 C 
ENDROOT
BRANCH   3   8
ATOM      8  N   UNL     1      -1.114  -0.834   0.008  0.00  0.00    -0.320 N 
ATOM      9  C   UNL     1       0.002  -0.004   0.002  0.00  0.00    +0.204 A 
ATOM     10  C   UNL     1      -0.018   1.463   0.010  0.00  0.00    +0.202 A 
ATOM     11  N   UNL     1       1.214   1.890   0.001  0.00  0.00    -0.032 NA
ATOM     12  O   UNL     1       2.066   0.758  -0.014  0.00  0.00    -0.239 OA
ATOM     13  N   UNL     1       1.246  -0.397  -0.012  0.00  0.00    -0.032 NA
ATOM     14  N   UNL     1      -1.156   2.262   0.020  0.00  0.00    -0.338 N 
ATOM     15  H   UNL     1      -2.124  -0.397   0.019  0.00  0.00    +0.148 HD
ATOM     16  H   UNL     1      -1.059   3.358   0.026  0.00  0.00    +0.144 HD
ATOM     17  H   UNL     1      -2.154   1.798   0.022  0.00  0.00    +0.144 HD
ENDBRANCH   3   8
BRANCH   1  22
ATOM     18  C   UNL     1      -8.106  -4.751   2.421  0.00  0.00    +0.044 C 
ATOM     19  C   UNL     1      -6.887  -4.166   1.754  0.00  0.00    -0.050 A 
ATOM     20  C   UNL     1      -6.749  -2.795   1.649  0.00  0.00    +0.003 A 
ATOM     21  C   UNL     1      -5.631  -2.259   1.036  0.00  0.00    +0.004 A 
ATOM     22  C   UNL     1      -4.653  -3.093   0.530  0.00  0.00    -0.044 A 
ATOM     23  C   UNL     1      -4.794  -4.465   0.631  0.00  0.00    +0.004 A 
ATOM     24  C   UNL     1      -5.909  -5.001   1.248  0.00  0.00    +0.003 A 
ENDBRANCH   1  22
TORSDOF 2
