REMARK  Name = ZINC04293426
REMARK  4 active torsions:
REMARK  status: ('A' for Active; 'I' for Inactive)
REMARK    1  A    between atoms: C_7  and  C_11
REMARK    2  A    between atoms: C_12  and  C_13
REMARK    3  A    between atoms: C_13  and  C_15
REMARK    4  A    between atoms: C_16  and  C_17
REMARK                            x       y       z     vdW  Elec       q    Type
REMARK                         _______ _______ _______ _____ _____    ______ ____
ROOT
ATOM      1  C   UNL     1       5.884   4.861  -0.029  0.00  0.00    +0.179 C 
ATOM      2  O   UNL     1       6.335   3.727  -0.040  0.00  0.00    -0.288 OA
ENDROOT
BRANCH   1   4
ATOM      3  C   UNL     1       3.642   4.001  -0.012  0.00  0.00    +0.014 C 
ATOM      4  C   UNL     1       4.482   5.065  -0.014  0.00  0.00    +0.051 C 
BRANCH   3  11
ATOM      5  C   UNL     1      -0.013   1.076   0.008  0.00  0.00    +0.001 A 
ATOM      6  C   UNL     1      -1.225   1.750   0.017  0.00  0.00    +0.002 A 
ATOM      7  C   UNL     1      -1.262   3.127   0.030  0.00  0.00    +0.026 A 
ATOM      8  C   UNL     1      -0.076   3.854   0.024  0.00  0.00    +0.047 A 
ATOM      9  C   UNL     1       1.150   3.170   0.008  0.00  0.00    +0.007 A 
ATOM     10  C   UNL     1       1.173   1.778   0.000  0.00  0.00    +0.010 A 
ATOM     11  C   UNL     1       2.194   4.212   0.004  0.00  0.00    +0.000 A 
ATOM     12  C   UNL     1       1.542   5.413   0.016  0.00  0.00    +0.091 A 
ATOM     13  N   UNL     1       0.202   5.206   0.028  0.00  0.00    -0.360 N 
ATOM     14  H   UNL     1      -0.467   5.908   0.038  0.00  0.00    +0.165 HD
ENDBRANCH   3  11
ENDBRANCH   1   4
BRANCH   1  15
ATOM     15  C   UNL     1       6.791   6.010  -0.032  0.00  0.00    +0.051 C 
ATOM     16  C   UNL     1       8.127   5.815  -0.046  0.00  0.00    +0.012 C 
BRANCH  16  17
ATOM     17  C   UNL     1       9.038   6.969  -0.049  0.00  0.00    -0.021 A 
ATOM     18  C   UNL     1       8.523   8.270  -0.036  0.00  0.00    +0.012 A 
ATOM     19  C   UNL     1       9.379   9.349  -0.038  0.00  0.00    +0.050 A 
ATOM     20  C   UNL     1      10.754   9.152  -0.052  0.00  0.00    +0.166 A 
ATOM     21  C   UNL     1      11.275   7.857  -0.065  0.00  0.00    +0.167 A 
ATOM     22  C   UNL     1      10.423   6.770  -0.058  0.00  0.00    +0.057 A 
ATOM     23  O   UNL     1      12.638   7.936  -0.077  0.00  0.00    -0.453 OA
ATOM     24  C   UNL     1      12.948   9.279   0.341  0.00  0.00    +0.466 C 
ATOM     25  O   UNL     1      11.791  10.038  -0.057  0.00  0.00    -0.453 OA
ENDBRANCH  16  17
ENDBRANCH   1  15
TORSDOF 4
