REMARK  Name = ZINC01089502
REMARK  7 active torsions:
REMARK  status: ('A' for Active; 'I' for Inactive)
REMARK    1  A    between atoms: C_4  and  C_8
REMARK    2  A    between atoms: C_8  and  O_9
REMARK    3  A    between atoms: O_9  and  C_10
REMARK    4  A    between atoms: C_13  and  C_16
REMARK    5  A    between atoms: C_18  and  C_35
REMARK    6  A    between atoms: C_19  and  N_34
REMARK    7  A    between atoms: C_26  and  C_29
REMARK                            x       y       z     vdW  Elec       q    Type
REMARK                         _______ _______ _______ _____ _____    ______ ____
ROOT
ATOM      1  C   UNL     1       9.021  -3.680   1.979  0.00  0.00    +0.101 C 
ATOM      2  C   UNL     1       8.776  -4.959   2.730  0.00  0.00    +0.098 C 
ATOM      3  C   UNL     1       9.075  -5.050   4.049  0.00  0.00    +0.198 C 
ATOM      4  O   UNL     1       9.595  -4.006   4.716  0.00  0.00    -0.445 OA
ATOM      5  C   UNL     1      10.217  -3.015   4.050  0.00  0.00    +0.115 C 
ATOM      6  C   UNL     1       9.983  -2.804   2.745  0.00  0.00    +0.046 C 
ATOM      7  C   UNL     1      10.624  -1.759   2.052  0.00  0.00    +0.164 C 
ATOM      8  O   UNL     1      10.400  -1.603   0.868  0.00  0.00    -0.292 OA
ATOM      9  C   UNL     1      11.581  -0.832   2.751  0.00  0.00    +0.091 C 
ATOM     10  C   UNL     1      11.193  -0.742   4.231  0.00  0.00    +0.070 C 
ATOM     11  C   UNL     1      11.192  -2.148   4.811  0.00  0.00    +0.086 C 
ENDROOT
BRANCH   1  15
ATOM     12  C   UNL     1       5.319  -1.608   1.467  0.00  0.00    +0.121 A 
ATOM     13  C   UNL     1       6.049  -2.011   0.358  0.00  0.00    +0.046 A 
ATOM     14  C   UNL     1       7.246  -2.680   0.527  0.00  0.00    +0.008 A 
ATOM     15  C   UNL     1       7.716  -2.949   1.799  0.00  0.00    -0.034 A 
ATOM     16  C   UNL     1       6.990  -2.550   2.905  0.00  0.00    +0.008 A 
ATOM     17  C   UNL     1       5.795  -1.875   2.743  0.00  0.00    +0.046 A 
BRANCH  12  18
ATOM     18  O   UNL     1       4.142  -0.949   1.304  0.00  0.00    -0.487 OA
BRANCH  18  19
ATOM     19  C   UNL     1       3.713  -0.710  -0.038  0.00  0.00    +0.268 C 
BRANCH  19  23
ATOM     20  C   UNL     1      -0.017   1.378   0.010  0.00  0.00    +0.004 A 
ATOM     21  C   UNL     1       1.170   2.086   0.002  0.00  0.00    +0.039 A 
ATOM     22  C   UNL     1       2.379   1.411  -0.013  0.00  0.00    +0.131 A 
ATOM     23  C   UNL     1       2.398   0.026  -0.021  0.00  0.00    +0.043 A 
ATOM     24  C   UNL     1       1.209  -0.680  -0.013  0.00  0.00    +0.050 A 
ATOM     25  C   UNL     1       0.002  -0.004   0.002  0.00  0.00    +0.020 A 
ATOM     26 CL   UNL     1       1.232  -2.416  -0.022  0.00  0.00    -0.083 Cl
ATOM     27  F   UNL     1       3.539   2.103  -0.021  0.00  0.00    -0.205 F 
ENDBRANCH  19  23
ENDBRANCH  18  19
ENDBRANCH  12  18
ENDBRANCH   1  15
BRANCH  10  28
ATOM     28  C   UNL     1      12.193   0.113   4.965  0.00  0.00    +0.109 A 
ATOM     29  C   UNL     1      11.917   1.247   5.634  0.00  0.00    +0.045 A 
ATOM     30  C   UNL     1      13.140   1.716   6.166  0.00  0.00    +0.041 A 
ATOM     31  C   UNL     1      14.090   0.841   5.791  0.00  0.00    +0.195 A 
ATOM     32  O   UNL     1      13.509  -0.131   5.068  0.00  0.00    -0.468 OA
ENDBRANCH  10  28
BRANCH   3  33
ATOM     33  N   UNL     1       8.844  -6.229   4.714  0.00  0.00    -0.328 N 
ATOM     34  H   UNL     1       8.469  -6.987   4.240  0.00  0.00    +0.145 HD
ATOM     35  H   UNL     1       9.055  -6.303   5.658  0.00  0.00    +0.145 HD
ENDBRANCH   3  33
BRANCH   2  36
ATOM     36  C   UNL     1       8.222  -6.089   2.047  0.00  0.00    +0.101 C 
ATOM     37  N   UNL     1       7.782  -6.985   1.505  0.00  0.00    -0.191 NA
ENDBRANCH   2  36
TORSDOF 7
