REMARK  Name = ZINC64052822
REMARK  9 active torsions:
REMARK  status: ('A' for Active; 'I' for Inactive)
REMARK    1  A    between atoms: C_1  and  C_2
REMARK    2  A    between atoms: C_2  and  C_4
REMARK    3  A    between atoms: C_2  and  N_32
REMARK    4  A    between atoms: C_8  and  S_17
REMARK    5  A    between atoms: N_9  and  C_10
REMARK    6  A    between atoms: S_17  and  C_18
REMARK    7  A    between atoms: C_18  and  C_19
REMARK    8  A    between atoms: C_19  and  C_20
REMARK    9  A    between atoms: C_20  and  N_21
REMARK                            x       y       z     vdW  Elec       q    Type
REMARK                         _______ _______ _______ _____ _____    ______ ____
ROOT
ATOM      1  C   UNL     1       0.735  -0.490   1.229  0.00  0.00    +0.168 C 
ATOM      2  N   UNL     1       0.115   0.028   2.461  0.00  0.00    -0.248 N 
ATOM      3  N   UNL     1       1.107   0.768   3.115  0.00  0.00    -0.162 NA
ATOM      4  C   UNL     1       2.215   0.763   2.453  0.00  0.00    +0.179 C 
ATOM      5  N   UNL     1       2.114   0.024   1.279  0.00  0.00    -0.260 N 
ATOM      6  H   UNL     1      -0.797  -0.115   2.759  0.00  0.00    +0.170 HD
ENDROOT
BRANCH   5   7
ATOM      7  C   UNL     1       3.121  -0.190   0.332  0.00  0.00    +0.038 A 
ATOM      8  C   UNL     1       3.614   0.875  -0.410  0.00  0.00    +0.026 A 
ATOM      9  C   UNL     1       4.609   0.662  -1.345  0.00  0.00    +0.040 A 
ATOM     10  C   UNL     1       5.114  -0.612  -1.542  0.00  0.00    +0.124 A 
ATOM     11  C   UNL     1       4.623  -1.675  -0.802  0.00  0.00    +0.040 A 
ATOM     12  C   UNL     1       3.633  -1.466   0.137  0.00  0.00    +0.026 A 
ATOM     13  F   UNL     1       6.086  -0.819  -2.456  0.00  0.00    -0.205 F 
ENDBRANCH   5   7
BRANCH   1  15
ATOM     14  C   UNL     1       0.008   1.577   0.027  0.00  0.00    -0.010 C 
ATOM     15  C   UNL     1       0.006   0.047  -0.005  0.00  0.00    -0.031 C 
BRANCH  15  16
ATOM     16  N   UNL     1      -1.379  -0.441  -0.007  0.00  0.00    +0.384 N 
ATOM     17  C   UNL     1      -1.379  -1.909  -0.029  0.00  0.00    -0.078 C 
ATOM     18  C   UNL     1      -2.818  -2.424   0.051  0.00  0.00    -0.019 C 
ATOM     19  C   UNL     1      -3.611  -1.894  -1.147  0.00  0.00    -0.004 C 
ATOM     20  C   UNL     1      -3.542  -0.364  -1.156  0.00  0.00    -0.019 C 
ATOM     21  C   UNL     1      -2.076   0.074  -1.191  0.00  0.00    -0.078 C 
ATOM     22  H   UNL     1      -1.849  -0.119   0.826  0.00  0.00    -0.081 HD
ENDBRANCH  15  16
ENDBRANCH   1  15
BRANCH   4  23
ATOM     23  S   UNL     1       3.680   1.591   2.973  0.00  0.00    -0.089 S 
BRANCH  23  24
ATOM     24  C   UNL     1       3.212   2.366   4.545  0.00  0.00    +0.079 C 
BRANCH  24  25
ATOM     25  C   UNL     1       4.409   3.129   5.115  0.00  0.00    +0.033 C 
BRANCH  25  26
ATOM     26  C   UNL     1       4.014   3.782   6.441  0.00  0.00    +0.128 C 
BRANCH  26  27
ATOM     27  N   UNL     1       5.161   4.512   6.987  0.00  0.00    -0.292 N 
ATOM     28  C   UNL     1       6.129   3.990   7.840  0.00  0.00    +0.070 A 
ATOM     29  C   UNL     1       6.323   2.739   8.406  0.00  0.00    +0.028 A 
ATOM     30  C   UNL     1       7.407   2.520   9.235  0.00  0.00    +0.002 A 
ATOM     31  C   UNL     1       8.299   3.544   9.503  0.00  0.00    +0.002 A 
ATOM     32  C   UNL     1       8.113   4.793   8.944  0.00  0.00    +0.028 A 
ATOM     33  C   UNL     1       7.029   5.022   8.110  0.00  0.00    +0.067 A 
ATOM     34  N   UNL     1       6.580   6.141   7.412  0.00  0.00    -0.306 N 
ATOM     35  H   UNL     1       7.003   7.013   7.405  0.00  0.00    +0.170 HD
ATOM     36  C   UNL     1       5.461   5.802   6.743  0.00  0.00    +0.328 A 
ATOM     37  O   UNL     1       4.818   6.549   6.031  0.00  0.00    -0.247 OA
ENDBRANCH  26  27
ENDBRANCH  25  26
ENDBRANCH  24  25
ENDBRANCH  23  24
ENDBRANCH   4  23
TORSDOF 8
