REMARK  Name = ZINC15424497
REMARK  4 active torsions:
REMARK  status: ('A' for Active; 'I' for Inactive)
REMARK    1  A    between atoms: C_1  and  C_2
REMARK    2  A    between atoms: C_5  and  N_9
REMARK    3  A    between atoms: C_7  and  C_8
REMARK    4  A    between atoms: N_20  and  N_21
REMARK                            x       y       z     vdW  Elec       q    Type
REMARK                         _______ _______ _______ _____ _____    ______ ____
ROOT
ATOM      1  N   UNL     1      -2.777   1.682  -2.205  0.00  0.00    -0.248 N 
ATOM      2  C   UNL     1      -4.084   1.790  -1.871  0.00  0.00    +0.267 A 
ATOM      3  O   UNL     1      -4.762   2.719  -2.270  0.00  0.00    -0.267 OA
ATOM      4  C   UNL     1      -4.654   0.745  -1.011  0.00  0.00    +0.065 A 
ATOM      5  C   UNL     1      -5.990   0.766  -0.612  0.00  0.00    +0.015 A 
ATOM      6  C   UNL     1      -6.469  -0.232   0.190  0.00  0.00    +0.001 A 
ATOM      7  C   UNL     1      -5.641  -1.266   0.609  0.00  0.00    +0.002 A 
ATOM      8  C   UNL     1      -4.328  -1.311   0.233  0.00  0.00    +0.028 A 
ATOM      9  C   UNL     1      -3.808  -0.304  -0.586  0.00  0.00    +0.080 A 
ATOM     10  N   UNL     1      -2.515  -0.313  -0.986  0.00  0.00    -0.214 NA
ATOM     11  C   UNL     1      -2.029   0.633  -1.750  0.00  0.00    +0.217 A 
ATOM     12  N   UNL     1      -0.707   0.566  -2.114  0.00  0.00    -0.253 N 
ATOM     13  H   UNL     1      -0.308   1.285  -2.628  0.00  0.00    +0.169 HD
ENDROOT
BRANCH   1  18
ATOM     14  C   UNL     1      -0.386   5.618  -5.521  0.00  0.00    +0.044 C 
ATOM     15  C   UNL     1      -1.020   4.573  -4.640  0.00  0.00    -0.047 A 
ATOM     16  C   UNL     1      -1.012   4.730  -3.266  0.00  0.00    +0.005 A 
ATOM     17  C   UNL     1      -1.598   3.777  -2.457  0.00  0.00    +0.026 A 
ATOM     18  C   UNL     1      -2.186   2.654  -3.023  0.00  0.00    +0.053 A 
ATOM     19  C   UNL     1      -2.193   2.499  -4.403  0.00  0.00    +0.030 A 
ATOM     20  C   UNL     1      -1.610   3.458  -5.208  0.00  0.00    -0.046 A 
ATOM     21  C   UNL     1      -1.617   3.291  -6.705  0.00  0.00    +0.044 C 
ENDBRANCH   1  18
BRANCH  12  22
ATOM     22  N   UNL     1       0.046  -0.515  -1.753  0.00  0.00    -0.254 NA
ATOM     23  H   UNL     1      -0.373  -1.373  -2.078  0.00  0.00    +0.140 HD
ATOM     24  H   UNL     1       0.993  -0.424  -2.090  0.00  0.00    +0.140 HD
ENDBRANCH  12  22
TORSDOF 2
