REMARK  Name = ZINC16426104
REMARK  8 active torsions:
REMARK  status: ('A' for Active; 'I' for Inactive)
REMARK    1  A    between atoms: C_1  and  C_2
REMARK    2  A    between atoms: C_5  and  O_37
REMARK    3  A    between atoms: C_6  and  N_8
REMARK    4  A    between atoms: N_8  and  S_9
REMARK    5  A    between atoms: S_9  and  C_12
REMARK    6  A    between atoms: C_25  and  C_28
REMARK    7  A    between atoms: C_33  and  N_34
REMARK    8  A    between atoms: O_37  and  C_38
REMARK                            x       y       z     vdW  Elec       q    Type
REMARK                         _______ _______ _______ _____ _____    ______ ____
ROOT
ATOM      1  C   UNL     1      -0.945   4.719   4.495  0.00  0.00    +0.109 A 
ATOM      2  C   UNL     1       0.286   4.619   5.118  0.00  0.00    +0.030 A 
ATOM      3  C   UNL     1       1.200   5.648   5.015  0.00  0.00    +0.025 A 
ATOM      4  C   UNL     1       0.887   6.795   4.295  0.00  0.00    +0.031 A 
ATOM      5  C   UNL     1      -0.356   6.884   3.660  0.00  0.00    -0.018 A 
ATOM      6  C   UNL     1      -1.263   5.852   3.771  0.00  0.00    +0.034 A 
ATOM      7  C   UNL     1      -0.632   8.103   2.869  0.00  0.00    +0.049 C 
ATOM      8  C   UNL     1      -2.014   8.608   2.604  0.00  0.00    -0.023 C 
ATOM      9  C   UNL     1      -1.988   9.933   2.532  0.00  0.00    -0.030 C 
ATOM     10  C   UNL     1      -0.562  10.441   2.755  0.00  0.00    +0.033 C 
ATOM     11  C   UNL     1       0.042   9.306   3.593  0.00  0.00    +0.029 C 
ATOM     12  C   UNL     1       1.536   9.071   3.464  0.00  0.00    +0.107 C 
ATOM     13  N   UNL     1       1.815   7.842   4.238  0.00  0.00    -0.336 N 
ATOM     14  H   UNL     1       2.656   7.759   4.714  0.00  0.00    +0.147 HD
ENDROOT
BRANCH  12  15
ATOM     15  C   UNL     1       2.298  10.235   4.044  0.00  0.00    +0.003 A 
ATOM     16  C   UNL     1       1.643  11.171   4.823  0.00  0.00    +0.008 A 
ATOM     17  C   UNL     1       2.342  12.238   5.355  0.00  0.00    +0.000 A 
ATOM     18  C   UNL     1       3.696  12.369   5.109  0.00  0.00    +0.002 A 
ATOM     19  C   UNL     1       4.351  11.434   4.331  0.00  0.00    +0.033 A 
ATOM     20  C   UNL     1       3.653  10.363   3.803  0.00  0.00    +0.131 A 
BRANCH  20  21
ATOM     21  N   UNL     1       4.356   9.358   2.974  0.00  0.00    +0.057 N 
ATOM     22  O   UNL     1       5.523   9.527   2.671  0.00  0.00    -0.126 OA
ATOM     23  O   UNL     1       3.767   8.361   2.596  0.00  0.00    -0.126 OA
ENDBRANCH  20  21
ENDBRANCH  12  15
BRANCH   1  24
ATOM     24  S   UNL     1      -2.110   3.404   4.631  0.00  0.00    +0.072 S 
ATOM     25  O   UNL     1      -3.394   3.975   4.419  0.00  0.00    -0.150 OA
ATOM     26  O   UNL     1      -1.781   2.690   5.815  0.00  0.00    -0.150 OA
BRANCH  24  27
ATOM     27  N   UNL     1      -1.835   2.373   3.365  0.00  0.00    -0.213 N 
ATOM     28  H   UNL     1      -2.538   2.201   2.718  0.00  0.00    +0.174 HD
BRANCH  27  34
ATOM     29  C   UNL     1       2.116   0.311   5.439  0.00  0.00    +0.044 C 
ATOM     30  C   UNL     1       1.348   0.740   4.215  0.00  0.00    -0.048 A 
ATOM     31  C   UNL     1       1.876   0.517   2.957  0.00  0.00    +0.007 A 
ATOM     32  C   UNL     1       1.173   0.902   1.830  0.00  0.00    +0.048 A 
ATOM     33  C   UNL     1      -0.058   1.524   1.960  0.00  0.00    +0.142 A 
ATOM     34  C   UNL     1      -0.590   1.750   3.227  0.00  0.00    +0.090 A 
ATOM     35  C   UNL     1       0.118   1.355   4.353  0.00  0.00    +0.031 A 
BRANCH  33  36
ATOM     36  O   UNL     1      -0.747   1.909   0.853  0.00  0.00    -0.493 OA
ATOM     37  C   UNL     1      -0.140   1.645  -0.414  0.00  0.00    +0.277 C 
ENDBRANCH  33  36
ENDBRANCH  27  34
ENDBRANCH  24  27
ENDBRANCH   1  24
TORSDOF 6
