REMARK  Name = ZINC08609936
REMARK  4 active torsions:
REMARK  status: ('A' for Active; 'I' for Inactive)
REMARK    1  A    between atoms: C_1  and  C_2
REMARK    2  A    between atoms: C_3  and  C_18
REMARK    3  A    between atoms: C_4  and  C_12
REMARK    4  A    between atoms: N_20  and  C_21
REMARK                            x       y       z     vdW  Elec       q    Type
REMARK                         _______ _______ _______ _____ _____    ______ ____
ROOT
ATOM      1  C   UNL     1      -0.018   1.502   0.016  0.00  0.00    +0.061 C 
ATOM      2  C   UNL     1       0.002  -0.004  -0.002  0.00  0.00    +0.018 C 
ATOM      3  C   UNL     1      -1.163  -0.668  -0.002  0.00  0.00    +0.062 C 
ATOM      4  C   UNL     1      -1.253  -2.171  -0.007  0.00  0.00    +0.193 C 
ATOM      5  N   UNL     1       0.061  -2.736  -0.304  0.00  0.00    -0.219 N 
ATOM      6  C   UNL     1       1.207  -2.011  -0.299  0.00  0.00    +0.219 A 
ATOM      7  N   UNL     1       2.192  -2.814  -0.595  0.00  0.00    -0.201 NA
ATOM      8  C   UNL     1       1.718  -4.048  -0.799  0.00  0.00    +0.247 A 
ATOM      9  N   UNL     1       0.418  -4.042  -0.632  0.00  0.00    -0.156 NA
ATOM     10  N   UNL     1       1.213  -0.652  -0.024  0.00  0.00    -0.287 N 
ATOM     11  H   UNL     1       2.041  -0.177   0.150  0.00  0.00    +0.155 HD
ENDROOT
BRANCH   4  12
ATOM     12  C   UNL     1      -1.713  -2.652   1.345  0.00  0.00    +0.046 A 
ATOM     13  C   UNL     1      -1.403  -2.090   2.531  0.00  0.00    +0.025 A 
ATOM     14  C   UNL     1      -2.037  -2.849   3.535  0.00  0.00    +0.019 A 
ATOM     15  C   UNL     1      -2.710  -3.845   2.924  0.00  0.00    +0.083 A 
ATOM     16  N   UNL     1      -2.520  -3.726   1.579  0.00  0.00    -0.362 N 
ATOM     17  H   UNL     1      -2.894  -4.310   0.901  0.00  0.00    +0.165 HD
ENDBRANCH   4  12
BRANCH   3  18
ATOM     18  C   UNL     1      -2.364   0.079   0.004  0.00  0.00    +0.248 C 
ATOM     19  O   UNL     1      -2.325   1.296   0.008  0.00  0.00    -0.270 OA
ATOM     20  N   UNL     1      -3.553  -0.556   0.004  0.00  0.00    -0.282 N 
ATOM     21  H   UNL     1      -3.586  -1.523  -0.067  0.00  0.00    +0.155 HD
BRANCH  20  22
ATOM     22  C   UNL     1      -4.739   0.178   0.108  0.00  0.00    +0.034 A 
ATOM     23  C   UNL     1      -4.838   1.427  -0.492  0.00  0.00    +0.023 A 
ATOM     24  C   UNL     1      -6.010   2.150  -0.388  0.00  0.00    +0.002 A 
ATOM     25  C   UNL     1      -7.084   1.632   0.313  0.00  0.00    +0.000 A 
ATOM     26  C   UNL     1      -6.988   0.389   0.912  0.00  0.00    +0.002 A 
ATOM     27  C   UNL     1      -5.821  -0.342   0.806  0.00  0.00    +0.023 A 
ENDBRANCH  20  22
ENDBRANCH   3  18
TORSDOF 3
