REMARK  Name = ZINC30684143
REMARK  4 active torsions:
REMARK  status: ('A' for Active; 'I' for Inactive)
REMARK    1  A    between atoms: C_1  and  C_2
REMARK    2  A    between atoms: C_5  and  C_9
REMARK    3  A    between atoms: C_12  and  C_14
REMARK    4  A    between atoms: C_24  and  C_26
REMARK                            x       y       z     vdW  Elec       q    Type
REMARK                         _______ _______ _______ _____ _____    ______ ____
ROOT
ATOM      1  C   UNL     1      -1.106  -7.449  -1.054  0.00  0.00    +0.063 C 
ATOM      2  C   UNL     1      -2.225  -7.273  -1.854  0.00  0.00    +0.084 C 
ATOM      3  C   UNL     1      -3.006  -8.428  -2.372  0.00  0.00    +0.153 C 
ATOM      4  N   UNL     1      -3.156  -9.548  -1.712  0.00  0.00    -0.283 NA
ATOM      5  N   UNL     1      -3.570  -8.198  -3.645  0.00  0.00    -0.152 N 
ATOM      6  C   UNL     1      -3.777  -6.888  -4.022  0.00  0.00    +0.181 C 
ATOM      7  N   UNL     1      -3.422  -5.807  -3.373  0.00  0.00    -0.152 NA
ATOM      8  C   UNL     1      -2.710  -5.926  -2.232  0.00  0.00    +0.273 C 
ATOM      9  O   UNL     1      -2.469  -4.954  -1.534  0.00  0.00    -0.268 OA
ATOM     10  S   UNL     1      -4.603  -7.071  -5.580  0.00  0.00    -0.033 S 
ATOM     11  C   UNL     1      -4.532  -8.854  -5.676  0.00  0.00    +0.130 C 
ATOM     12  N   UNL     1      -3.945  -9.170  -4.547  0.00  0.00    -0.164 NA
ATOM     13  H   UNL     1      -3.676 -10.271  -2.096  0.00  0.00    +0.188 HD
ENDROOT
BRANCH  11  14
ATOM     14  C   UNL     1      -5.013  -9.746  -6.755  0.00  0.00    +0.009 A 
ATOM     15  C   UNL     1      -4.868 -11.128  -6.638  0.00  0.00    +0.010 A 
ATOM     16  C   UNL     1      -5.318 -11.954  -7.647  0.00  0.00    +0.001 A 
ATOM     17  C   UNL     1      -5.911 -11.414  -8.774  0.00  0.00    +0.000 A 
ATOM     18  C   UNL     1      -6.057 -10.044  -8.897  0.00  0.00    +0.001 A 
ATOM     19  C   UNL     1      -5.617  -9.208  -7.891  0.00  0.00    +0.010 A 
ENDBRANCH  11  14
BRANCH   1  23
ATOM     20  C   UNL     1       0.626  -4.349  -0.836  0.00  0.00    +0.137 A 
ATOM     21  C   UNL     1       1.358  -5.082   0.075  0.00  0.00    +0.050 A 
ATOM     22  C   UNL     1       0.799  -6.359   0.115  0.00  0.00    +0.050 A 
ATOM     23  C   UNL     1      -0.262  -6.360  -0.779  0.00  0.00    +0.129 A 
ATOM     24  O   UNL     1      -0.347  -5.132  -1.334  0.00  0.00    -0.455 OA
BRANCH  20  29
ATOM     25  C   UNL     1       1.560   1.148  -2.249  0.00  0.00    +0.044 C 
ATOM     26  C   UNL     1       1.316  -0.292  -1.878  0.00  0.00    -0.049 A 
ATOM     27  C   UNL     1       1.171  -1.244  -2.872  0.00  0.00    +0.004 A 
ATOM     28  C   UNL     1       0.947  -2.563  -2.541  0.00  0.00    +0.013 A 
ATOM     29  C   UNL     1       0.866  -2.939  -1.198  0.00  0.00    +0.031 A 
ATOM     30  C   UNL     1       1.014  -1.973  -0.199  0.00  0.00    +0.029 A 
ATOM     31  C   UNL     1       1.244  -0.656  -0.545  0.00  0.00    +0.019 A 
ATOM     32 BR   UNL     1       0.908  -2.469   1.623  0.00  0.00    -0.050 Br
ENDBRANCH  20  29
ENDBRANCH   1  23
TORSDOF 3
