REMARK  Name = ZINC09881676
REMARK  9 active torsions:
REMARK  status: ('A' for Active; 'I' for Inactive)
REMARK    1  A    between atoms: C_1  and  C_2
REMARK    2  A    between atoms: C_2  and  C_4
REMARK    3  A    between atoms: C_2  and  S_15
REMARK    4  A    between atoms: N_6  and  C_7
REMARK    5  A    between atoms: C_7  and  C_13
REMARK    6  A    between atoms: S_15  and  C_16
REMARK    7  A    between atoms: C_19  and  C_28
REMARK    8  A    between atoms: N_20  and  C_21
REMARK    9  A    between atoms: C_28  and  N_64
REMARK                            x       y       z     vdW  Elec       q    Type
REMARK                         _______ _______ _______ _____ _____    ______ ____
ROOT
ATOM      1  C   UNL     1      -5.040   2.730   3.928  0.00  0.00    +0.197 A 
ATOM      2  N   UNL     1      -4.285   3.201   4.894  0.00  0.00    -0.122 NA
ATOM      3  N   UNL     1      -5.022   3.677   5.833  0.00  0.00    -0.135 NA
ATOM      4  C   UNL     1      -6.282   3.540   5.528  0.00  0.00    +0.122 A 
ATOM      5  N   UNL     1      -6.340   2.936   4.300  0.00  0.00    -0.276 N 
ENDROOT
BRANCH   5   6
ATOM      6  C   UNL     1      -7.493   2.597   3.575  0.00  0.00    +0.050 A 
ATOM      7  C   UNL     1      -8.339   3.594   3.110  0.00  0.00    +0.029 A 
ATOM      8  C   UNL     1      -9.471   3.258   2.393  0.00  0.00    +0.040 A 
ATOM      9  C   UNL     1      -9.767   1.928   2.147  0.00  0.00    +0.124 A 
ATOM     10  C   UNL     1      -8.927   0.932   2.615  0.00  0.00    +0.040 A 
ATOM     11  C   UNL     1      -7.791   1.264   3.328  0.00  0.00    +0.029 A 
ATOM     12  F   UNL     1     -10.878   1.602   1.450  0.00  0.00    -0.205 F 
ENDBRANCH   5   6
BRANCH   1  13
ATOM     13  S   UNL     1      -4.483   1.981   2.433  0.00  0.00    -0.073 S 
BRANCH  13  15
ATOM     14  C   UNL     1      -2.291   1.209   3.870  0.00  0.00    +0.029 C 
ATOM     15  C   UNL     1      -2.693   2.082   2.679  0.00  0.00    +0.137 C 
BRANCH  15  16
ATOM     16  C   UNL     1      -1.987   1.596   1.439  0.00  0.00    +0.227 C 
ATOM     17  O   UNL     1      -2.575   0.895   0.643  0.00  0.00    -0.275 OA
ATOM     18  N   UNL     1      -0.704   1.940   1.215  0.00  0.00    -0.296 N 
ATOM     19  H   UNL     1      -0.234   2.501   1.853  0.00  0.00    +0.150 HD
BRANCH  18  20
ATOM     20  C   UNL     1      -0.018   1.468   0.010  0.00  0.00    +0.121 C 
ATOM     21  C   UNL     1      -0.758   1.975  -1.229  0.00  0.00    +0.041 C 
ATOM     22  C   UNL     1      -0.042   1.481  -2.488  0.00  0.00    +0.003 C 
ATOM     23  C   UNL     1       1.394   2.011  -2.499  0.00  0.00    +0.000 C 
ATOM     24  C   UNL     1       2.134   1.504  -1.260  0.00  0.00    +0.003 C 
ATOM     25  C   UNL     1       1.417   1.997  -0.001  0.00  0.00    +0.041 C 
BRANCH  20  26
ATOM     26  C   UNL     1       0.002  -0.004   0.002  0.00  0.00    +0.088 C 
ATOM     27  N   UNL     1       0.018  -1.140  -0.004  0.00  0.00    -0.194 NA
ENDBRANCH  20  26
ENDBRANCH  18  20
ENDBRANCH  15  16
ENDBRANCH  13  15
ENDBRANCH   1  13
BRANCH   4  28
ATOM     28  C   UNL     1      -7.456   3.971   6.367  0.00  0.00    -0.001 C 
BRANCH  28  34
ATOM     29  C   UNL     1      -6.756   6.288   6.399  0.00  0.00    -0.078 C 
ATOM     30  C   UNL     1      -7.108   7.691   5.897  0.00  0.00    -0.019 C 
ATOM     31  C   UNL     1      -8.439   8.130   6.514  0.00  0.00    -0.004 C 
ATOM     32  C   UNL     1      -9.522   7.112   6.149  0.00  0.00    -0.019 C 
ATOM     33  C   UNL     1      -9.101   5.726   6.644  0.00  0.00    -0.078 C 
ATOM     34  N   UNL     1      -7.827   5.352   5.994  0.00  0.00    +0.384 N 
ATOM     35  H   UNL     1      -7.945   5.401   4.975  0.00  0.00    -0.081 HD
ENDBRANCH  28  34
ENDBRANCH   4  28
TORSDOF 8
