REMARK  Name = ZINC33912520
REMARK  9 active torsions:
REMARK  status: ('A' for Active; 'I' for Inactive)
REMARK    1  A    between atoms: C_1  and  C_2
REMARK    2  A    between atoms: C_2  and  C_4
REMARK    3  A    between atoms: C_2  and  N_10
REMARK    4  A    between atoms: C_15  and  C_28
REMARK    5  A    between atoms: N_17  and  C_23
REMARK    6  A    between atoms: C_23  and  C_24
REMARK    7  A    between atoms: C_24  and  C_25
REMARK    8  A    between atoms: C_31  and  S_34
REMARK    9  A    between atoms: S_34  and  C_35
REMARK                            x       y       z     vdW  Elec       q    Type
REMARK                         _______ _______ _______ _____ _____    ______ ____
ROOT
ATOM      1  N   UNL     1       0.174  -0.733  -1.322  0.00  0.00    -0.232 N 
ATOM      2  C   UNL     1       1.236  -1.599  -1.261  0.00  0.00    +0.230 C 
ATOM      3  O   UNL     1       1.502  -2.381  -0.373  0.00  0.00    -0.275 OA
ATOM      4  C   UNL     1       1.966  -1.377  -2.488  0.00  0.00    +0.139 C 
ATOM      5  C   UNL     1       2.936  -2.077  -3.347  0.00  0.00    +0.129 C 
ATOM      6  N   UNL     1       2.746  -1.392  -4.671  0.00  0.00    -0.178 NA
ATOM      7  O   UNL     1       1.620  -0.427  -4.502  0.00  0.00    -0.283 OA
ATOM      8  C   UNL     1       0.798  -1.062  -3.504  0.00  0.00    +0.241 C 
ATOM      9  C   UNL     1      -0.003  -0.200  -2.566  0.00  0.00    +0.254 C 
ATOM     10  O   UNL     1      -0.668   0.771  -2.856  0.00  0.00    -0.272 OA
ENDROOT
BRANCH   5  11
ATOM     11  C   UNL     1       4.341  -1.883  -2.836  0.00  0.00    -0.027 A 
ATOM     12  C   UNL     1       5.268  -2.902  -2.965  0.00  0.00    +0.006 A 
ATOM     13  C   UNL     1       6.556  -2.728  -2.498  0.00  0.00    +0.015 A 
ATOM     14  C   UNL     1       6.920  -1.529  -1.898  0.00  0.00    +0.016 A 
ATOM     15  C   UNL     1       5.986  -0.508  -1.770  0.00  0.00    +0.015 A 
ATOM     16  C   UNL     1       4.701  -0.686  -2.245  0.00  0.00    +0.006 A 
BRANCH  14  17
ATOM     17  S   UNL     1       8.562  -1.304  -1.300  0.00  0.00    -0.016 S 
BRANCH  17  18
ATOM     18  C   UNL     1       8.554   0.378  -0.619  0.00  0.00    +0.448 C 
ATOM     19  F   UNL     1       7.604   0.462   0.405  0.00  0.00    -0.160 F 
ATOM     20  F   UNL     1       9.820   0.679  -0.106  0.00  0.00    -0.160 F 
ATOM     21  F   UNL     1       8.232   1.289  -1.630  0.00  0.00    -0.160 F 
ENDBRANCH  17  18
ENDBRANCH  14  17
ENDBRANCH   5  11
BRANCH   1  23
ATOM     22  C   UNL     1      -0.584   1.077   0.139  0.00  0.00    +0.033 C 
ATOM     23  C   UNL     1      -0.682  -0.417  -0.175  0.00  0.00    +0.111 C 
BRANCH  23  24
ATOM     24  C   UNL     1      -2.110  -0.768  -0.504  0.00  0.00    -0.027 A 
ATOM     25  C   UNL     1      -2.386  -1.847  -1.323  0.00  0.00    +0.005 A 
ATOM     26  C   UNL     1      -3.696  -2.169  -1.624  0.00  0.00    +0.000 A 
ATOM     27  C   UNL     1      -4.731  -1.413  -1.105  0.00  0.00    +0.000 A 
ATOM     28  C   UNL     1      -4.455  -0.335  -0.285  0.00  0.00    +0.000 A 
ATOM     29  C   UNL     1      -3.145  -0.016   0.020  0.00  0.00    +0.005 A 
ENDBRANCH  23  24
ENDBRANCH   1  23
BRANCH   6  30
ATOM     30  C   UNL     1       3.974  -0.701  -5.088  0.00  0.00    +0.124 C 
BRANCH  30  31
ATOM     31  C   UNL     1       3.759  -0.065  -6.462  0.00  0.00    +0.113 C 
BRANCH  31  32
ATOM     32  C   UNL     1       5.018   0.644  -6.890  0.00  0.00    +0.212 C 
ATOM     33  O   UNL     1       5.992   0.641  -6.166  0.00  0.00    -0.276 OA
ATOM     34  N   UNL     1       5.063   1.283  -8.076  0.00  0.00    -0.329 N 
ATOM     35  H   UNL     1       4.285   1.286  -8.655  0.00  0.00    +0.145 HD
ATOM     36  H   UNL     1       5.873   1.739  -8.351  0.00  0.00    +0.145 HD
ENDBRANCH  31  32
ENDBRANCH  30  31
ENDBRANCH   6  30
TORSDOF 8
