REMARK  Name = ZINC64228144
REMARK  11 active torsions:
REMARK  status: ('A' for Active; 'I' for Inactive)
REMARK    1  A    between atoms: C_1  and  C_2
REMARK    2  A    between atoms: C_2  and  C_3
REMARK    3  A    between atoms: C_2  and  C_4
REMARK    4  A    between atoms: C_7  and  C_10
REMARK    5  A    between atoms: N_28  and  C_31
REMARK    6  A    between atoms: C_31  and  C_32
REMARK    7  A    between atoms: C_32  and  C_33
REMARK    8  A    between atoms: C_36  and  O_41
REMARK    9  A    between atoms: C_37  and  O_39
REMARK   10  A    between atoms: O_39  and  C_40
REMARK   11  A    between atoms: O_41  and  C_42
REMARK                            x       y       z     vdW  Elec       q    Type
REMARK                         _______ _______ _______ _____ _____    ______ ____
ROOT
ATOM      1  C   UNL     1      -5.419  -2.005   0.043  0.00  0.00    +0.135 C 
ATOM      2  C   UNL     1      -5.431  -3.466   0.511  0.00  0.00    +0.131 C 
ATOM      3  C   UNL     1      -4.930  -4.314  -0.650  0.00  0.00    -0.034 C 
ATOM      4  C   UNL     1      -3.877  -4.987  -0.196  0.00  0.00    -0.001 A 
ATOM      5  C   UNL     1      -3.017  -5.999  -0.829  0.00  0.00    +0.010 A 
ATOM      6  C   UNL     1      -2.000  -6.482  -0.067  0.00  0.00    +0.001 A 
ATOM      7  C   UNL     1      -1.757  -6.065   1.245  0.00  0.00    +0.002 A 
ATOM      8  C   UNL     1      -2.501  -5.144   1.907  0.00  0.00    +0.026 A 
ATOM      9  C   UNL     1      -3.603  -4.566   1.211  0.00  0.00    +0.043 A 
ATOM     10  N   UNL     1      -4.483  -3.680   1.607  0.00  0.00    -0.375 N 
ATOM     11  C   UNL     1      -5.542  -4.269  -2.031  0.00  0.00    +0.065 C 
ATOM     12  C   UNL     1      -6.576  -3.130  -2.013  0.00  0.00    +0.169 C 
ATOM     13  N   UNL     1      -5.974  -1.973  -1.316  0.00  0.00    -0.264 N 
ATOM     14  C   UNL     1      -6.020  -0.940  -2.166  0.00  0.00    +0.312 C 
ATOM     15  O   UNL     1      -5.705   0.196  -1.869  0.00  0.00    -0.252 OA
ATOM     16  N   UNL     1      -6.453  -1.302  -3.381  0.00  0.00    -0.224 N 
ATOM     17  C   UNL     1      -6.812  -2.628  -3.421  0.00  0.00    +0.244 C 
ATOM     18  O   UNL     1      -7.223  -3.265  -4.367  0.00  0.00    -0.273 OA
ATOM     19  H   UNL     1      -4.506  -3.239   2.471  0.00  0.00    +0.160 HD
ENDROOT
BRANCH   1  23
ATOM     20  C   UNL     1      -1.412  -0.526   0.013  0.00  0.00    -0.045 A 
ATOM     21  C   UNL     1      -2.259  -0.204   1.056  0.00  0.00    +0.004 A 
ATOM     22  C   UNL     1      -3.556  -0.683   1.066  0.00  0.00    +0.006 A 
ATOM     23  C   UNL     1      -4.006  -1.482   0.032  0.00  0.00    -0.025 A 
ATOM     24  C   UNL     1      -3.159  -1.803  -1.012  0.00  0.00    +0.006 A 
ATOM     25  C   UNL     1      -1.863  -1.321  -1.024  0.00  0.00    +0.004 A 
BRANCH  20  27
ATOM     26  C   UNL     1      -0.019   1.526   0.010  0.00  0.00    +0.012 C 
ATOM     27  C   UNL     1       0.002  -0.004   0.002  0.00  0.00    +0.013 C 
ATOM     28  C   UNL     1       0.742  -0.511   1.242  0.00  0.00    +0.012 C 
ENDBRANCH  20  27
ENDBRANCH   1  23
BRANCH  16  29
ATOM     29  C   UNL     1      -6.544  -0.394  -4.527  0.00  0.00    +0.122 C 
BRANCH  29  30
ATOM     30  C   UNL     1      -5.227  -0.420  -5.305  0.00  0.00    +0.055 C 
BRANCH  30  31
ATOM     31  C   UNL     1      -5.321   0.514  -6.484  0.00  0.00    -0.042 A 
ATOM     32  C   UNL     1      -5.787   0.046  -7.699  0.00  0.00    +0.007 A 
ATOM     33  C   UNL     1      -5.875   0.899  -8.783  0.00  0.00    +0.049 A 
ATOM     34  C   UNL     1      -5.497   2.226  -8.653  0.00  0.00    +0.161 A 
ATOM     35  C   UNL     1      -5.028   2.696  -7.431  0.00  0.00    +0.162 A 
ATOM     36  C   UNL     1      -4.947   1.837  -6.346  0.00  0.00    +0.053 A 
BRANCH  35  37
ATOM     37  O   UNL     1      -4.655   3.997  -7.298  0.00  0.00    -0.491 OA
ATOM     38  C   UNL     1      -4.184   4.410  -6.014  0.00  0.00    +0.277 C 
ENDBRANCH  35  37
BRANCH  34  39
ATOM     39  O   UNL     1      -5.582   3.066  -9.719  0.00  0.00    -0.491 OA
ATOM     40  C   UNL     1      -6.072   2.514 -10.943  0.00  0.00    +0.277 C 
ENDBRANCH  34  39
ENDBRANCH  30  31
ENDBRANCH  29  30
ENDBRANCH  16  29
TORSDOF 7
