REMARK  Name = ZINC02183151
REMARK  10 active torsions:
REMARK  status: ('A' for Active; 'I' for Inactive)
REMARK    1  A    between atoms: C_1  and  C_2
REMARK    2  A    between atoms: C_5  and  N_8
REMARK    3  A    between atoms: C_17  and  S_18
REMARK    4  A    between atoms: S_18  and  C_19
REMARK    5  A    between atoms: C_19  and  C_20
REMARK    6  A    between atoms: C_20  and  C_21
REMARK    7  A    between atoms: C_21  and  C_22
REMARK    8  A    between atoms: C_21  and  C_23
REMARK    9  A    between atoms: C_27  and  C_28
REMARK   10  A    between atoms: C_27  and  N_65
REMARK                            x       y       z     vdW  Elec       q    Type
REMARK                         _______ _______ _______ _____ _____    ______ ____
ROOT
ATOM      1  N   UNL     1       5.065   6.324  -7.137  0.00  0.00    -0.255 N 
ATOM      2  C   UNL     1       5.063   5.508  -6.057  0.00  0.00    +0.268 A 
ATOM      3  O   UNL     1       6.086   5.010  -5.621  0.00  0.00    -0.267 OA
ATOM      4  C   UNL     1       3.784   5.266  -5.457  0.00  0.00    +0.076 A 
ATOM      5  C   UNL     1       3.510   4.436  -4.298  0.00  0.00    -0.026 A 
ATOM      6  C   UNL     1       2.219   4.350  -3.902  0.00  0.00    -0.021 A 
ATOM      7  S   UNL     1       1.314   5.362  -5.043  0.00  0.00    -0.075 S 
ATOM      8  C   UNL     1       2.664   5.897  -6.047  0.00  0.00    +0.117 A 
ATOM      9  N   UNL     1       2.733   6.689  -7.110  0.00  0.00    -0.216 NA
ATOM     10  C   UNL     1       3.932   6.893  -7.640  0.00  0.00    +0.177 A 
ATOM     11  C   UNL     1       1.691   3.561  -2.745  0.00  0.00    -0.035 C 
ATOM     12  C   UNL     1       4.025   3.299  -2.158  0.00  0.00    -0.073 C 
ATOM     13  C   UNL     1       4.589   3.678  -3.529  0.00  0.00    +0.018 C 
ATOM     14  N   UNL     1       2.739   2.595  -2.336  0.00  0.00    +0.386 N 
ATOM     15  H   UNL     1       2.845   1.885  -3.070  0.00  0.00    -0.081 HD
ENDROOT
BRANCH   1  20
ATOM     16  C   UNL     1      10.014   7.432  -9.685  0.00  0.00    +0.044 C 
ATOM     17  C   UNL     1       8.699   7.138  -9.008  0.00  0.00    -0.050 A 
ATOM     18  C   UNL     1       8.255   7.950  -7.980  0.00  0.00    +0.005 A 
ATOM     19  C   UNL     1       7.052   7.683  -7.358  0.00  0.00    +0.026 A 
ATOM     20  C   UNL     1       6.287   6.598  -7.766  0.00  0.00    +0.052 A 
ATOM     21  C   UNL     1       6.737   5.782  -8.795  0.00  0.00    +0.026 A 
ATOM     22  C   UNL     1       7.939   6.058  -9.417  0.00  0.00    +0.005 A 
ENDBRANCH   1  20
BRANCH  10  23
ATOM     23  S   UNL     1       4.065   7.938  -9.052  0.00  0.00    -0.087 S 
BRANCH  23  24
ATOM     24  C   UNL     1       2.327   8.392  -9.272  0.00  0.00    +0.077 C 
BRANCH  24  25
ATOM     25  C   UNL     1       2.192   9.325 -10.477  0.00  0.00    +0.014 C 
BRANCH  25  26
ATOM     26  C   UNL     1       0.723   9.709 -10.664  0.00  0.00    -0.016 C 
ATOM     27  C   UNL     1       0.254  10.530  -9.461  0.00  0.00    +0.007 C 
ATOM     28  C   UNL     1       0.571  10.540 -11.939  0.00  0.00    +0.007 C 
ENDBRANCH  25  26
ENDBRANCH  24  25
ENDBRANCH  23  24
ENDBRANCH  10  23
BRANCH  14  29
ATOM     29  C   UNL     1       2.348   1.928  -1.075  0.00  0.00    -0.043 C 
BRANCH  29  30
ATOM     30  C   UNL     1       0.924   1.446  -1.191  0.00  0.00    -0.064 A 
ATOM     31  C   UNL     1       0.659   0.187  -1.695  0.00  0.00    +0.002 A 
ATOM     32  C   UNL     1      -0.646  -0.255  -1.801  0.00  0.00    +0.000 A 
ATOM     33  C   UNL     1      -1.687   0.565  -1.407  0.00  0.00    +0.000 A 
ATOM     34  C   UNL     1      -1.422   1.823  -0.898  0.00  0.00    +0.000 A 
ATOM     35  C   UNL     1      -0.117   2.264  -0.792  0.00  0.00    +0.002 A 
ENDBRANCH  29  30
ENDBRANCH  14  29
TORSDOF 7
