REMARK  Name = ZINC05879310
REMARK  6 active torsions:
REMARK  status: ('A' for Active; 'I' for Inactive)
REMARK    1  A    between atoms: C_1  and  N_43
REMARK    2  A    between atoms: C_9  and  O_23
REMARK    3  A    between atoms: C_11  and  C_14
REMARK    4  A    between atoms: C_18  and  O_21
REMARK    5  A    between atoms: C_19  and  O_20
REMARK    6  A    between atoms: O_21  and  C_22
REMARK                            x       y       z     vdW  Elec       q    Type
REMARK                         _______ _______ _______ _____ _____    ______ ____
ROOT
ATOM      1  C   UNL     1       4.752  -2.451  -0.284  0.00  0.00    -0.096 C 
ATOM      2  C   UNL     1       4.446  -0.146   0.392  0.00  0.00    -0.074 C 
ATOM      3  C   UNL     1       3.799   1.175  -0.035  0.00  0.00    +0.018 C 
ATOM      4  C   UNL     1       2.286   0.992  -0.019  0.00  0.00    -0.027 A 
ATOM      5  C   UNL     1       1.756  -0.256  -0.020  0.00  0.00    -0.021 A 
ATOM      6  S   UNL     1       0.002  -0.004   0.002  0.00  0.00    -0.080 S 
ATOM      7  C   UNL     1      -0.021   1.707   0.011  0.00  0.00    +0.080 A 
ATOM      8  C   UNL     1       1.329   2.081   0.001  0.00  0.00    +0.067 A 
ATOM      9  C   UNL     1       1.632   3.535   0.016  0.00  0.00    +0.220 C 
ATOM     10  N   UNL     1       0.646   4.360   0.238  0.00  0.00    -0.223 NA
ATOM     11  C   UNL     1      -0.715   3.958   0.570  0.00  0.00    +0.227 C 
ATOM     12  N   UNL     1      -1.040   2.629   0.021  0.00  0.00    -0.313 N 
ATOM     13  C   UNL     1       2.515  -1.544  -0.038  0.00  0.00    -0.036 C 
ATOM     14  H   UNL     1      -1.925   2.416  -0.314  0.00  0.00    +0.149 HD
ATOM     15  N   UNL     1       3.911  -1.244  -0.439  0.00  0.00    +0.381 N 
ATOM     16  H   UNL     1       3.922  -0.954  -1.424  0.00  0.00    -0.082 HD
ENDROOT
BRANCH  11  17
ATOM     17  C   UNL     1      -0.864   3.921   2.069  0.00  0.00    +0.040 A 
ATOM     18  C   UNL     1      -1.678   2.972   2.660  0.00  0.00    +0.011 A 
ATOM     19  C   UNL     1      -1.813   2.932   4.035  0.00  0.00    +0.004 A 
ATOM     20  C   UNL     1      -1.144   3.849   4.825  0.00  0.00    +0.049 A 
ATOM     21  C   UNL     1      -0.332   4.806   4.239  0.00  0.00    +0.162 A 
ATOM     22  C   UNL     1      -0.191   4.842   2.855  0.00  0.00    +0.165 A 
BRANCH  22  23
ATOM     23  O   UNL     1       0.605   5.780   2.276  0.00  0.00    -0.503 OA
ATOM     24  H   UNL     1       0.146   6.602   2.053  0.00  0.00    +0.292 HD
ENDBRANCH  22  23
BRANCH  21  25
ATOM     25  O   UNL     1       0.327   5.708   5.015  0.00  0.00    -0.491 OA
ATOM     26  C   UNL     1       0.135   5.610   6.428  0.00  0.00    +0.277 C 
ENDBRANCH  21  25
ENDBRANCH  11  17
BRANCH   9  27
ATOM     27  O   UNL     1       2.890   3.990  -0.193  0.00  0.00    -0.492 OA
ATOM     28  H   UNL     1       2.970   4.952  -0.160  0.00  0.00    +0.294 HD
ENDBRANCH   9  27
TORSDOF 4
