REMARK  Name = ZINC64185896
REMARK  4 active torsions:
REMARK  status: ('A' for Active; 'I' for Inactive)
REMARK    1  A    between atoms: C_7  and  C_10
REMARK    2  A    between atoms: C_10  and  C_12
REMARK    3  A    between atoms: C_10  and  C_27
REMARK    4  A    between atoms: C_12  and  N_13
REMARK                            x       y       z     vdW  Elec       q    Type
REMARK                         _______ _______ _______ _____ _____    ______ ____
ROOT
ATOM      1  C   UNL     1       0.580  -3.093   0.320  0.00  0.00    +0.048 C 
ENDROOT
BRANCH   1   8
ATOM      2  C   UNL     1      -2.523  -4.105   3.545  0.00  0.00    +0.001 A 
ATOM      3  C   UNL     1      -3.736  -3.420   3.392  0.00  0.00    +0.002 A 
ATOM      4  C   UNL     1      -3.959  -2.547   2.387  0.00  0.00    +0.026 A 
ATOM      5  C   UNL     1      -2.946  -2.285   1.424  0.00  0.00    +0.043 A 
ATOM      6  N   UNL     1      -2.919  -1.498   0.376  0.00  0.00    -0.380 N 
ATOM      7  C   UNL     1      -1.607  -1.620  -0.268  0.00  0.00    +0.145 C 
ATOM      8  C   UNL     1      -0.829  -2.617   0.561  0.00  0.00    -0.036 C 
ATOM      9  C   UNL     1      -1.655  -2.996   1.563  0.00  0.00    -0.001 A 
ATOM     10  C   UNL     1      -1.494  -3.929   2.685  0.00  0.00    +0.010 A 
ATOM     11  H   UNL     1      -3.646  -0.929   0.077  0.00  0.00    +0.160 HD
ENDBRANCH   1   8
BRANCH   1  12
ATOM     12  C   UNL     1       1.537  -1.900   0.367  0.00  0.00    +0.063 C 
ATOM     13  C   UNL     1       3.016  -2.352   0.252  0.00  0.00    +0.042 C 
ATOM     14  C   UNL     1       3.890  -1.538   1.150  0.00  0.00    -0.019 C 
ATOM     15  C   UNL     1       3.355  -0.852   2.141  0.00  0.00    +0.036 C 
ATOM     16  S   UNL     1       1.597  -1.149   2.048  0.00  0.00    -0.129 S 
ENDBRANCH   1  12
BRANCH   1  17
ATOM     17  C   UNL     1       0.664  -3.760  -1.055  0.00  0.00    +0.114 C 
BRANCH  17  18
ATOM     18  N   UNL     1      -0.223  -4.926  -1.087  0.00  0.00    -0.299 N 
ATOM     19  C   UNL     1      -0.239  -5.731  -2.168  0.00  0.00    +0.302 C 
ATOM     20  O   UNL     1       0.414  -5.441  -3.151  0.00  0.00    -0.253 OA
ATOM     21  N   UNL     1      -0.979  -6.857  -2.158  0.00  0.00    -0.283 N 
ATOM     22  C   UNL     1      -1.860  -7.164  -1.022  0.00  0.00    +0.128 C 
ATOM     23  C   UNL     1      -3.282  -7.385  -1.551  0.00  0.00    +0.126 C 
ATOM     24  N   UNL     1      -3.224  -8.328  -2.676  0.00  0.00    -0.307 N 
ATOM     25  C   UNL     1      -2.343  -8.022  -3.812  0.00  0.00    +0.126 C 
ATOM     26  C   UNL     1      -0.925  -7.798  -3.286  0.00  0.00    +0.128 C 
ATOM     27  C   UNL     1      -3.985  -9.487  -2.666  0.00  0.00    +0.161 A 
ATOM     28  N   UNL     1      -4.821  -9.908  -1.742  0.00  0.00    -0.233 NA
ATOM     29  C   UNL     1      -5.478 -11.046  -1.883  0.00  0.00    +0.120 A 
ATOM     30  C   UNL     1      -5.250 -11.751  -3.017  0.00  0.00    +0.068 A 
ATOM     31  S   UNL     1      -4.070 -10.692  -3.837  0.00  0.00    -0.061 S 
ATOM     32  H   UNL     1      -0.799  -5.118  -0.331  0.00  0.00    +0.150 HD
ENDBRANCH  17  18
ENDBRANCH   1  17
TORSDOF 4
