REMARK  Name = ZINC08007804
REMARK  6 active torsions:
REMARK  status: ('A' for Active; 'I' for Inactive)
REMARK    1  A    between atoms: C_1  and  C_2
REMARK    2  A    between atoms: C_5  and  S_8
REMARK    3  A    between atoms: S_8  and  N_11
REMARK    4  A    between atoms: C_15  and  C_17
REMARK    5  A    between atoms: C_17  and  O_19
REMARK    6  A    between atoms: O_19  and  C_20
REMARK                            x       y       z     vdW  Elec       q    Type
REMARK                         _______ _______ _______ _____ _____    ______ ____
ROOT
ATOM      1  N   UNL     1       1.325   1.904  -0.048  0.00  0.00    -0.163 NA
ATOM      2  C   UNL     1      -0.081   1.462  -0.047  0.00  0.00    +0.110 C 
ATOM      3  C   UNL     1      -0.010  -0.086  -0.032  0.00  0.00    +0.019 C 
ATOM      4  C   UNL     1       1.219  -0.349  -0.942  0.00  0.00    +0.033 C 
ATOM      5  C   UNL     1       2.158   0.828  -0.606  0.00  0.00    +0.188 C 
ENDROOT
BRANCH   1   6
ATOM      6  S   UNL     1       1.876   3.371   0.489  0.00  0.00    +0.062 S 
ATOM      7  O   UNL     1       3.109   3.610  -0.176  0.00  0.00    -0.153 OA
ATOM      8  O   UNL     1       0.780   4.271   0.407  0.00  0.00    -0.153 OA
BRANCH   6  13
ATOM      9  C   UNL     1       3.168   2.754   6.350  0.00  0.00    +0.044 C 
ATOM     10  C   UNL     1       2.845   2.909   4.886  0.00  0.00    -0.050 A 
ATOM     11  C   UNL     1       3.817   2.661   3.935  0.00  0.00    +0.005 A 
ATOM     12  C   UNL     1       3.521   2.802   2.592  0.00  0.00    +0.029 A 
ATOM     13  C   UNL     1       2.253   3.191   2.200  0.00  0.00    +0.106 A 
ATOM     14  C   UNL     1       1.283   3.444   3.152  0.00  0.00    +0.029 A 
ATOM     15  C   UNL     1       1.578   3.299   4.495  0.00  0.00    +0.005 A 
ENDBRANCH   6  13
ENDBRANCH   1   6
BRANCH   5  16
ATOM     16  C   UNL     1       2.846   1.309  -1.857  0.00  0.00    +0.331 C 
ATOM     17  O   UNL     1       2.675   2.441  -2.244  0.00  0.00    -0.249 OA
BRANCH  16  18
ATOM     18  O   UNL     1       3.648   0.479  -2.543  0.00  0.00    -0.425 OA
BRANCH  18  19
ATOM     19  C   UNL     1       4.157   0.941  -3.716  0.00  0.00    +0.135 A 
ATOM     20  C   UNL     1       5.216   1.837  -3.708  0.00  0.00    +0.050 A 
ATOM     21  C   UNL     1       5.734   2.308  -4.900  0.00  0.00    +0.053 A 
ATOM     22  C   UNL     1       5.197   1.886  -6.106  0.00  0.00    +0.166 A 
ATOM     23  C   UNL     1       4.134   0.987  -6.116  0.00  0.00    +0.170 A 
ATOM     24  C   UNL     1       3.619   0.513  -4.921  0.00  0.00    +0.096 A 
ATOM     25  O   UNL     1       3.791   0.732  -7.412  0.00  0.00    -0.452 OA
ATOM     26  C   UNL     1       4.383   1.794  -8.183  0.00  0.00    +0.466 C 
ATOM     27  O   UNL     1       5.521   2.194  -7.396  0.00  0.00    -0.453 OA
ENDBRANCH  18  19
ENDBRANCH  16  18
ENDBRANCH   5  16
TORSDOF 5
