REMARK  Name = ZINC08716174
REMARK  8 active torsions:
REMARK  status: ('A' for Active; 'I' for Inactive)
REMARK    1  A    between atoms: C_1  and  C_2
REMARK    2  A    between atoms: C_2  and  N_3
REMARK    3  A    between atoms: C_7  and  C_9
REMARK    4  A    between atoms: C_9  and  C_11
REMARK    5  A    between atoms: C_9  and  O_12
REMARK    6  A    between atoms: O_12  and  C_13
REMARK    7  A    between atoms: C_13  and  C_15
REMARK    8  A    between atoms: C_24  and  C_27
REMARK                            x       y       z     vdW  Elec       q    Type
REMARK                         _______ _______ _______ _____ _____    ______ ____
ROOT
ATOM      1  C   UNL     1      -4.153   5.583   0.994  0.00  0.00    +0.340 C 
ATOM      2  O   UNL     1      -5.012   4.813   1.376  0.00  0.00    -0.245 OA
ENDROOT
BRANCH   1   3
ATOM      3  C   UNL     1      -2.860   5.065   0.513  0.00  0.00    +0.061 A 
ATOM      4  C   UNL     1      -1.872   5.953   0.074  0.00  0.00    +0.016 A 
ATOM      5  C   UNL     1      -0.665   5.465  -0.374  0.00  0.00    +0.017 A 
ATOM      6  C   UNL     1      -0.430   4.097  -0.391  0.00  0.00    +0.030 A 
ATOM      7  C   UNL     1      -1.410   3.197   0.043  0.00  0.00    +0.048 A 
ATOM      8  C   UNL     1      -2.624   3.688   0.496  0.00  0.00    +0.039 A 
ATOM      9  N   UNL     1      -1.195   1.821   0.018  0.00  0.00    -0.284 N 
ATOM     10  C   UNL     1      -0.014   1.209   0.009  0.00  0.00    +0.230 C 
ATOM     11  O   UNL     1       0.002  -0.004   0.002  0.00  0.00    -0.274 OA
ATOM     12  C   UNL     1       1.302   1.937   0.000  0.00  0.00    +0.134 C 
ATOM     13  S   UNL     1       1.117   3.468  -0.963  0.00  0.00    -0.111 S 
ATOM     14  C   UNL     1       1.708   2.279   1.435  0.00  0.00    +0.029 C 
ATOM     15  H   UNL     1      -1.983   1.254   0.011  0.00  0.00    +0.155 HD
ENDBRANCH   1   3
BRANCH   1  16
ATOM     16  O   UNL     1      -4.383   6.911   1.011  0.00  0.00    -0.449 OA
BRANCH  16  17
ATOM     17  C   UNL     1      -5.678   7.350   1.498  0.00  0.00    +0.259 C 
ATOM     18  C   UNL     1      -5.604   7.579   3.009  0.00  0.00    +0.062 C 
BRANCH  17  23
ATOM     19  N   UNL     1      -8.749  10.981   0.794  0.00  0.00    -0.299 N 
ATOM     20  C   UNL     1      -7.578  10.384   0.498  0.00  0.00    +0.306 C 
ATOM     21  O   UNL     1      -6.832  10.883  -0.322  0.00  0.00    -0.252 OA
ATOM     22  N   UNL     1      -7.234   9.234   1.110  0.00  0.00    -0.237 N 
ATOM     23  C   UNL     1      -6.063   8.637   0.814  0.00  0.00    +0.261 C 
ATOM     24  O   UNL     1      -5.318   9.134  -0.004  0.00  0.00    -0.271 OA
ATOM     25  H   UNL     1      -9.345  10.583   1.448  0.00  0.00    +0.150 HD
ATOM     26  H   UNL     1      -7.830   8.835   1.764  0.00  0.00    +0.159 HD
BRANCH  19  28
ATOM     27  C   UNL     1     -10.488  12.694   0.642  0.00  0.00    +0.024 C 
ATOM     28  C   UNL     1      -9.123  12.232   0.129  0.00  0.00    +0.102 C 
ENDBRANCH  19  28
ENDBRANCH  17  23
ENDBRANCH  16  17
ENDBRANCH   1  16
TORSDOF 5
