REMARK  Name = ZINC02107809
REMARK  4 active torsions:
REMARK  status: ('A' for Active; 'I' for Inactive)
REMARK    1  A    between atoms: C_1  and  C_2
REMARK    2  A    between atoms: C_6  and  C_8
REMARK    3  A    between atoms: N_27  and  C_30
REMARK    4  A    between atoms: C_30  and  C_31
REMARK                            x       y       z     vdW  Elec       q    Type
REMARK                         _______ _______ _______ _____ _____    ______ ____
ROOT
ATOM      1  C   UNL     1      -4.377  -0.107   5.343  0.00  0.00    +0.154 C 
ATOM      2  C   UNL     1      -4.013   1.195   6.019  0.00  0.00    +0.046 A 
ATOM      3  C   UNL     1      -3.680   2.318   5.346  0.00  0.00    -0.015 A 
ATOM      4  C   UNL     1      -3.406   3.340   6.335  0.00  0.00    +0.003 A 
ATOM      5  C   UNL     1      -3.022   4.680   6.231  0.00  0.00    +0.010 A 
ATOM      6  C   UNL     1      -2.848   5.369   7.406  0.00  0.00    +0.001 A 
ATOM      7  C   UNL     1      -3.040   4.774   8.643  0.00  0.00    +0.002 A 
ATOM      8  C   UNL     1      -3.419   3.449   8.775  0.00  0.00    +0.026 A 
ATOM      9  C   UNL     1      -3.603   2.726   7.598  0.00  0.00    +0.047 A 
ATOM     10  N   UNL     1      -3.967   1.430   7.367  0.00  0.00    -0.356 N 
ATOM     11  H   UNL     1      -4.164   0.775   8.055  0.00  0.00    +0.166 HD
ATOM     12  C   UNL     1      -3.619   2.430   3.844  0.00  0.00    +0.069 C 
ATOM     13  C   UNL     1      -4.399   1.260   3.228  0.00  0.00    +0.167 C 
ATOM     14  N   UNL     1      -4.027   0.023   3.913  0.00  0.00    -0.276 N 
ATOM     15  C   UNL     1      -3.398  -0.986   3.306  0.00  0.00    +0.234 C 
ATOM     16  O   UNL     1      -3.073  -1.939   3.982  0.00  0.00    -0.274 OA
ATOM     17  C   UNL     1      -3.071  -1.022   1.848  0.00  0.00    +0.204 C 
ATOM     18  N   UNL     1      -3.532   0.169   1.155  0.00  0.00    -0.287 N 
ATOM     19  C   UNL     1      -4.130   1.193   1.760  0.00  0.00    +0.237 C 
ATOM     20  O   UNL     1      -4.478   2.132   1.075  0.00  0.00    -0.274 OA
ENDROOT
BRANCH   1  26
ATOM     21  C   UNL     1      -4.263  -4.657   7.423  0.00  0.00    +0.044 C 
ATOM     22  C   UNL     1      -3.545  -3.417   6.956  0.00  0.00    -0.050 A 
ATOM     23  C   UNL     1      -2.172  -3.321   7.092  0.00  0.00    +0.003 A 
ATOM     24  C   UNL     1      -1.514  -2.184   6.663  0.00  0.00    +0.001 A 
ATOM     25  C   UNL     1      -2.227  -1.143   6.097  0.00  0.00    +0.006 A 
ATOM     26  C   UNL     1      -3.599  -1.241   5.960  0.00  0.00    -0.021 A 
ATOM     27  C   UNL     1      -4.259  -2.376   6.394  0.00  0.00    +0.009 A 
ENDBRANCH   1  26
BRANCH  18  28
ATOM     28  C   UNL     1      -3.332   0.244  -0.295  0.00  0.00    +0.143 C 
BRANCH  28  29
ATOM     29  C   UNL     1      -2.000   0.886  -0.586  0.00  0.00    -0.026 A 
ATOM     30  C   UNL     1      -1.912   2.259  -0.728  0.00  0.00    +0.009 A 
ATOM     31  C   UNL     1      -0.694   2.852  -1.002  0.00  0.00    +0.050 A 
ATOM     32  C   UNL     1       0.444   2.071  -1.127  0.00  0.00    +0.166 A 
ATOM     33  C   UNL     1       0.357   0.690  -0.976  0.00  0.00    +0.167 A 
ATOM     34  C   UNL     1      -0.868   0.102  -0.703  0.00  0.00    +0.054 A 
ATOM     35  O   UNL     1       1.601   0.153  -1.144  0.00  0.00    -0.453 OA
ATOM     36  C   UNL     1       2.375   1.174  -1.801  0.00  0.00    +0.466 C 
ATOM     37  O   UNL     1       1.743   2.401  -1.389  0.00  0.00    -0.453 OA
ENDBRANCH  28  29
ENDBRANCH  18  28
TORSDOF 3
