REMARK  Name = ZINC34923383
REMARK  14 active torsions:
REMARK  status: ('A' for Active; 'I' for Inactive)
REMARK    1  A    between atoms: C_1  and  C_2
REMARK    2  A    between atoms: C_5  and  C_8
REMARK    3  A    between atoms: C_10  and  C_32
REMARK    4  A    between atoms: C_11  and  C_31
REMARK    5  A    between atoms: C_15  and  C_18
REMARK    6  A    between atoms: C_19  and  N_21
REMARK    7  A    between atoms: N_21  and  C_22
REMARK    8  A    between atoms: C_22  and  C_23
REMARK    9  A    between atoms: C_23  and  C_24
REMARK   10  A    between atoms: N_29  and  C_30
REMARK   11  A    between atoms: C_32  and  O_34
REMARK   12  A    between atoms: O_34  and  C_35
REMARK   13  A    between atoms: C_35  and  C_36
REMARK   14  A    between atoms: C_35  and  C_37
REMARK                            x       y       z     vdW  Elec       q    Type
REMARK                         _______ _______ _______ _____ _____    ______ ____
ROOT
ATOM      1  C   UNL     1       0.227  -4.028   0.229  0.00  0.00    +0.150 C 
ATOM      2  C   UNL     1       1.584  -4.673   0.059  0.00  0.00    +0.082 C 
ATOM      3  C   UNL     1       1.861  -5.800   0.809  0.00  0.00    +0.053 C 
ATOM      4  N   UNL     1       0.958  -6.287   1.644  0.00  0.00    -0.230 NA
ATOM      5  C   UNL     1      -0.240  -5.775   1.839  0.00  0.00    +0.166 C 
ATOM      6  N   UNL     1      -0.707  -4.663   1.196  0.00  0.00    -0.267 N 
ATOM      7  C   UNL     1      -1.986  -4.250   1.510  0.00  0.00    +0.048 C 
ATOM      8  C   UNL     1      -2.673  -4.973   2.422  0.00  0.00    +0.072 C 
ATOM      9  S   UNL     1      -1.502  -6.247   2.841  0.00  0.00    -0.060 S 
ATOM     10  C   UNL     1       3.200  -6.478   0.675  0.00  0.00    +0.066 C 
ENDROOT
BRANCH   1  15
ATOM     11  C   UNL     1       1.049   1.447   1.884  0.00  0.00    +0.044 C 
ATOM     12  C   UNL     1       0.835   0.019   1.452  0.00  0.00    -0.050 A 
ATOM     13  C   UNL     1       0.492  -0.263   0.143  0.00  0.00    +0.004 A 
ATOM     14  C   UNL     1       0.296  -1.573  -0.253  0.00  0.00    +0.006 A 
ATOM     15  C   UNL     1       0.442  -2.601   0.660  0.00  0.00    -0.022 A 
ATOM     16  C   UNL     1       0.785  -2.318   1.969  0.00  0.00    +0.006 A 
ATOM     17  C   UNL     1       0.986  -1.009   2.364  0.00  0.00    +0.004 A 
ENDBRANCH   1  15
BRANCH   7  18
ATOM     18  C   UNL     1      -2.581  -3.066   0.874  0.00  0.00    +0.091 C 
ATOM     19  C   UNL     1      -3.876  -2.764   1.089  0.00  0.00    +0.239 C 
ATOM     20  O   UNL     1      -4.599  -3.483   1.983  0.00  0.00    -0.271 OA
BRANCH  19  21
ATOM     21  N   UNL     1      -4.468  -1.721   0.399  0.00  0.00    -0.312 N 
ATOM     22  H   UNL     1      -3.974  -1.255  -0.293  0.00  0.00    +0.149 HD
BRANCH  21  23
ATOM     23  C   UNL     1      -5.842  -1.320   0.713  0.00  0.00    +0.103 C 
BRANCH  23  24
ATOM     24  C   UNL     1      -6.295  -0.237  -0.268  0.00  0.00    +0.003 C 
BRANCH  24  25
ATOM     25  C   UNL     1      -7.729   0.181   0.060  0.00  0.00    -0.068 C 
ATOM     26  C   UNL     1      -8.224   1.214  -0.974  0.00  0.00    -0.017 C 
ATOM     27  C   UNL     1      -9.056   2.200  -0.111  0.00  0.00    -0.020 C 
ATOM     28  C   UNL     1      -8.246   2.221   1.209  0.00  0.00    -0.079 C 
ATOM     29  N   UNL     1      -7.773   0.828   1.385  0.00  0.00    +0.380 N 
ATOM     30  C   UNL     1      -8.695   0.095   2.262  0.00  0.00    -0.096 C 
ATOM     31  H   UNL     1      -6.849   0.831   1.791  0.00  0.00    -0.082 HD
ENDBRANCH  24  25
ENDBRANCH  23  24
ENDBRANCH  21  23
ENDBRANCH  19  21
ENDBRANCH   7  18
BRANCH   2  32
ATOM     32  C   UNL     1       2.530  -4.146  -0.830  0.00  0.00    +0.339 C 
ATOM     33  O   UNL     1       3.656  -4.609  -0.866  0.00  0.00    -0.245 OA
BRANCH  32  34
ATOM     34  O   UNL     1       2.192  -3.124  -1.647  0.00  0.00    -0.459 OA
BRANCH  34  35
ATOM     35  C   UNL     1       3.206  -2.636  -2.528  0.00  0.00    +0.171 C 
ATOM     36  C   UNL     1       3.148  -3.406  -3.849  0.00  0.00    +0.052 C 
ATOM     37  C   UNL     1       2.977  -1.147  -2.794  0.00  0.00    +0.052 C 
ENDBRANCH  34  35
ENDBRANCH  32  34
ENDBRANCH   2  32
TORSDOF 9
