REMARK  Name = ZINC08236342
REMARK  4 active torsions:
REMARK  status: ('A' for Active; 'I' for Inactive)
REMARK    1  A    between atoms: C_1  and  C_2
REMARK    2  A    between atoms: C_2  and  C_30
REMARK    3  A    between atoms: C_6  and  C_18
REMARK    4  A    between atoms: C_21  and  N_24
REMARK                            x       y       z     vdW  Elec       q    Type
REMARK                         _______ _______ _______ _____ _____    ______ ____
ROOT
ATOM      1  C   UNL     1       2.676   3.041   2.329  0.00  0.00    +0.011 C 
ATOM      2  C   UNL     1       2.435   3.913   1.095  0.00  0.00    -0.023 C 
ATOM      3  C   UNL     1       1.104   3.531   0.446  0.00  0.00    +0.058 C 
ATOM      4  C   UNL     1       1.151   2.089   0.002  0.00  0.00    +0.017 C 
ATOM      5  C   UNL     1       2.310   1.523  -0.395  0.00  0.00    +0.024 C 
ATOM      6  C   UNL     1       2.365   0.090  -0.861  0.00  0.00    +0.090 C 
ATOM      7  C   UNL     1       1.155  -0.675  -0.414  0.00  0.00    +0.042 A 
ATOM      8  C   UNL     1       1.162  -2.055  -0.408  0.00  0.00    +0.126 A 
ATOM      9  N   UNL     1       0.037  -2.718   0.003  0.00  0.00    -0.208 NA
ATOM     10  H   UNL     1      -1.964  -0.155   0.711  0.00  0.00    +0.169 HD
ATOM     11  C   UNL     1      -1.051  -2.027   0.391  0.00  0.00    +0.180 A 
ATOM     12  S   UNL     1      -2.448  -2.878   0.896  0.00  0.00    -0.011 S 
ATOM     13  N   UNL     1      -1.063  -0.698   0.389  0.00  0.00    -0.322 N 
ATOM     14  C   UNL     1       0.002  -0.004   0.002  0.00  0.00    +0.110 A 
ATOM     15  N   UNL     1      -0.017   1.375   0.009  0.00  0.00    -0.304 N 
ATOM     16  N   UNL     1       2.277  -2.751  -0.806  0.00  0.00    -0.343 N 
ATOM     17  C   UNL     1       3.512   2.254  -0.386  0.00  0.00    +0.162 C 
ATOM     18  O   UNL     1       4.537   1.718  -0.757  0.00  0.00    -0.292 OA
ATOM     19  C   UNL     1       3.554   3.685   0.074  0.00  0.00    +0.086 C 
ATOM     20  C   UNL     1       2.405   5.387   1.505  0.00  0.00    +0.011 C 
ATOM     21  H   UNL     1      -0.983   1.902   0.021  0.00  0.00    +0.153 HD
ATOM     22  H   UNL     1       3.175  -2.208  -1.134  0.00  0.00    +0.144 HD
ATOM     23  H   UNL     1       2.271  -3.851  -0.796  0.00  0.00    +0.144 HD
ENDROOT
BRANCH   6  24
ATOM     24  C   UNL     1       2.438   0.063  -2.366  0.00  0.00    -0.035 A 
ATOM     25  C   UNL     1       1.403   0.587  -3.118  0.00  0.00    +0.007 A 
ATOM     26  C   UNL     1       1.472   0.567  -4.498  0.00  0.00    +0.033 A 
ATOM     27  C   UNL     1       2.572   0.013  -5.127  0.00  0.00    +0.126 A 
ATOM     28  C   UNL     1       3.604  -0.516  -4.375  0.00  0.00    +0.033 A 
ATOM     29  C   UNL     1       3.537  -0.491  -2.995  0.00  0.00    +0.007 A 
BRANCH  27  30
ATOM     30  N   UNL     1       2.644  -0.013  -6.605  0.00  0.00    +0.056 N 
ATOM     31  O   UNL     1       3.612  -0.501  -7.159  0.00  0.00    -0.126 OA
ATOM     32  O   UNL     1       1.734   0.453  -7.268  0.00  0.00    -0.126 OA
ENDBRANCH  27  30
ENDBRANCH   6  24
TORSDOF 2
