REMARK  Name = ZINC57308105
REMARK  6 active torsions:
REMARK  status: ('A' for Active; 'I' for Inactive)
REMARK    1  A    between atoms: C_1  and  C_2
REMARK    2  A    between atoms: C_4  and  C_26
REMARK    3  A    between atoms: C_6  and  C_19
REMARK    4  A    between atoms: N_9  and  C_11
REMARK    5  A    between atoms: N_28  and  C_29
REMARK    6  A    between atoms: C_35  and  C_37
REMARK                            x       y       z     vdW  Elec       q    Type
REMARK                         _______ _______ _______ _____ _____    ______ ____
ROOT
ATOM      1  C   UNL     1      -0.198   1.498   0.022  0.00  0.00    +0.068 C 
ATOM      2  C   UNL     1      -0.147  -0.008   0.012  0.00  0.00    +0.070 A 
ATOM      3  C   UNL     1      -0.162  -0.824  -1.139  0.00  0.00    +0.054 A 
ATOM      4  C   UNL     1      -0.224  -0.557  -2.526  0.00  0.00    +0.051 A 
ATOM      5  C   UNL     1      -0.219  -1.639  -3.399  0.00  0.00    +0.042 A 
ATOM      6  C   UNL     1      -0.155  -2.936  -2.879  0.00  0.00    +0.077 A 
ATOM      7  N   UNL     1      -0.098  -3.155  -1.576  0.00  0.00    -0.227 NA
ATOM      8  C   UNL     1      -0.099  -2.162  -0.699  0.00  0.00    +0.160 A 
ATOM      9  N   UNL     1      -0.049  -2.116   0.670  0.00  0.00    -0.241 N 
ATOM     10  N   UNL     1      -0.076  -0.773   1.063  0.00  0.00    -0.174 NA
ENDROOT
BRANCH   9  11
ATOM     11  C   UNL     1       0.024  -3.273   1.567  0.00  0.00    +0.132 C 
ATOM     12  C   UNL     1       1.304  -3.182   2.413  0.00  0.00    +0.051 C 
ATOM     13  C   UNL     1       1.204  -4.231   3.557  0.00  0.00    +0.168 C 
ATOM     14  S   UNL     1      -0.566  -4.041   4.034  0.00  0.00    -0.029 S 
ATOM     15  O   UNL     1      -1.141  -5.330   4.199  0.00  0.00    -0.174 OA
ATOM     16  O   UNL     1      -0.661  -3.093   5.088  0.00  0.00    -0.174 OA
ATOM     17  C   UNL     1      -1.218  -3.287   2.490  0.00  0.00    +0.192 C 
ENDBRANCH   9  11
BRANCH   6  18
ATOM     18  C   UNL     1      -0.150  -4.091  -3.809  0.00  0.00    +0.036 A 
ATOM     19  C   UNL     1      -0.204  -3.880  -5.186  0.00  0.00    +0.013 A 
ATOM     20  C   UNL     1      -0.199  -4.958  -6.047  0.00  0.00    +0.001 A 
ATOM     21  C   UNL     1      -0.142  -6.248  -5.547  0.00  0.00    +0.003 A 
ATOM     22  C   UNL     1      -0.088  -6.465  -4.183  0.00  0.00    +0.039 A 
ATOM     23  C   UNL     1      -0.086  -5.393  -3.310  0.00  0.00    +0.133 A 
ATOM     24  F   UNL     1      -0.028  -5.605  -1.977  0.00  0.00    -0.205 F 
ENDBRANCH   6  18
BRANCH   4  25
ATOM     25  C   UNL     1      -0.291   0.830  -3.033  0.00  0.00    +0.245 C 
ATOM     26  O   UNL     1       0.353   1.708  -2.491  0.00  0.00    -0.270 OA
ATOM     27  N   UNL     1      -1.066   1.122  -4.096  0.00  0.00    -0.308 N 
ATOM     28  H   UNL     1      -1.580   0.422  -4.529  0.00  0.00    +0.149 HD
BRANCH  27  29
ATOM     29  C   UNL     1      -1.133   2.497  -4.599  0.00  0.00    +0.076 C 
ATOM     30  C   UNL     1      -2.181   3.280  -3.805  0.00  0.00    +0.022 C 
ATOM     31  C   UNL     1      -3.548   2.611  -3.966  0.00  0.00    +0.002 C 
ATOM     32  C   UNL     1      -3.936   2.594  -5.446  0.00  0.00    +0.000 C 
ATOM     33  C   UNL     1      -2.888   1.812  -6.240  0.00  0.00    +0.005 C 
ATOM     34  C   UNL     1      -1.522   2.481  -6.079  0.00  0.00    +0.006 C 
ATOM     35  C   UNL     1      -0.474   1.698  -6.872  0.00  0.00    +0.009 C 
ENDBRANCH  27  29
ENDBRANCH   4  25
TORSDOF 4
