REMARK  Name = ZINC12845036
REMARK  8 active torsions:
REMARK  status: ('A' for Active; 'I' for Inactive)
REMARK    1  A    between atoms: C_1  and  C_2
REMARK    2  A    between atoms: C_5  and  C_8
REMARK    3  A    between atoms: C_11  and  C_38
REMARK    4  A    between atoms: C_16  and  C_19
REMARK    5  A    between atoms: N_21  and  C_22
REMARK    6  A    between atoms: C_27  and  C_28
REMARK    7  A    between atoms: C_28  and  C_30
REMARK    8  A    between atoms: C_28  and  O_36
REMARK                            x       y       z     vdW  Elec       q    Type
REMARK                         _______ _______ _______ _____ _____    ______ ____
ROOT
ATOM      1  C   UNL     1       0.079  -4.383  -0.152  0.00  0.00    +0.113 C 
ATOM      2  C   UNL     1      -1.304  -5.015   0.017  0.00  0.00    +0.059 C 
ATOM      3  C   UNL     1      -1.186  -6.546  -0.054  0.00  0.00    +0.164 C 
ATOM      4  N   UNL     1      -0.157  -6.947   0.913  0.00  0.00    -0.229 N 
ATOM      5  C   UNL     1       0.852  -6.090   1.328  0.00  0.00    +0.126 C 
ATOM      6  N   UNL     1       1.000  -4.878   0.878  0.00  0.00    -0.364 N 
ATOM      7  C   UNL     1       1.644  -6.836   2.314  0.00  0.00    +0.091 C 
ATOM      8  C   UNL     1       1.075  -8.089   2.408  0.00  0.00    +0.104 C 
ATOM      9  N   UNL     1       0.011  -8.161   1.567  0.00  0.00    -0.269 N 
ATOM     10  H   UNL     1      -0.548  -8.944   1.442  0.00  0.00    +0.170 HD
ATOM     11  H   UNL     1       1.709  -4.310   1.218  0.00  0.00    +0.161 HD
ENDROOT
BRANCH   1  16
ATOM     12  C   UNL     1      -0.386   1.359   0.302  0.00  0.00    +0.044 C 
ATOM     13  C   UNL     1      -0.265  -0.138   0.184  0.00  0.00    -0.050 A 
ATOM     14  C   UNL     1      -0.192  -0.729  -1.064  0.00  0.00    +0.004 A 
ATOM     15  C   UNL     1      -0.081  -2.103  -1.173  0.00  0.00    +0.006 A 
ATOM     16  C   UNL     1      -0.042  -2.885  -0.034  0.00  0.00    -0.025 A 
ATOM     17  C   UNL     1      -0.114  -2.294   1.214  0.00  0.00    +0.006 A 
ATOM     18  C   UNL     1      -0.221  -0.920   1.323  0.00  0.00    +0.004 A 
ENDBRANCH   1  16
BRANCH   7  19
ATOM     19  C   UNL     1       2.812  -6.345   3.053  0.00  0.00    +0.253 C 
ATOM     20  O   UNL     1       3.311  -7.030   3.927  0.00  0.00    -0.270 OA
ATOM     21  N   UNL     1       3.332  -5.136   2.765  0.00  0.00    -0.281 N 
ATOM     22  H   UNL     1       2.898  -4.563   2.113  0.00  0.00    +0.155 HD
BRANCH  21  23
ATOM     23  C   UNL     1       4.500  -4.706   3.405  0.00  0.00    +0.040 A 
ATOM     24  C   UNL     1       4.823  -5.195   4.664  0.00  0.00    +0.025 A 
ATOM     25  C   UNL     1       5.976  -4.769   5.294  0.00  0.00    +0.022 A 
ATOM     26  C   UNL     1       6.809  -3.856   4.672  0.00  0.00    +0.041 A 
ATOM     27  C   UNL     1       6.489  -3.367   3.417  0.00  0.00    +0.028 A 
ATOM     28  C   UNL     1       5.340  -3.794   2.780  0.00  0.00    +0.008 A 
ATOM     29 CL   UNL     1       8.257  -3.322   5.466  0.00  0.00    -0.084 Cl
BRANCH  28  30
ATOM     30  C   UNL     1       4.996  -3.266   1.411  0.00  0.00    +0.176 C 
BRANCH  30  31
ATOM     31  C   UNL     1       5.509  -4.218   0.362  0.00  0.00    -0.015 A 
ATOM     32  C   UNL     1       6.856  -4.242   0.049  0.00  0.00    +0.006 A 
ATOM     33  C   UNL     1       7.326  -5.115  -0.913  0.00  0.00    +0.000 A 
ATOM     34  C   UNL     1       6.451  -5.965  -1.563  0.00  0.00    +0.000 A 
ATOM     35  C   UNL     1       5.105  -5.942  -1.249  0.00  0.00    +0.000 A 
ATOM     36  C   UNL     1       4.635  -5.072  -0.283  0.00  0.00    +0.006 A 
ENDBRANCH  30  31
BRANCH  30  37
ATOM     37  O   UNL     1       5.602  -1.985   1.229  0.00  0.00    -0.382 OA
ATOM     38  H   UNL     1       6.566  -1.992   1.298  0.00  0.00    +0.211 HD
ENDBRANCH  30  37
ENDBRANCH  28  30
ENDBRANCH  21  23
ENDBRANCH   7  19
BRANCH   3  39
ATOM     39  C   UNL     1      -0.773  -6.971  -1.464  0.00  0.00    +0.363 C 
ATOM     40  F   UNL     1      -0.779  -8.368  -1.550  0.00  0.00    -0.207 F 
ATOM     41  F   UNL     1      -1.675  -6.443  -2.394  0.00  0.00    -0.207 F 
ENDBRANCH   3  39
TORSDOF 7
