REMARK  Name = ZINC28624527
REMARK  6 active torsions:
REMARK  status: ('A' for Active; 'I' for Inactive)
REMARK    1  A    between atoms: C_1  and  C_2
REMARK    2  A    between atoms: C_4  and  C_25
REMARK    3  A    between atoms: C_7  and  C_12
REMARK    4  A    between atoms: N_14  and  N_15
REMARK    5  A    between atoms: C_16  and  C_18
REMARK    6  A    between atoms: C_23  and  O_24
REMARK                            x       y       z     vdW  Elec       q    Type
REMARK                         _______ _______ _______ _____ _____    ______ ____
ROOT
ATOM      1  C   UNL     1      -0.018   1.466   0.010  0.00  0.00    +0.276 C 
ATOM      2  O   UNL     1      -1.079   2.060   0.018  0.00  0.00    -0.267 OA
ATOM      3  N   UNL     1       1.140   2.156   0.003  0.00  0.00    -0.229 N 
ATOM      4  H   UNL     1       2.100   1.619  -0.009  0.00  0.00    +0.173 HD
ENDROOT
BRANCH   1  11
ATOM      5  C   UNL     1       1.585  -5.798  -0.049  0.00  0.00    +0.044 C 
ATOM      6  C   UNL     1       0.806  -4.507  -0.033  0.00  0.00    -0.048 A 
ATOM      7  C   UNL     1      -0.583  -4.542  -0.019  0.00  0.00    +0.007 A 
ATOM      8  C   UNL     1      -1.306  -3.385  -0.005  0.00  0.00    -0.041 A 
ATOM      9  C   UNL     1      -0.645  -2.150  -0.004  0.00  0.00    +0.003 A 
ATOM     10  C   UNL     1      -1.094  -0.807   0.008  0.00  0.00    +0.041 A 
ATOM     11  C   UNL     1       0.002  -0.004   0.002  0.00  0.00    +0.104 A 
ATOM     12  N   UNL     1       1.138  -0.789  -0.019  0.00  0.00    -0.351 N 
ATOM     13  H   UNL     1       2.132  -0.319  -0.034  0.00  0.00    +0.166 HD
ATOM     14  C   UNL     1       0.763  -2.112  -0.017  0.00  0.00    +0.048 A 
ATOM     15  C   UNL     1       1.479  -3.306  -0.032  0.00  0.00    +0.029 A 
ATOM     16  C   UNL     1      -2.812  -3.436   0.009  0.00  0.00    +0.044 C 
ENDBRANCH   1  11
BRANCH   3  17
ATOM     17  N   UNL     1       1.121   3.557   0.011  0.00  0.00    -0.230 N 
ATOM     18  C   UNL     1       2.279   4.247   0.003  0.00  0.00    +0.264 C 
ATOM     19  O   UNL     1       3.340   3.653  -0.010  0.00  0.00    -0.269 OA
ATOM     20  H   UNL     1       0.161   4.094   0.023  0.00  0.00    +0.173 HD
BRANCH  18  21
ATOM     21  C   UNL     1       2.259   5.722   0.011  0.00  0.00    +0.079 A 
ATOM     22  C   UNL     1       1.042   6.408   0.021  0.00  0.00    +0.017 A 
ATOM     23  C   UNL     1       1.030   7.786   0.032  0.00  0.00    +0.001 A 
ATOM     24  C   UNL     1       2.220   8.495   0.025  0.00  0.00    +0.004 A 
ATOM     25  C   UNL     1       3.430   7.830   0.011  0.00  0.00    +0.046 A 
ATOM     26  C   UNL     1       3.461   6.443   0.004  0.00  0.00    +0.129 A 
BRANCH  26  27
ATOM     27  O   UNL     1       4.648   5.788  -0.011  0.00  0.00    -0.506 OA
ATOM     28  H   UNL     1       5.590   6.356  -0.017  0.00  0.00    +0.292 HD
ENDBRANCH  26  27
ENDBRANCH  18  21
ENDBRANCH   3  17
TORSDOF 4
