REMARK  Name = ZINC08740262
REMARK  11 active torsions:
REMARK  status: ('A' for Active; 'I' for Inactive)
REMARK    1  A    between atoms: C_1  and  C_2
REMARK    2  A    between atoms: N_6  and  O_7
REMARK    3  A    between atoms: O_7  and  C_8
REMARK    4  A    between atoms: C_8  and  C_9
REMARK    5  A    between atoms: N_11  and  CA_12
REMARK    6  A    between atoms: CA_12  and  CB_14
REMARK    7  A    between atoms: CA_12  and  C_21
REMARK    8  A    between atoms: CB_14  and  CG_15
REMARK    9  A    between atoms: C_33  and  C_42
REMARK   10  A    between atoms: C_38  and  C_39
REMARK   11  A    between atoms: C_38  and  O_41
REMARK                            x       y       z     vdW  Elec       q    Type
REMARK                         _______ _______ _______ _____ _____    ______ ____
ROOT
ATOM      1  C   UNK A   0       6.572  -3.551   2.119  0.00  0.00    +0.016 C 
ATOM      2  C   UNK A   0       5.874  -3.662   0.762  0.00  0.00    -0.007 C 
ATOM      3  C   UNK A   0       5.603  -2.260   0.213  0.00  0.00    +0.017 C 
ATOM      4  C   UNK A   0       4.687  -1.511   1.187  0.00  0.00    +0.059 C 
ATOM      5  C   UNK A   0       3.420  -2.309   1.375  0.00  0.00    +0.080 C 
ATOM      6  N   UNK A   0       2.313  -1.708   1.678  0.00  0.00    -0.089 NA
ATOM      7  C   UNK A   0       3.448  -3.768   1.220  0.00  0.00    +0.026 C 
ATOM      8  C   UNK A   0       4.571  -4.404   0.927  0.00  0.00    -0.062 C 
ATOM      9  C   UNK A   0       4.606  -5.915   0.787  0.00  0.00    +0.031 C 
ATOM     10  C   UNK A   0       5.071  -6.275  -0.617  0.00  0.00    +0.008 C 
ATOM     11  C   UNK A   0       5.943  -5.192  -1.241  0.00  0.00    -0.003 C 
ATOM     12  C   UNK A   0       6.760  -4.437  -0.202  0.00  0.00    +0.002 C 
ATOM     13  C   UNK A   0       7.625  -5.459   0.537  0.00  0.00    +0.005 C 
ATOM     14  C   UNK A   0       8.631  -6.033  -0.459  0.00  0.00    +0.011 C 
ATOM     15  C   UNK A   0       7.928  -6.725  -1.628  0.00  0.00    +0.011 C 
ATOM     16  C   UNK A   0       6.873  -5.809  -2.275  0.00  0.00    +0.002 C 
ATOM     17  C   UNK A   0       7.720  -4.766  -3.027  0.00  0.00    +0.008 C 
ATOM     18  C   UNK A   0       8.875  -5.606  -3.621  0.00  0.00    +0.049 C 
ATOM     19  C   UNK A   0       8.989  -6.872  -2.753  0.00  0.00    +0.132 C 
ATOM     20  C   UNK A   0       7.326  -8.067  -1.206  0.00  0.00    +0.015 C 
ENDROOT
BRANCH  19  21
ATOM     21  C   UNK A   0       8.705  -8.069  -3.562  0.00  0.00    -0.070 C 
ATOM     22  C   UNK A   0       8.479  -9.022  -4.208  0.00  0.00    +0.007 C 
ENDBRANCH  19  21
BRANCH  19  23
ATOM     23  O   UNK A   0      10.297  -6.962  -2.185  0.00  0.00    -0.376 OA
ATOM     24  H   UNK A   0      11.004  -7.056  -2.838  0.00  0.00    +0.211 HD
ENDBRANCH  19  23
BRANCH   6  25
ATOM     25  O   UNK A   0       2.290  -0.301   1.833  0.00  0.00    -0.384 OA
BRANCH  25  26
ATOM     26  C   UNK A   0       1.004   0.226   2.166  0.00  0.00    +0.358 C 
BRANCH  26  27
ATOM     27  C   UNK A   0       1.097   1.724   2.305  0.00  0.00    +0.254 C 
ATOM     28  O   UNK A   0       2.159   2.285   2.136  0.00  0.00    -0.272 OA
ATOM     29  N   HIS A   1      -0.002   2.441   2.613  0.00  0.00    -0.299 N 
ATOM     30  H   HIS A   1      -0.853   1.993   2.744  0.00  0.00    +0.150 HD
BRANCH  29  31
ATOM     31  CA  HIS A   1       0.087   3.897   2.749  0.00  0.00    +0.192 C 
BRANCH  31  32
ATOM     32  C   HIS A   1       0.529   4.245   4.147  0.00  0.00    +0.376 C 
ATOM     33  O   HIS A   1       0.746   3.367   4.948  0.00  0.00    -0.244 OA
ATOM     34  OXT HIS A   1       0.680   5.530   4.503  0.00  0.00    -0.244 OA
ENDBRANCH  31  32
BRANCH  31  35
ATOM     35  CB  HIS A   1      -1.284   4.520   2.477  0.00  0.00    +0.090 C 
BRANCH  35  36
ATOM     36  CG  HIS A   1      -1.670   4.277   1.041  0.00  0.00    +0.061 A 
ATOM     37  CD2 HIS A   1      -2.805   3.689   0.615  0.00  0.00    +0.107 A 
ATOM     38  NE2 HIS A   1      -2.752   3.671  -0.752  0.00  0.00    -0.351 N 
ATOM     39  HE2 HIS A   1      -3.447   3.299  -1.368  0.00  0.00    +0.166 HD
ATOM     40  CE1 HIS A   1      -1.587   4.248  -1.115  0.00  0.00    +0.196 A 
ATOM     41  ND1 HIS A   1      -0.947   4.612  -0.038  0.00  0.00    -0.241 NA
ENDBRANCH  35  36
ENDBRANCH  31  35
ENDBRANCH  29  31
ENDBRANCH  26  27
ENDBRANCH  25  26
ENDBRANCH   6  25
TORSDOF 9
