REMARK  Name = ZINC63933678
REMARK  6 active torsions:
REMARK  status: ('A' for Active; 'I' for Inactive)
REMARK    1  A    between atoms: C_1  and  C_2
REMARK    2  A    between atoms: C_4  and  C_34
REMARK    3  A    between atoms: C_6  and  N_8
REMARK    4  A    between atoms: C_9  and  O_33
REMARK    5  A    between atoms: C_12  and  O_32
REMARK    6  A    between atoms: C_13  and  C_17
REMARK                            x       y       z     vdW  Elec       q    Type
REMARK                         _______ _______ _______ _____ _____    ______ ____
ROOT
ATOM      1  N   UNL     1       0.059  -2.621   2.400  0.00  0.00    -0.225 N 
ATOM      2  C   UNL     1       0.011  -4.069   2.253  0.00  0.00    +0.338 C 
ATOM      3  N   UNL     1      -0.419  -4.729   3.475  0.00  0.00    -0.204 NA
ATOM      4  C   UNL     1      -0.367  -4.197   4.634  0.00  0.00    +0.200 C 
ATOM      5  C   UNL     1       0.147  -2.807   4.871  0.00  0.00    +0.179 C 
ATOM      6  C   UNL     1       0.136  -2.018   3.593  0.00  0.00    +0.237 C 
ATOM      7  O   UNL     1       0.193  -0.807   3.643  0.00  0.00    -0.274 OA
ENDROOT
BRANCH   5   8
ATOM      8  C   UNL     1       1.582  -2.882   5.397  0.00  0.00    +0.101 C 
ATOM      9  C   UNL     1       2.077  -1.477   5.748  0.00  0.00    +0.124 C 
ATOM     10  C   UNL     1       3.554  -1.619   6.096  0.00  0.00    -0.036 C 
ATOM     11  C   UNL     1       3.711  -1.079   7.296  0.00  0.00    -0.001 A 
ATOM     12  C   UNL     1       4.909  -0.842   8.118  0.00  0.00    +0.010 A 
ATOM     13  C   UNL     1       4.700  -0.267   9.332  0.00  0.00    +0.001 A 
ATOM     14  C   UNL     1       3.434   0.092   9.805  0.00  0.00    +0.002 A 
ATOM     15  C   UNL     1       2.279  -0.084   9.115  0.00  0.00    +0.026 A 
ATOM     16  C   UNL     1       2.370  -0.674   7.822  0.00  0.00    +0.043 A 
ATOM     17  N   UNL     1       1.425  -0.932   6.938  0.00  0.00    -0.376 N 
ATOM     18  C   UNL     1       4.514  -2.352   5.191  0.00  0.00    +0.048 C 
ATOM     19  C   UNL     1       3.830  -3.683   4.827  0.00  0.00    +0.085 C 
ATOM     20  N   UNL     1       2.463  -3.437   4.357  0.00  0.00    -0.310 NA
ATOM     21  H   UNL     1       2.064  -4.270   3.952  0.00  0.00    +0.122 HD
ATOM     22  H   UNL     1       0.471  -0.793   7.050  0.00  0.00    +0.160 HD
ENDBRANCH   5   8
BRANCH   1  28
ATOM     23  C   UNL     1       2.467  -0.240  -1.164  0.00  0.00    +0.044 C 
ATOM     24  C   UNL     1       1.181  -0.659  -0.501  0.00  0.00    -0.048 A 
ATOM     25  C   UNL     1      -0.032  -0.259  -1.031  0.00  0.00    +0.006 A 
ATOM     26  C   UNL     1      -1.215  -0.642  -0.425  0.00  0.00    -0.048 A 
ATOM     27  C   UNL     1      -1.188  -1.425   0.712  0.00  0.00    +0.027 A 
ATOM     28  C   UNL     1       0.028  -1.828   1.247  0.00  0.00    +0.041 A 
ATOM     29  C   UNL     1       1.214  -1.446   0.633  0.00  0.00    +0.027 A 
ATOM     30  C   UNL     1      -2.535  -0.203  -1.007  0.00  0.00    +0.044 C 
ENDBRANCH   1  28
BRANCH   4  31
ATOM     31  O   UNL     1      -0.795  -4.916   5.693  0.00  0.00    -0.495 OA
ATOM     32  H   UNL     1      -1.112  -5.800   5.465  0.00  0.00    +0.293 HD
ENDBRANCH   4  31
BRANCH   2  33
ATOM     33  O   UNL     1       1.314  -4.542   1.906  0.00  0.00    -0.356 OA
ATOM     34  H   UNL     1       1.366  -5.501   1.790  0.00  0.00    +0.214 HD
ENDBRANCH   2  33
TORSDOF 4
