REMARK  Name = ZINC13499042
REMARK  11 active torsions:
REMARK  status: ('A' for Active; 'I' for Inactive)
REMARK    1  A    between atoms: C_1  and  C_2
REMARK    2  A    between atoms: C_4  and  C_37
REMARK    3  A    between atoms: C_7  and  C_14
REMARK    4  A    between atoms: C_14  and  N_78
REMARK    5  A    between atoms: C_15  and  N_78
REMARK    6  A    between atoms: C_21  and  C_23
REMARK    7  A    between atoms: C_21  and  C_34
REMARK    8  A    between atoms: C_21  and  N_78
REMARK    9  A    between atoms: N_27  and  C_28
REMARK   10  A    between atoms: C_34  and  C_35
REMARK   11  A    between atoms: C_34  and  C_36
REMARK                            x       y       z     vdW  Elec       q    Type
REMARK                         _______ _______ _______ _____ _____    ______ ____
ROOT
ATOM      1  N   UNL     1       0.972  -1.915  -1.318  0.00  0.00    +0.391 N 
ATOM      2  H   UNL     1       0.194  -2.368  -0.823  0.00  0.00    -0.080 HD
ENDROOT
BRANCH   1   3
ATOM      3  C   UNL     1       0.692  -0.469  -1.433  0.00  0.00    -0.067 C 
ATOM      4  C   UNL     1       1.818   0.238  -2.190  0.00  0.00    -0.015 C 
ATOM      5  C   UNL     1       1.503   1.732  -2.295  0.00  0.00    -0.002 C 
ATOM      6  C   UNL     1       0.184   1.923  -3.048  0.00  0.00    -0.000 C 
ATOM      7  C   UNL     1      -0.942   1.216  -2.291  0.00  0.00    -0.002 C 
ATOM      8  C   UNL     1      -0.627  -0.277  -2.185  0.00  0.00    -0.015 C 
ENDBRANCH   1   3
BRANCH   1   9
ATOM      9  C   UNL     1       2.218  -2.129  -0.551  0.00  0.00    -0.036 C 
BRANCH   9  16
ATOM     10  C   UNL     1       0.610  -1.579   7.242  0.00  0.00    +0.044 C 
ATOM     11  C   UNL     1       0.873  -1.911   5.796  0.00  0.00    -0.048 A 
ATOM     12  C   UNL     1       0.767  -3.226   5.363  0.00  0.00    +0.007 A 
ATOM     13  C   UNL     1       1.001  -3.549   4.056  0.00  0.00    -0.041 A 
ATOM     14  C   UNL     1       1.351  -2.546   3.146  0.00  0.00    +0.002 A 
ATOM     15  C   UNL     1       1.605  -2.856   1.738  0.00  0.00    +0.017 A 
ATOM     16  C   UNL     1       1.946  -1.843   0.903  0.00  0.00    +0.001 A 
ATOM     17  C   UNL     1       2.041  -0.522   1.390  0.00  0.00    +0.251 A 
ATOM     18  O   UNL     1       2.344   0.374   0.622  0.00  0.00    -0.268 OA
ATOM     19  N   UNL     1       1.805  -0.227   2.681  0.00  0.00    -0.322 N 
ATOM     20  H   UNL     1       1.879   0.692   2.982  0.00  0.00    +0.169 HD
ATOM     21  C   UNL     1       1.460  -1.212   3.582  0.00  0.00    +0.050 A 
ATOM     22  C   UNL     1       1.216  -0.907   4.917  0.00  0.00    +0.029 A 
ATOM     23  C   UNL     1       0.883  -4.979   3.597  0.00  0.00    +0.044 C 
ENDBRANCH   9  16
ENDBRANCH   1   9
BRANCH   1  24
ATOM     24  C   UNL     1       1.099  -2.514  -2.663  0.00  0.00    +0.006 C 
BRANCH  24  25
ATOM     25  C   UNL     1       2.072  -3.663  -2.614  0.00  0.00    +0.139 A 
ATOM     26  N   UNL     1       2.052  -4.669  -1.774  0.00  0.00    -0.115 NA
ATOM     27  N   UNL     1       3.045  -5.441  -2.054  0.00  0.00    -0.023 NA
ATOM     28  N   UNL     1       3.702  -4.949  -3.046  0.00  0.00    -0.044 NA
ATOM     29  N   UNL     1       3.133  -3.853  -3.419  0.00  0.00    -0.228 N 
BRANCH  29  30
ATOM     30  C   UNL     1       3.562  -2.979  -4.514  0.00  0.00    +0.111 C 
ATOM     31  C   UNL     1       3.544  -3.763  -5.829  0.00  0.00    +0.027 C 
ATOM     32  C   UNL     1       3.992  -2.850  -6.972  0.00  0.00    +0.002 C 
ATOM     33  C   UNL     1       5.410  -2.346  -6.698  0.00  0.00    +0.000 C 
ATOM     34  C   UNL     1       5.427  -1.563  -5.384  0.00  0.00    +0.002 C 
ATOM     35  C   UNL     1       4.980  -2.475  -4.240  0.00  0.00    +0.027 C 
ENDBRANCH  29  30
ENDBRANCH  24  25
BRANCH  24  36
ATOM     36  C   UNL     1      -0.276  -3.027  -3.098  0.00  0.00    -0.024 C 
ATOM     37  C   UNL     1      -0.161  -3.688  -4.473  0.00  0.00    +0.006 C 
ATOM     38  C   UNL     1      -0.782  -4.051  -2.081  0.00  0.00    +0.006 C 
ENDBRANCH  24  36
ENDBRANCH   1  24
TORSDOF 7
