REMARK  Name = ZINC63230381
REMARK  8 active torsions:
REMARK  status: ('A' for Active; 'I' for Inactive)
REMARK    1  A    between atoms: C_1  and  C_2
REMARK    2  A    between atoms: C_4  and  C_18
REMARK    3  A    between atoms: C_5  and  C_17
REMARK    4  A    between atoms: N_7  and  C_8
REMARK    5  A    between atoms: C_8  and  C_9
REMARK    6  A    between atoms: N_19  and  N_20
REMARK    7  A    between atoms: C_21  and  C_23
REMARK    8  A    between atoms: C_23  and  C_24
REMARK                            x       y       z     vdW  Elec       q    Type
REMARK                         _______ _______ _______ _____ _____    ______ ____
ROOT
ATOM      1  C   UNL     1      -0.019   1.526   0.010  0.00  0.00    +0.031 C 
ATOM      2  C   UNL     1       0.002  -0.004   0.002  0.00  0.00    +0.106 C 
ATOM      3  C   UNL     1       0.775  -0.517  -1.195  0.00  0.00    +0.008 C 
ATOM      4  C   UNL     1       1.811  -1.217  -0.705  0.00  0.00    +0.022 C 
ATOM      5  N   UNL     1       1.807  -1.224   0.665  0.00  0.00    -0.281 N 
ATOM      6  N   UNL     1       0.750  -0.517   1.167  0.00  0.00    -0.218 NA
ATOM      7  C   UNL     1       2.845  -1.909  -1.555  0.00  0.00    +0.062 C 
ATOM      8  H   UNL     1       2.471  -1.674   1.211  0.00  0.00    +0.166 HD
ENDROOT
BRANCH   3   9
ATOM      9  C   UNL     1       0.457  -0.294  -2.604  0.00  0.00    +0.137 C 
ATOM     10  N   UNL     1       1.218  -0.800  -3.531  0.00  0.00    -0.188 NA
BRANCH  10  11
ATOM     11  N   UNL     1       0.912  -0.587  -4.882  0.00  0.00    -0.207 N 
ATOM     12  C   UNL     1       1.700  -1.111  -5.841  0.00  0.00    +0.236 C 
ATOM     13  O   UNL     1       2.674  -1.768  -5.536  0.00  0.00    -0.274 OA
ATOM     14  H   UNL     1       0.134  -0.062  -5.126  0.00  0.00    +0.177 HD
BRANCH  12  15
ATOM     15  C   UNL     1       1.372  -0.881  -7.294  0.00  0.00    +0.130 C 
BRANCH  15  16
ATOM     16  C   UNL     1       2.400  -1.568  -8.156  0.00  0.00    -0.033 C 
ATOM     17  C   UNL     1       2.307  -2.799  -8.708  0.00  0.00    -0.001 A 
ATOM     18  C   UNL     1       1.262  -3.829  -8.672  0.00  0.00    +0.010 A 
ATOM     19  C   UNL     1       1.460  -4.989  -9.339  0.00  0.00    +0.001 A 
ATOM     20  C   UNL     1       2.636  -5.232 -10.061  0.00  0.00    +0.002 A 
ATOM     21  C   UNL     1       3.642  -4.335 -10.141  0.00  0.00    +0.026 A 
ATOM     22  C   UNL     1       3.540  -3.080  -9.478  0.00  0.00    +0.043 A 
ATOM     23  N   UNL     1       4.363  -2.062  -9.405  0.00  0.00    -0.380 N 
ATOM     24  C   UNL     1       3.742  -1.017  -8.584  0.00  0.00    +0.145 C 
ATOM     25  H   UNL     1       5.235  -2.008  -9.826  0.00  0.00    +0.160 HD
ENDBRANCH  15  16
ENDBRANCH  12  15
ENDBRANCH  10  11
ENDBRANCH   3   9
BRANCH   6  26
ATOM     26  C   UNL     1      -0.104  -1.367   2.008  0.00  0.00    +0.144 C 
BRANCH  26  27
ATOM     27  C   UNL     1       0.653  -1.771   3.246  0.00  0.00    +0.005 A 
ATOM     28  C   UNL     1       1.415  -2.925   3.246  0.00  0.00    +0.047 A 
ATOM     29  C   UNL     1       2.110  -3.296   4.384  0.00  0.00    +0.020 A 
ATOM     30  C   UNL     1       2.043  -2.512   5.521  0.00  0.00    +0.003 A 
ATOM     31  C   UNL     1       1.282  -1.359   5.521  0.00  0.00    +0.020 A 
ATOM     32  C   UNL     1       0.591  -0.984   4.382  0.00  0.00    +0.047 A 
ATOM     33 CL   UNL     1      -0.358   0.469   4.381  0.00  0.00    -0.083 Cl
ATOM     34 CL   UNL     1       1.499  -3.910   1.819  0.00  0.00    -0.083 Cl
ENDBRANCH  26  27
ENDBRANCH   6  26
TORSDOF 6
