REMARK  Name = ZINC20833979
REMARK  10 active torsions:
REMARK  status: ('A' for Active; 'I' for Inactive)
REMARK    1  A    between atoms: C_1  and  C_2
REMARK    2  A    between atoms: C_4  and  C_18
REMARK    3  A    between atoms: C_5  and  C_17
REMARK    4  A    between atoms: N_6  and  C_7
REMARK    5  A    between atoms: C_10  and  O_13
REMARK    6  A    between atoms: O_13  and  C_14
REMARK    7  A    between atoms: C_18  and  C_20
REMARK    8  A    between atoms: C_20  and  N_21
REMARK    9  A    between atoms: C_24  and  C_29
REMARK   10  A    between atoms: C_29  and  C_30
REMARK                            x       y       z     vdW  Elec       q    Type
REMARK                         _______ _______ _______ _____ _____    ______ ____
ROOT
ATOM      1  C   UNL     1       0.042  -3.378  -1.450  0.00  0.00    +0.183 C 
ATOM      2  O   UNL     1       0.058  -4.471  -0.923  0.00  0.00    -0.290 OA
ENDROOT
BRANCH   1   6
ATOM      3  C   UNL     1      -0.018   1.503   0.010  0.00  0.00    +0.064 C 
ATOM      4  C   UNL     1       0.002  -0.004   0.002  0.00  0.00    +0.022 A 
ATOM      5  C   UNL     1       0.008  -0.777  -1.097  0.00  0.00    +0.034 A 
ATOM      6  C   UNL     1       0.029  -2.168  -0.626  0.00  0.00    +0.040 A 
ATOM      7  C   UNL     1       0.034  -2.101   0.755  0.00  0.00    +0.031 A 
ATOM      8  N   UNL     1       0.024  -0.802   1.111  0.00  0.00    -0.317 N 
ATOM      9  C   UNL     1       0.054  -3.276   1.698  0.00  0.00    +0.064 C 
BRANCH   8  10
ATOM     10  C   UNL     1       0.030  -0.335   2.434  0.00  0.00    +0.047 A 
ATOM     11  C   UNL     1       1.134  -0.563   3.245  0.00  0.00    +0.030 A 
ATOM     12  C   UNL     1       1.140  -0.103   4.547  0.00  0.00    +0.048 A 
ATOM     13  C   UNL     1       0.044   0.587   5.045  0.00  0.00    +0.127 A 
ATOM     14  C   UNL     1      -1.059   0.815   4.234  0.00  0.00    +0.048 A 
ATOM     15  C   UNL     1      -1.064   0.361   2.930  0.00  0.00    +0.030 A 
BRANCH  13  16
ATOM     16  O   UNL     1       0.051   1.040   6.326  0.00  0.00    -0.434 OA
BRANCH  16  17
ATOM     17  C   UNL     1      -1.111   1.742   6.772  0.00  0.00    +0.541 C 
ATOM     18  F   UNL     1      -1.306   2.875   5.975  0.00  0.00    -0.166 F 
ATOM     19  F   UNL     1      -2.228   0.905   6.675  0.00  0.00    -0.166 F 
ENDBRANCH  16  17
ENDBRANCH  13  16
ENDBRANCH   8  10
ENDBRANCH   1   6
BRANCH   1  20
ATOM     20  C   UNL     1       0.035  -3.267  -2.953  0.00  0.00    +0.197 C 
BRANCH  20  21
ATOM     21  N   UNL     1       0.050  -4.608  -3.542  0.00  0.00    -0.217 N 
ATOM     22  C   UNL     1       1.173  -5.288  -3.846  0.00  0.00    +0.244 C 
ATOM     23  O   UNL     1       2.318  -4.920  -3.689  0.00  0.00    -0.273 OA
ATOM     24  C   UNL     1       0.708  -6.610  -4.424  0.00  0.00    +0.165 C 
ATOM     25  N   UNL     1      -0.761  -6.512  -4.374  0.00  0.00    -0.287 N 
ATOM     26  C   UNL     1      -1.048  -5.311  -3.840  0.00  0.00    +0.310 C 
ATOM     27  O   UNL     1      -2.180  -4.908  -3.652  0.00  0.00    -0.252 OA
ATOM     28  H   UNL     1      -1.397  -7.183  -4.666  0.00  0.00    +0.151 HD
BRANCH  24  29
ATOM     29  C   UNL     1       1.191  -6.767  -5.867  0.00  0.00    +0.067 C 
BRANCH  29  30
ATOM     30  C   UNL     1       0.821  -8.136  -6.375  0.00  0.00    -0.045 A 
ATOM     31  C   UNL     1       1.694  -9.195  -6.206  0.00  0.00    +0.004 A 
ATOM     32  C   UNL     1       1.355 -10.451  -6.672  0.00  0.00    +0.000 A 
ATOM     33  C   UNL     1       0.142 -10.649  -7.306  0.00  0.00    +0.000 A 
ATOM     34  C   UNL     1      -0.731  -9.591  -7.474  0.00  0.00    +0.000 A 
ATOM     35  C   UNL     1      -0.393  -8.335  -7.005  0.00  0.00    +0.004 A 
ENDBRANCH  29  30
ENDBRANCH  24  29
ENDBRANCH  20  21
ENDBRANCH   1  20
TORSDOF 8
