REMARK  Name = ZINC51995588
REMARK  4 active torsions:
REMARK  status: ('A' for Active; 'I' for Inactive)
REMARK    1  A    between atoms: C_2  and  C_11
REMARK    2  A    between atoms: C_11  and  N_12
REMARK    3  A    between atoms: N_12  and  C_13
REMARK    4  A    between atoms: C_19  and  O_21
REMARK                            x       y       z     vdW  Elec       q    Type
REMARK                         _______ _______ _______ _____ _____    ______ ____
ROOT
ATOM      1  C   UNL     1       1.147   3.596   0.010  0.00  0.00    -0.046 C 
ENDROOT
BRANCH   1   3
ATOM      2  C   UNL     1      -0.017   1.381   0.010  0.00  0.00    +0.051 A 
ATOM      3  C   UNL     1       1.171   2.090   0.002  0.00  0.00    -0.060 A 
ATOM      4  C   UNL     1       2.379   1.419  -0.013  0.00  0.00    +0.021 A 
ATOM      5  C   UNL     1       2.406   0.036  -0.021  0.00  0.00    +0.063 A 
ATOM      6  C   UNL     1       1.220  -0.680  -0.014  0.00  0.00    +0.180 A 
ATOM      7  C   UNL     1       0.002  -0.004   0.002  0.00  0.00    +0.168 A 
ATOM      8  O   UNL     1      -1.007  -0.923   0.006  0.00  0.00    -0.453 OA
ATOM      9  C   UNL     1      -0.404  -2.159  -0.419  0.00  0.00    +0.466 C 
ATOM     10  O   UNL     1       0.973  -2.023  -0.020  0.00  0.00    -0.451 OA
ATOM     11 BR   UNL     1       4.061  -0.877  -0.043  0.00  0.00    -0.046 Br
ENDBRANCH   1   3
BRANCH   1  12
ATOM     12  N   UNL     1       1.153   4.079   1.398  0.00  0.00    +0.385 N 
ATOM     13  H   UNL     1       0.339   3.727   1.879  0.00  0.00    -0.085 HD
ATOM     14  H   UNL     1       1.986   3.753   1.864  0.00  0.00    -0.085 HD
BRANCH  12  15
ATOM     15  C   UNL     1       1.129   5.547   1.406  0.00  0.00    -0.042 C 
ATOM     16  C   UNL     1       2.423   6.081   0.787  0.00  0.00    -0.013 C 
ATOM     17  C   UNL     1       2.399   7.611   0.795  0.00  0.00    -0.001 C 
ATOM     18  C   UNL     1       2.279   8.111   2.236  0.00  0.00    +0.002 C 
ATOM     19  C   UNL     1       0.985   7.577   2.855  0.00  0.00    +0.030 C 
ATOM     20  C   UNL     1       1.009   6.048   2.847  0.00  0.00    +0.101 C 
BRANCH  20  21
ATOM     21  O   UNL     1      -0.199   5.549   3.425  0.00  0.00    -0.393 OA
ATOM     22  H   UNL     1      -0.340   5.827   4.340  0.00  0.00    +0.210 HD
ENDBRANCH  20  21
ENDBRANCH  12  15
ENDBRANCH   1  12
TORSDOF 4
