REMARK  Name = ZINC09081714
REMARK  12 active torsions:
REMARK  status: ('A' for Active; 'I' for Inactive)
REMARK    1  A    between atoms: C_1  and  C_2
REMARK    2  A    between atoms: C_5  and  O_31
REMARK    3  A    between atoms: C_6  and  S_8
REMARK    4  A    between atoms: S_8  and  N_11
REMARK    5  A    between atoms: N_11  and  C_12
REMARK    6  A    between atoms: C_12  and  C_13
REMARK    7  A    between atoms: C_13  and  C_15
REMARK    8  A    between atoms: C_13  and  S_20
REMARK    9  A    between atoms: S_20  and  C_23
REMARK   10  A    between atoms: C_26  and  C_30
REMARK   11  A    between atoms: C_27  and  C_29
REMARK   12  A    between atoms: O_31  and  C_32
REMARK                            x       y       z     vdW  Elec       q    Type
REMARK                         _______ _______ _______ _____ _____    ______ ____
ROOT
ATOM      1  C   UNL     1       4.903   2.426   2.873  0.00  0.00    +0.217 C 
ENDROOT
BRANCH   1   2
ATOM      2  C   UNL     1       5.388   1.029   3.162  0.00  0.00    +0.131 A 
ATOM      3  C   UNL     1       6.666   0.613   3.106  0.00  0.00    +0.046 A 
ATOM      4  C   UNL     1       6.665  -0.758   3.452  0.00  0.00    +0.041 A 
ATOM      5  C   UNL     1       5.386  -1.099   3.691  0.00  0.00    +0.195 A 
ATOM      6  O   UNL     1       4.617  -0.013   3.514  0.00  0.00    -0.466 OA
ENDBRANCH   1   2
BRANCH   1   7
ATOM      7  S   UNL     1       4.078   3.096   4.343  0.00  0.00    +0.008 S 
ATOM      8  O   UNL     1       3.773   4.471   4.150  0.00  0.00    -0.169 OA
ATOM      9  O   UNL     1       3.082   2.191   4.800  0.00  0.00    -0.169 OA
BRANCH   7  10
ATOM     10  C   UNL     1       5.311   3.081   5.601  0.00  0.00    +0.089 A 
ATOM     11  C   UNL     1       6.130   4.181   5.779  0.00  0.00    +0.027 A 
ATOM     12  C   UNL     1       7.098   4.169   6.766  0.00  0.00    +0.005 A 
ATOM     13  C   UNL     1       7.246   3.058   7.576  0.00  0.00    -0.047 A 
ATOM     14  C   UNL     1       6.427   1.960   7.398  0.00  0.00    -0.046 A 
ATOM     15  C   UNL     1       5.456   1.973   6.414  0.00  0.00    +0.030 A 
ATOM     16  C   UNL     1       6.588   0.749   8.281  0.00  0.00    +0.044 C 
ATOM     17  C   UNL     1       8.300   3.046   8.652  0.00  0.00    +0.044 C 
ENDBRANCH   7  10
ENDBRANCH   1   7
BRANCH   1  18
ATOM     18  C   UNL     1       3.916   2.392   1.705  0.00  0.00    +0.140 C 
BRANCH  18  19
ATOM     19  N   UNL     1       3.445   3.751   1.424  0.00  0.00    -0.188 NA
ATOM     20  H   UNL     1       3.587   4.457   2.073  0.00  0.00    +0.148 HD
BRANCH  19  21
ATOM     21  S   UNL     1       2.668   4.080  -0.001  0.00  0.00    +0.062 S 
ATOM     22  O   UNL     1       3.468   3.525  -1.037  0.00  0.00    -0.153 OA
ATOM     23  O   UNL     1       2.317   5.456   0.036  0.00  0.00    -0.153 OA
BRANCH  21  29
ATOM     24  C   UNL     1      -2.553   3.867   0.046  0.00  0.00    +0.044 C 
ATOM     25  C   UNL     1      -1.237   3.133   0.030  0.00  0.00    -0.048 A 
ATOM     26  C   UNL     1      -1.218   1.751   0.017  0.00  0.00    +0.007 A 
ATOM     27  C   UNL     1      -0.013   1.076   0.008  0.00  0.00    +0.048 A 
ATOM     28  C   UNL     1       1.179   1.786   0.000  0.00  0.00    +0.146 A 
ATOM     29  C   UNL     1       1.157   3.173   0.008  0.00  0.00    +0.147 A 
ATOM     30  C   UNL     1      -0.051   3.844   0.022  0.00  0.00    +0.035 A 
BRANCH  28  31
ATOM     31  O   UNL     1       2.366   1.125  -0.015  0.00  0.00    -0.493 OA
ATOM     32  C   UNL     1       2.313  -0.303  -0.022  0.00  0.00    +0.277 C 
ENDBRANCH  28  31
ENDBRANCH  21  29
ENDBRANCH  19  21
ENDBRANCH  18  19
ENDBRANCH   1  18
TORSDOF 8
