REMARK  Name = ZINC36398700
REMARK  8 active torsions:
REMARK  status: ('A' for Active; 'I' for Inactive)
REMARK    1  A    between atoms: C_1  and  C_2
REMARK    2  A    between atoms: C_6  and  S_27
REMARK    3  A    between atoms: N_10  and  C_11
REMARK    4  A    between atoms: C_11  and  C_12
REMARK    5  A    between atoms: N_14  and  C_15
REMARK    6  A    between atoms: C_15  and  C_16
REMARK    7  A    between atoms: C_15  and  C_17
REMARK    8  A    between atoms: S_27  and  N_30
REMARK                            x       y       z     vdW  Elec       q    Type
REMARK                         _______ _______ _______ _____ _____    ______ ____
ROOT
ATOM      1  C   UNL     1       0.160  -0.113   2.581  0.00  0.00    +0.201 C 
ENDROOT
BRANCH   1  11
ATOM      2  C   UNL     1      -0.299   1.754   0.095  0.00  0.00    +0.028 C 
ATOM      3  C   UNL     1      -0.224   0.227   0.033  0.00  0.00    +0.075 C 
ATOM      4  C   UNL     1       0.566  -0.218  -1.208  0.00  0.00    +0.059 C 
ATOM      5  C   UNL     1       1.749  -0.979  -0.653  0.00  0.00    -0.023 A 
ATOM      6  C   UNL     1       2.800  -1.611  -1.290  0.00  0.00    +0.034 A 
ATOM      7  C   UNL     1       3.776  -2.252  -0.550  0.00  0.00    +0.105 A 
ATOM      8  C   UNL     1       3.700  -2.258   0.831  0.00  0.00    +0.030 A 
ATOM      9  C   UNL     1       2.654  -1.629   1.471  0.00  0.00    +0.025 A 
ATOM     10  C   UNL     1       1.663  -0.980   0.730  0.00  0.00    +0.034 A 
ATOM     11  N   UNL     1       0.534  -0.291   1.176  0.00  0.00    -0.318 N 
BRANCH   7  12
ATOM     12  S   UNL     1       5.116  -3.057  -1.364  0.00  0.00    +0.056 S 
ATOM     13  O   UNL     1       5.601  -4.046  -0.467  0.00  0.00    -0.153 OA
ATOM     14  O   UNL     1       4.664  -3.372  -2.674  0.00  0.00    -0.153 OA
BRANCH  12  15
ATOM     15  N   UNL     1       6.326  -1.940  -1.537  0.00  0.00    -0.204 NA
ATOM     16  H   UNL     1       7.253  -2.226  -1.544  0.00  0.00    +0.144 HD
ATOM     17  H   UNL     1       6.108  -1.000  -1.631  0.00  0.00    +0.144 HD
ENDBRANCH  12  15
ENDBRANCH   7  12
ENDBRANCH   1  11
BRANCH   1  18
ATOM     18  C   UNL     1      -0.721  -1.256   3.015  0.00  0.00    +0.231 C 
ATOM     19  O   UNL     1      -1.008  -2.133   2.229  0.00  0.00    -0.274 OA
ATOM     20  N   UNL     1      -1.190  -1.303   4.278  0.00  0.00    -0.307 N 
ATOM     21  H   UNL     1      -0.960  -0.602   4.907  0.00  0.00    +0.149 HD
BRANCH  20  22
ATOM     22  C   UNL     1      -2.046  -2.414   4.700  0.00  0.00    +0.101 C 
ATOM     23  C   UNL     1      -3.505  -2.084   4.379  0.00  0.00    +0.033 C 
BRANCH  22  24
ATOM     24  C   UNL     1      -1.895  -2.630   6.184  0.00  0.00    -0.020 A 
ATOM     25  C   UNL     1      -1.540  -1.594   6.993  0.00  0.00    +0.006 A 
ATOM     26  C   UNL     1      -1.395  -1.774   8.367  0.00  0.00    +0.001 A 
ATOM     27  C   UNL     1      -1.604  -2.990   8.941  0.00  0.00    +0.008 A 
ATOM     28  C   UNL     1      -1.972  -4.083   8.138  0.00  0.00    -0.018 A 
ATOM     29  C   UNL     1      -2.125  -3.899   6.741  0.00  0.00    -0.013 A 
ATOM     30  C   UNL     1      -2.499  -4.991   5.939  0.00  0.00    +0.009 A 
ATOM     31  C   UNL     1      -2.714  -6.206   6.513  0.00  0.00    +0.001 A 
ATOM     32  C   UNL     1      -2.569  -6.386   7.888  0.00  0.00    +0.001 A 
ATOM     33  C   UNL     1      -2.196  -5.354   8.694  0.00  0.00    +0.008 A 
ENDBRANCH  22  24
ENDBRANCH  20  22
ENDBRANCH   1  18
TORSDOF 6
