REMARK  Name = ZINC64428213
REMARK  8 active torsions:
REMARK  status: ('A' for Active; 'I' for Inactive)
REMARK    1  A    between atoms: C_1  and  O_2
REMARK    2  A    between atoms: O_2  and  C_3
REMARK    3  A    between atoms: C_10  and  C_18
REMARK    4  A    between atoms: C_21  and  O_33
REMARK    5  A    between atoms: C_22  and  C_24
REMARK    6  A    between atoms: C_24  and  O_25
REMARK    7  A    between atoms: O_25  and  C_26
REMARK    8  A    between atoms: O_33  and  C_34
REMARK                            x       y       z     vdW  Elec       q    Type
REMARK                         _______ _______ _______ _____ _____    ______ ____
ROOT
ATOM      1  C   UNL     1       0.451  -2.190   0.356  0.00  0.00    +0.121 A 
ATOM      2  C   UNL     1       0.627  -1.061  -0.463  0.00  0.00    +0.047 A 
ATOM      3  C   UNL     1       1.097  -1.148  -1.726  0.00  0.00    +0.029 A 
ATOM      4  C   UNL     1       1.445  -2.456  -2.287  0.00  0.00    +0.043 A 
ATOM      5  N   UNL     1       1.934  -2.807  -3.454  0.00  0.00    -0.376 N 
ATOM      6  C   UNL     1       2.001  -4.263  -3.508  0.00  0.00    +0.128 C 
ATOM      7  C   UNL     1       3.409  -4.777  -3.821  0.00  0.00    +0.111 C 
ATOM      8  N   UNL     1       3.440  -6.226  -3.567  0.00  0.00    -0.307 NA
ATOM      9  C   UNL     1       3.281  -6.569  -2.150  0.00  0.00    +0.086 C 
ATOM     10  C   UNL     1       1.877  -6.163  -1.663  0.00  0.00    +0.048 C 
ATOM     11  C   UNL     1       1.654  -4.733  -2.104  0.00  0.00    -0.035 C 
ATOM     12  C   UNL     1       1.270  -3.649  -1.420  0.00  0.00    +0.003 A 
ATOM     13  C   UNL     1       0.752  -3.442  -0.062  0.00  0.00    +0.055 A 
ATOM     14  H   UNL     1       2.758  -6.707  -4.133  0.00  0.00    +0.123 HD
ATOM     15  H   UNL     1       2.204  -2.200  -4.161  0.00  0.00    +0.160 HD
ENDROOT
BRANCH   7  16
ATOM     16  C   UNL     1       4.411  -4.084  -2.934  0.00  0.00    -0.028 A 
ATOM     17  C   UNL     1       4.231  -4.077  -1.563  0.00  0.00    +0.009 A 
ATOM     18  C   UNL     1       5.148  -3.442  -0.748  0.00  0.00    +0.046 A 
ATOM     19  C   UNL     1       6.251  -2.811  -1.306  0.00  0.00    +0.126 A 
ATOM     20  C   UNL     1       6.429  -2.820  -2.682  0.00  0.00    +0.032 A 
ATOM     21  C   UNL     1       5.512  -3.461  -3.492  0.00  0.00    +0.015 A 
BRANCH  19  22
ATOM     22  O   UNL     1       7.154  -2.186  -0.507  0.00  0.00    -0.495 OA
ATOM     23  C   UNL     1       6.906  -2.216   0.900  0.00  0.00    +0.277 C 
ENDBRANCH  19  22
BRANCH  20  24
ATOM     24  C   UNL     1       7.626  -2.136  -3.292  0.00  0.00    +0.268 C 
BRANCH  24  25
ATOM     25  O   UNL     1       7.586  -2.284  -4.713  0.00  0.00    -0.487 OA
BRANCH  25  26
ATOM     26  C   UNL     1       8.601  -1.720  -5.420  0.00  0.00    +0.121 A 
ATOM     27  C   UNL     1       9.616  -1.044  -4.760  0.00  0.00    +0.048 A 
ATOM     28  C   UNL     1      10.646  -0.472  -5.480  0.00  0.00    +0.042 A 
ATOM     29  C   UNL     1      10.666  -0.572  -6.861  0.00  0.00    +0.124 A 
ATOM     30  C   UNL     1       9.653  -1.246  -7.521  0.00  0.00    +0.042 A 
ATOM     31  C   UNL     1       8.624  -1.825  -6.803  0.00  0.00    +0.048 A 
ATOM     32  F   UNL     1      11.674  -0.011  -7.564  0.00  0.00    -0.205 F 
ENDBRANCH  25  26
ENDBRANCH  24  25
ENDBRANCH  20  24
ENDBRANCH   7  16
BRANCH   1  34
ATOM     33  C   UNL     1      -0.336  -0.680   2.016  0.00  0.00    +0.277 C 
ATOM     34  O   UNL     1      -0.032  -2.018   1.615  0.00  0.00    -0.495 OA
ENDBRANCH   1  34
TORSDOF 6
