REMARK  Name = ZINC41287354
REMARK  5 active torsions:
REMARK  status: ('A' for Active; 'I' for Inactive)
REMARK    1  A    between atoms: C_1  and  O_2
REMARK    2  A    between atoms: O_2  and  C_3
REMARK    3  A    between atoms: C_8  and  C_9
REMARK    4  A    between atoms: C_11  and  O_12
REMARK    5  A    between atoms: C_21  and  C_23
REMARK                            x       y       z     vdW  Elec       q    Type
REMARK                         _______ _______ _______ _____ _____    ______ ____
ROOT
ATOM      1  C   UNL     1       0.844  -3.049  -0.085  0.00  0.00    +0.143 A 
ATOM      2  C   UNL     1       0.541  -2.388   1.090  0.00  0.00    +0.093 A 
ATOM      3  C   UNL     1      -0.042  -3.086   2.146  0.00  0.00    +0.131 A 
ATOM      4  C   UNL     1      -0.308  -4.468   1.975  0.00  0.00    +0.059 A 
ATOM      5  C   UNL     1      -0.895  -5.220   3.005  0.00  0.00    +0.017 A 
ATOM      6  C   UNL     1      -1.143  -6.544   2.823  0.00  0.00    +0.024 A 
ATOM      7  C   UNL     1      -0.815  -7.168   1.606  0.00  0.00    +0.037 A 
ATOM      8  C   UNL     1      -0.230  -6.432   0.572  0.00  0.00    +0.070 A 
ATOM      9  C   UNL     1       0.026  -5.084   0.750  0.00  0.00    +0.141 A 
ATOM     10  O   UNL     1       0.584  -4.356  -0.240  0.00  0.00    -0.454 OA
ATOM     11  N   UNL     1      -1.067  -8.492   1.435  0.00  0.00    -0.281 N 
ATOM     12  C   UNL     1      -1.033  -9.022   0.219  0.00  0.00    +0.249 C 
ATOM     13  O   UNL     1      -0.898  -8.301  -0.757  0.00  0.00    -0.270 OA
ATOM     14  H   UNL     1      -1.271  -9.050   2.201  0.00  0.00    +0.155 HD
ENDROOT
BRANCH  12  15
ATOM     15  C   UNL     1      -1.159 -10.488   0.046  0.00  0.00    +0.051 A 
ATOM     16  C   UNL     1      -1.318 -11.313   1.159  0.00  0.00    +0.014 A 
ATOM     17  C   UNL     1      -1.435 -12.678   0.992  0.00  0.00    +0.001 A 
ATOM     18  C   UNL     1      -1.393 -13.229  -0.277  0.00  0.00    +0.001 A 
ATOM     19  C   UNL     1      -1.235 -12.416  -1.385  0.00  0.00    +0.016 A 
ATOM     20  C   UNL     1      -1.123 -11.048  -1.231  0.00  0.00    +0.030 A 
ATOM     21 BR   UNL     1      -0.915  -9.938  -2.748  0.00  0.00    -0.050 Br
ENDBRANCH  12  15
BRANCH   1  27
ATOM     22  C   UNL     1       1.899  -2.975  -2.343  0.00  0.00    +0.131 A 
ATOM     23  C   UNL     1       2.472  -2.259  -3.383  0.00  0.00    +0.046 A 
ATOM     24  C   UNL     1       2.614  -0.889  -3.284  0.00  0.00    +0.004 A 
ATOM     25  C   UNL     1       2.187  -0.219  -2.149  0.00  0.00    +0.001 A 
ATOM     26  C   UNL     1       1.615  -0.913  -1.105  0.00  0.00    +0.015 A 
ATOM     27  C   UNL     1       1.460  -2.300  -1.194  0.00  0.00    +0.059 A 
BRANCH  22  29
ATOM     28  C   UNL     1       2.229  -4.939  -3.638  0.00  0.00    +0.277 C 
ATOM     29  O   UNL     1       1.759  -4.321  -2.438  0.00  0.00    -0.494 OA
ENDBRANCH  22  29
ENDBRANCH   1  27
BRANCH   3  30
ATOM     30  O   UNL     1      -0.347  -2.461   3.305  0.00  0.00    -0.506 OA
ATOM     31  H   UNL     1      -0.125  -1.520   3.314  0.00  0.00    +0.292 HD
ENDBRANCH   3  30
TORSDOF 4
