REMARK  Name = ZINC36329859
REMARK  6 active torsions:
REMARK  status: ('A' for Active; 'I' for Inactive)
REMARK    1  A    between atoms: C_4  and  S_7
REMARK    2  A    between atoms: S_7  and  N_10
REMARK    3  A    between atoms: N_13  and  C_16
REMARK    4  A    between atoms: C_16  and  C_17
REMARK    5  A    between atoms: N_19  and  C_20
REMARK    6  A    between atoms: C_21  and  C_28
REMARK                            x       y       z     vdW  Elec       q    Type
REMARK                         _______ _______ _______ _____ _____    ______ ____
ROOT
ATOM      1  C   UNL     1       6.438  -3.504   5.476  0.00  0.00    +0.232 C 
ATOM      2  O   UNL     1       5.239  -3.673   5.551  0.00  0.00    -0.274 OA
ATOM      3  N   UNL     1       7.266  -4.185   6.292  0.00  0.00    -0.278 N 
ATOM      4  H   UNL     1       8.225  -4.050   6.233  0.00  0.00    +0.155 HD
ENDROOT
BRANCH   3   5
ATOM      5  C   UNL     1       6.748  -5.079   7.217  0.00  0.00    +0.084 A 
ATOM      6  C   UNL     1       7.439  -5.854   8.130  0.00  0.00    +0.068 A 
ATOM      7  C   UNL     1       6.652  -6.723   9.003  0.00  0.00    -0.023 A 
ATOM      8  C   UNL     1       5.325  -6.652   8.795  0.00  0.00    -0.004 A 
ATOM      9  S   UNL     1       5.139  -5.464   7.490  0.00  0.00    -0.077 S 
ATOM     10  C   UNL     1       4.563  -7.568   9.714  0.00  0.00    +0.043 C 
ATOM     11  C   UNL     1       5.625  -8.554  10.251  0.00  0.00    +0.010 C 
ATOM     12  C   UNL     1       6.918  -7.723  10.127  0.00  0.00    +0.037 C 
BRANCH   6  13
ATOM     13  C   UNL     1       8.902  -5.806   8.220  0.00  0.00    +0.244 C 
ATOM     14  O   UNL     1       9.440  -5.010   8.967  0.00  0.00    -0.270 OA
ATOM     15  N   UNL     1       9.650  -6.642   7.474  0.00  0.00    -0.325 N 
ATOM     16  H   UNL     1       9.222  -7.276   6.878  0.00  0.00    +0.145 HD
ATOM     17  H   UNL     1      10.618  -6.610   7.533  0.00  0.00    +0.145 HD
ENDBRANCH   6  13
ENDBRANCH   3   5
BRANCH   1  18
ATOM     18  C   UNL     1       7.001  -2.533   4.471  0.00  0.00    +0.180 C 
BRANCH  18  22
ATOM     19  N   UNL     1       4.378  -1.079   1.536  0.00  0.00    -0.174 NA
ATOM     20  C   UNL     1       5.191  -0.087   2.255  0.00  0.00    +0.125 C 
ATOM     21  C   UNL     1       6.386  -0.805   2.889  0.00  0.00    +0.102 C 
ATOM     22  N   UNL     1       5.902  -1.924   3.709  0.00  0.00    -0.291 NA
ATOM     23  C   UNL     1       5.212  -2.927   2.888  0.00  0.00    +0.102 C 
ATOM     24  C   UNL     1       3.964  -2.293   2.255  0.00  0.00    +0.125 C 
BRANCH  19  25
ATOM     25  S   UNL     1       3.934  -0.832  -0.041  0.00  0.00    +0.061 S 
ATOM     26  O   UNL     1       3.674  -2.114  -0.595  0.00  0.00    -0.153 OA
ATOM     27  O   UNL     1       4.890   0.060  -0.597  0.00  0.00    -0.153 OA
BRANCH  25  31
ATOM     28  C   UNL     1      -0.017   1.378   0.010  0.00  0.00    +0.000 A 
ATOM     29  C   UNL     1       1.171   2.086   0.002  0.00  0.00    +0.002 A 
ATOM     30  C   UNL     1       2.377   1.411  -0.013  0.00  0.00    +0.028 A 
ATOM     31  C   UNL     1       2.396   0.029  -0.020  0.00  0.00    +0.105 A 
ATOM     32  C   UNL     1       1.208  -0.679  -0.012  0.00  0.00    +0.028 A 
ATOM     33  C   UNL     1       0.002  -0.004   0.002  0.00  0.00    +0.002 A 
ENDBRANCH  25  31
ENDBRANCH  19  25
ENDBRANCH  18  22
ENDBRANCH   1  18
TORSDOF 6
