REMARK  Name = ZINC61889466
REMARK  4 active torsions:
REMARK  status: ('A' for Active; 'I' for Inactive)
REMARK    1  A    between atoms: C_2  and  S_7
REMARK    2  A    between atoms: S_7  and  N_10
REMARK    3  A    between atoms: N_10  and  C_11
REMARK    4  A    between atoms: C_16  and  C_18
REMARK                            x       y       z     vdW  Elec       q    Type
REMARK                         _______ _______ _______ _____ _____    ______ ____
ROOT
ATOM      1  S   UNL     1       1.797   3.455   0.003  0.00  0.00    +0.062 S 
ATOM      2  O   UNL     1       3.102   3.471  -0.560  0.00  0.00    -0.153 OA
ATOM      3  O   UNL     1       0.727   4.220  -0.534  0.00  0.00    -0.153 OA
ENDROOT
BRANCH   1   5
ATOM      4  C   UNL     1      -0.016   1.345   0.009  0.00  0.00    +0.133 A 
ATOM      5  C   UNL     1       1.267   1.775  -0.001  0.00  0.00    +0.142 A 
ATOM      6  C   UNL     1       2.098   0.650  -0.015  0.00  0.00    +0.162 A 
ATOM      7  N   UNL     1       1.341  -0.417  -0.013  0.00  0.00    -0.180 NA
ATOM      8  N   UNL     1       0.002  -0.004   0.002  0.00  0.00    -0.283 N 
ATOM      9  H   UNL     1      -0.774  -0.585   0.006  0.00  0.00    +0.188 HD
ENDBRANCH   1   5
BRANCH   1  10
ATOM     10  N   UNL     1       1.959   3.914   1.586  0.00  0.00    -0.186 NA
ATOM     11  H   UNL     1       1.382   4.602   1.953  0.00  0.00    +0.148 HD
BRANCH  10  12
ATOM     12  C   UNL     1       2.975   3.282   2.431  0.00  0.00    +0.093 C 
ATOM     13  C   UNL     1       4.241   4.162   2.485  0.00  0.00    +0.022 C 
ATOM     14  C   UNL     1       4.070   4.995   3.780  0.00  0.00    +0.003 C 
ATOM     15  C   UNL     1       3.430   3.979   4.758  0.00  0.00    +0.020 C 
ATOM     16  C   UNL     1       2.459   3.164   3.876  0.00  0.00    +0.110 C 
BRANCH  16  17
ATOM     17  C   UNL     1       1.100   3.722   3.973  0.00  0.00    +0.067 C 
ATOM     18  N   UNL     1       0.052   4.153   4.048  0.00  0.00    -0.196 NA
ENDBRANCH  16  17
ENDBRANCH  10  12
ENDBRANCH   1  10
TORSDOF 4
