REMARK  Name = ZINC35561055
REMARK  7 active torsions:
REMARK  status: ('A' for Active; 'I' for Inactive)
REMARK    1  A    between atoms: C_1  and  C_2
REMARK    2  A    between atoms: C_5  and  N_8
REMARK    3  A    between atoms: C_9  and  C_15
REMARK    4  A    between atoms: C_19  and  N_21
REMARK    5  A    between atoms: C_22  and  C_24
REMARK    6  A    between atoms: C_24  and  C_25
REMARK    7  A    between atoms: C_24  and  C_26
REMARK                            x       y       z     vdW  Elec       q    Type
REMARK                         _______ _______ _______ _____ _____    ______ ____
ROOT
ATOM      1  N   UNL     1       0.053  -4.130  -0.023  0.00  0.00    -0.254 N 
ATOM      2  C   UNL     1       0.176  -4.890   1.236  0.00  0.00    +0.170 C 
ATOM      3  S   UNL     1      -0.315  -6.581   0.687  0.00  0.00    -0.124 S 
ATOM      4  C   UNL     1      -0.021  -6.308  -1.114  0.00  0.00    +0.167 C 
ATOM      5  C   UNL     1      -0.046  -4.789  -1.170  0.00  0.00    +0.231 C 
ATOM      6  O   UNL     1      -0.148  -4.200  -2.226  0.00  0.00    -0.274 OA
ENDROOT
BRANCH   1  11
ATOM      7  C   UNL     1      -0.022   1.542   0.048  0.00  0.00    +0.044 C 
ATOM      8  C   UNL     1      -0.002   0.035   0.029  0.00  0.00    -0.050 A 
ATOM      9  C   UNL     1      -1.038  -0.661  -0.566  0.00  0.00    +0.005 A 
ATOM     10  C   UNL     1      -1.023  -2.042  -0.584  0.00  0.00    +0.024 A 
ATOM     11  C   UNL     1       0.035  -2.731  -0.006  0.00  0.00    +0.038 A 
ATOM     12  C   UNL     1       1.074  -2.029   0.591  0.00  0.00    +0.024 A 
ATOM     13  C   UNL     1       1.055  -0.648   0.602  0.00  0.00    +0.005 A 
ENDBRANCH   1  11
BRANCH   2  14
ATOM     14  C   UNL     1      -0.773  -4.363   2.281  0.00  0.00    -0.015 A 
ATOM     15  C   UNL     1      -1.975  -3.796   1.900  0.00  0.00    +0.006 A 
ATOM     16  C   UNL     1      -2.848  -3.312   2.857  0.00  0.00    +0.002 A 
ATOM     17  C   UNL     1      -2.522  -3.393   4.196  0.00  0.00    +0.023 A 
ATOM     18  C   UNL     1      -1.316  -3.961   4.582  0.00  0.00    +0.034 A 
ATOM     19  C   UNL     1      -0.443  -4.452   3.619  0.00  0.00    +0.029 A 
BRANCH  18  20
ATOM     20  N   UNL     1      -0.982  -4.045   5.939  0.00  0.00    -0.285 N 
ATOM     21  C   UNL     1      -1.944  -4.260   6.857  0.00  0.00    +0.220 C 
ATOM     22  O   UNL     1      -3.083  -4.479   6.503  0.00  0.00    -0.275 OA
ATOM     23  H   UNL     1      -0.058  -3.948   6.218  0.00  0.00    +0.155 HD
BRANCH  21  24
ATOM     24  C   UNL     1      -1.605  -4.227   8.325  0.00  0.00    +0.069 C 
ATOM     25  C   UNL     1      -2.867  -4.500   9.146  0.00  0.00    +0.017 C 
ATOM     26  C   UNL     1      -0.557  -5.300   8.630  0.00  0.00    +0.017 C 
ENDBRANCH  21  24
ENDBRANCH  18  20
ENDBRANCH   2  14
TORSDOF 4
