REMARK  Name = ZINC26875252
REMARK  4 active torsions:
REMARK  status: ('A' for Active; 'I' for Inactive)
REMARK    1  A    between atoms: C_1  and  C_2
REMARK    2  A    between atoms: C_7  and  N_10
REMARK    3  A    between atoms: N_10  and  S_11
REMARK    4  A    between atoms: S_11  and  C_14
REMARK                            x       y       z     vdW  Elec       q    Type
REMARK                         _______ _______ _______ _____ _____    ______ ____
ROOT
ATOM      1  S   UNL     1       4.769   0.680   1.816  0.00  0.00    +0.060 S 
ATOM      2  O   UNL     1       5.965   1.428   1.645  0.00  0.00    -0.153 OA
ATOM      3  O   UNL     1       4.345   0.201   3.085  0.00  0.00    -0.153 OA
ENDROOT
BRANCH   1   4
ATOM      4  C   UNL     1       4.902  -0.729   0.765  0.00  0.00    +0.123 A 
ATOM      5  C   UNL     1       4.181  -1.881   1.042  0.00  0.00    +0.033 A 
ATOM      6  C   UNL     1       4.312  -2.963   0.185  0.00  0.00    +0.042 A 
ATOM      7  C   UNL     1       5.160  -2.862  -0.904  0.00  0.00    +0.129 A 
ATOM      8  N   UNL     1       5.835  -1.751  -1.132  0.00  0.00    -0.242 NA
ATOM      9  C   UNL     1       5.730  -0.701  -0.341  0.00  0.00    +0.141 A 
ATOM     10 CL   UNL     1       5.340  -4.212  -1.980  0.00  0.00    -0.062 Cl
ENDBRANCH   1   4
BRANCH   1  11
ATOM     11  N   UNL     1       3.537   1.616   1.226  0.00  0.00    -0.187 NA
ATOM     12  H   UNL     1       3.778   2.541   0.682  0.00  0.00    +0.148 HD
BRANCH  11  18
ATOM     13  C   UNL     1      -0.753   1.593  -1.232  0.00  0.00    +0.007 C 
ATOM     14  C   UNL     1      -0.013   1.086   0.008  0.00  0.00    -0.013 C 
ATOM     15  C   UNL     1      -0.729   1.579   1.267  0.00  0.00    +0.003 C 
ATOM     16  C   UNL     1       0.011   1.072   2.506  0.00  0.00    +0.002 C 
ATOM     17  C   UNL     1       1.446   1.602   2.495  0.00  0.00    +0.020 C 
ATOM     18  C   UNL     1       2.163   1.109   1.237  0.00  0.00    +0.077 C 
ATOM     19  C   UNL     1       1.423   1.615  -0.003  0.00  0.00    +0.023 C 
ENDBRANCH  11  18
ENDBRANCH   1  11
TORSDOF 3
