REMARK  Name = ZINC08981760
REMARK  5 active torsions:
REMARK  status: ('A' for Active; 'I' for Inactive)
REMARK    1  A    between atoms: N_13  and  C_14
REMARK    2  A    between atoms: C_14  and  C_15
REMARK    3  A    between atoms: C_15  and  C_16
REMARK    4  A    between atoms: C_23  and  C_24
REMARK    5  A    between atoms: C_23  and  N_50
REMARK                            x       y       z     vdW  Elec       q    Type
REMARK                         _______ _______ _______ _____ _____    ______ ____
ROOT
ATOM      1  C   UNL     1      -0.372   7.462  -1.398  0.00  0.00    +0.217 C 
ATOM      2  O   UNL     1      -0.408   8.061  -0.344  0.00  0.00    -0.276 OA
ATOM      3  N   UNL     1      -0.433   8.140  -2.561  0.00  0.00    -0.305 N 
ATOM      4  C   UNL     1      -0.385   7.434  -3.850  0.00  0.00    +0.089 C 
ATOM      5  C   UNL     1      -1.570   7.910  -4.705  0.00  0.00    -0.059 C 
ATOM      6  C   UNL     1      -1.717   9.998  -3.480  0.00  0.00    -0.059 C 
ATOM      7  C   UNL     1      -0.544   9.607  -2.575  0.00  0.00    +0.089 C 
ATOM      8  N   UNL     1      -1.515   9.384  -4.811  0.00  0.00    +0.385 N 
ATOM      9  H   UNL     1      -0.592   9.658  -5.167  0.00  0.00    -0.081 HD
ENDROOT
BRANCH   1  10
ATOM     10  C   UNL     1      -0.259   5.959  -1.407  0.00  0.00    +0.117 C 
BRANCH  10  11
ATOM     11  C   UNL     1      -0.207   5.443   0.032  0.00  0.00    +0.136 C 
BRANCH  11  24
ATOM     12  C   UNL     1       3.631   2.129  -0.019  0.00  0.00    +0.001 A 
ATOM     13  C   UNL     1       3.547   3.513  -0.012  0.00  0.00    +0.002 A 
ATOM     14  C   UNL     1       2.319   4.144   0.002  0.00  0.00    +0.027 A 
ATOM     15  C   UNL     1       1.157   3.388   0.009  0.00  0.00    +0.059 A 
ATOM     16  C   UNL     1       1.240   1.985   0.001  0.00  0.00    +0.063 A 
ATOM     17  C   UNL     1       2.485   1.361  -0.013  0.00  0.00    +0.015 A 
ATOM     18  C   UNL     1      -0.014   1.212   0.009  0.00  0.00    +0.262 A 
ATOM     19  O   UNL     1       0.002  -0.004   0.002  0.00  0.00    -0.267 OA
ATOM     20  N   UNL     1      -1.183   1.889   0.018  0.00  0.00    -0.274 N 
ATOM     21  H   UNL     1      -2.044   1.380   0.015  0.00  0.00    +0.173 HD
ATOM     22  C   UNL     1      -1.211   3.231   0.030  0.00  0.00    +0.330 A 
ATOM     23  O   UNL     1      -2.290   3.790   0.043  0.00  0.00    -0.246 OA
ATOM     24  N   UNL     1      -0.097   3.982   0.023  0.00  0.00    -0.293 N 
ENDBRANCH  11  24
ENDBRANCH  10  11
ENDBRANCH   1  10
BRANCH   8  25
ATOM     25  C   UNL     1      -2.552   9.862  -5.749  0.00  0.00    -0.035 C 
BRANCH  25  26
ATOM     26  C   UNL     1      -2.500   9.032  -7.006  0.00  0.00    -0.026 A 
ATOM     27  C   UNL     1      -3.176   7.897  -7.308  0.00  0.00    +0.010 A 
ATOM     28  C   UNL     1      -2.969   7.300  -8.537  0.00  0.00    +0.023 A 
ATOM     29  C   UNL     1      -2.094   7.867  -9.404  0.00  0.00    +0.055 A 
ATOM     30  S   UNL     1      -1.538   9.294  -8.486  0.00  0.00    -0.088 S 
ATOM     31 BR   UNL     1      -1.598   7.299 -11.138  0.00  0.00    -0.043 Br
ENDBRANCH  25  26
ENDBRANCH   8  25
TORSDOF 5
