REMARK  Name = ZINC11995806
REMARK  6 active torsions:
REMARK  status: ('A' for Active; 'I' for Inactive)
REMARK    1  A    between atoms: C_8  and  C_10
REMARK    2  A    between atoms: C_10  and  N_65
REMARK    3  A    between atoms: C_13  and  C_16
REMARK    4  A    between atoms: C_16  and  C_30
REMARK    5  A    between atoms: N_19  and  C_23
REMARK    6  A    between atoms: C_23  and  C_24
REMARK                            x       y       z     vdW  Elec       q    Type
REMARK                         _______ _______ _______ _____ _____    ______ ____
ROOT
ATOM      1  C   UNL     1      -1.578   3.634  -2.416  0.00  0.00    +0.157 C 
ATOM      2  C   UNL     1      -1.629   5.149  -2.417  0.00  0.00    +0.253 C 
ATOM      3  O   UNL     1      -0.690   5.913  -2.486  0.00  0.00    -0.272 OA
ATOM      4  N   UNL     1      -2.934   5.470  -2.325  0.00  0.00    -0.221 N 
ATOM      5  C   UNL     1      -3.707   4.380  -2.266  0.00  0.00    +0.310 C 
ATOM      6  O   UNL     1      -4.919   4.415  -2.179  0.00  0.00    -0.252 OA
ATOM      7  N   UNL     1      -2.994   3.240  -2.313  0.00  0.00    -0.280 N 
ATOM      8  H   UNL     1      -3.343   2.336  -2.286  0.00  0.00    +0.152 HD
ENDROOT
BRANCH   1  11
ATOM      9  C   UNL     1      -0.013   1.086   0.008  0.00  0.00    -0.078 C 
ATOM     10  C   UNL     1      -0.752   1.593  -1.232  0.00  0.00    -0.012 C 
ATOM     11  C   UNL     1      -0.788   3.123  -1.209  0.00  0.00    +0.024 C 
ATOM     12  C   UNL     1      -1.465   3.591   0.082  0.00  0.00    -0.012 C 
ATOM     13  C   UNL     1      -0.705   3.026   1.284  0.00  0.00    -0.078 C 
ATOM     14  N   UNL     1      -0.728   1.550   1.216  0.00  0.00    +0.383 N 
ATOM     15  H   UNL     1      -1.704   1.234   1.167  0.00  0.00    -0.081 HD
BRANCH  14  16
ATOM     16  C   UNL     1      -0.099   0.979   2.425  0.00  0.00    -0.036 C 
BRANCH  16  24
ATOM     17  C   UNL     1      -3.391   2.837   7.435  0.00  0.00    +0.001 A 
ATOM     18  C   UNL     1      -2.530   3.903   7.661  0.00  0.00    +0.001 A 
ATOM     19  C   UNL     1      -1.454   4.099   6.818  0.00  0.00    +0.015 A 
ATOM     20  C   UNL     1      -1.250   3.234   5.765  0.00  0.00    +0.020 A 
ATOM     21  C   UNL     1      -2.110   2.143   5.513  0.00  0.00    -0.011 A 
ATOM     22  C   UNL     1      -3.200   1.977   6.400  0.00  0.00    +0.009 A 
ATOM     23  C   UNL     1      -1.743   1.334   4.359  0.00  0.00    +0.017 A 
ATOM     24  C   UNL     1      -0.658   1.666   3.644  0.00  0.00    -0.026 A 
ATOM     25  S   UNL     1      -0.032   3.109   4.482  0.00  0.00    -0.095 S 
ENDBRANCH  16  24
ENDBRANCH  14  16
ENDBRANCH   1  11
BRANCH   1  26
ATOM     26  C   UNL     1      -0.974   3.123  -3.698  0.00  0.00    +0.074 A 
ATOM     27  C   UNL     1      -1.732   2.338  -4.546  0.00  0.00    +0.026 A 
ATOM     28  C   UNL     1      -1.169   1.877  -5.726  0.00  0.00    +0.003 A 
ATOM     29  C   UNL     1       0.146   2.216  -6.005  0.00  0.00    +0.020 A 
ATOM     30  C   UNL     1       0.845   3.000  -5.107  0.00  0.00    +0.111 A 
ATOM     31  N   UNL     1       0.275   3.425  -3.996  0.00  0.00    -0.257 NA
ENDBRANCH   1  26
BRANCH   4  32
ATOM     32  C   UNL     1      -3.444   6.843  -2.292  0.00  0.00    +0.149 C 
BRANCH  32  33
ATOM     33  C   UNL     1      -3.724   7.317  -3.720  0.00  0.00    +0.136 C 
ATOM     34  C   UNL     1      -4.144   8.804  -3.720  0.00  0.00    +0.035 C 
ATOM     35  C   UNL     1      -5.226   8.889  -4.819  0.00  0.00    +0.031 C 
ATOM     36  C   UNL     1      -5.332   7.443  -5.353  0.00  0.00    +0.160 C 
ATOM     37  O   UNL     1      -4.859   6.614  -4.269  0.00  0.00    -0.375 OA
ENDBRANCH  32  33
ENDBRANCH   4  32
TORSDOF 6
