REMARK  Name = ZINC39609003
REMARK  9 active torsions:
REMARK  status: ('A' for Active; 'I' for Inactive)
REMARK    1  A    between atoms: C_1  and  C_2
REMARK    2  A    between atoms: C_2  and  C_4
REMARK    3  A    between atoms: C_2  and  O_35
REMARK    4  A    between atoms: C_8  and  C_17
REMARK    5  A    between atoms: N_19  and  C_20
REMARK    6  A    between atoms: C_25  and  O_27
REMARK    7  A    between atoms: O_27  and  C_28
REMARK    8  A    between atoms: C_28  and  C_29
REMARK    9  A    between atoms: O_35  and  C_36
REMARK                            x       y       z     vdW  Elec       q    Type
REMARK                         _______ _______ _______ _____ _____    ______ ____
ROOT
ATOM      1  C   UNL     1       0.862  -0.301  -1.686  0.00  0.00    +0.256 C 
ATOM      2  O   UNL     1       0.293  -0.755  -2.656  0.00  0.00    -0.272 OA
ATOM      3  N   UNL     1       2.172   0.009  -1.757  0.00  0.00    -0.297 N 
ATOM      4  C   UNL     1       3.034   0.562  -0.687  0.00  0.00    +0.121 C 
ATOM      5  C   UNL     1       4.385  -0.169  -0.855  0.00  0.00    +0.100 C 
ATOM      6  C   UNL     1       4.407  -0.618  -2.326  0.00  0.00    -0.004 C 
ATOM      7  C   UNL     1       3.077  -0.134  -2.923  0.00  0.00    +0.115 C 
ATOM      8  C   UNL     1       4.494  -2.139  -2.413  0.00  0.00    -0.010 C 
ATOM      9  C   UNL     1       4.572  -2.557  -3.884  0.00  0.00    -0.082 C 
ATOM     10  N   UNL     1       5.751  -1.942  -4.508  0.00  0.00    +0.379 N 
ATOM     11  C   UNL     1       5.615  -0.481  -4.502  0.00  0.00    -0.082 C 
ATOM     12  C   UNL     1       5.581   0.025  -3.058  0.00  0.00    -0.010 C 
ATOM     13  H   UNL     1       6.577  -2.204  -3.992  0.00  0.00    -0.086 HD
ATOM     14  H   UNL     1       5.835  -2.268  -5.459  0.00  0.00    -0.086 HD
ENDROOT
BRANCH   5  15
ATOM     15  C   UNL     1       4.452  -1.363   0.061  0.00  0.00    +0.218 C 
ATOM     16  O   UNL     1       3.437  -1.955   0.362  0.00  0.00    -0.275 OA
ATOM     17  N   UNL     1       5.641  -1.774   0.546  0.00  0.00    -0.310 N 
ATOM     18  H   UNL     1       6.453  -1.301   0.305  0.00  0.00    +0.149 HD
BRANCH  17  19
ATOM     19  C   UNL     1       5.707  -2.935   1.437  0.00  0.00    +0.102 C 
ATOM     20  C   UNL     1       5.491  -2.494   2.896  0.00  0.00    +0.025 C 
ATOM     21  C   UNL     1       6.771  -2.877   3.666  0.00  0.00    +0.004 C 
ATOM     22  C   UNL     1       7.390  -4.023   2.828  0.00  0.00    +0.033 C 
ATOM     23  C   UNL     1       7.110  -3.573   1.372  0.00  0.00    +0.139 C 
BRANCH  23  24
ATOM     24  O   UNL     1       7.107  -4.698   0.491  0.00  0.00    -0.370 OA
BRANCH  24  25
ATOM     25  C   UNL     1       8.359  -4.931  -0.158  0.00  0.00    +0.195 C 
BRANCH  25  26
ATOM     26  C   UNL     1       8.242  -6.134  -1.058  0.00  0.00    -0.022 A 
ATOM     27  C   UNL     1       8.520  -7.395  -0.565  0.00  0.00    +0.006 A 
ATOM     28  C   UNL     1       8.413  -8.499  -1.390  0.00  0.00    +0.000 A 
ATOM     29  C   UNL     1       8.028  -8.341  -2.708  0.00  0.00    +0.000 A 
ATOM     30  C   UNL     1       7.749  -7.080  -3.201  0.00  0.00    +0.000 A 
ATOM     31  C   UNL     1       7.852  -5.977  -2.375  0.00  0.00    +0.006 A 
ENDBRANCH  25  26
ENDBRANCH  24  25
ENDBRANCH  23  24
ENDBRANCH  17  19
ENDBRANCH   5  15
BRANCH   1  33
ATOM     32  C   UNL     1       0.049   1.414  -0.091  0.00  0.00    +0.062 C 
ATOM     33  C   UNL     1       0.105  -0.083  -0.401  0.00  0.00    +0.256 C 
BRANCH  33  34
ATOM     34  O   UNL     1      -1.223  -0.591  -0.539  0.00  0.00    -0.480 OA
BRANCH  34  35
ATOM     35  C   UNL     1      -1.863  -0.964   0.601  0.00  0.00    +0.122 A 
ATOM     36  C   UNL     1      -3.108  -1.570   0.532  0.00  0.00    +0.045 A 
ATOM     37  C   UNL     1      -3.756  -1.949   1.692  0.00  0.00    +0.004 A 
ATOM     38  C   UNL     1      -3.163  -1.724   2.921  0.00  0.00    +0.000 A 
ATOM     39  C   UNL     1      -1.922  -1.119   2.992  0.00  0.00    +0.004 A 
ATOM     40  C   UNL     1      -1.268  -0.744   1.835  0.00  0.00    +0.045 A 
ENDBRANCH  34  35
ENDBRANCH  33  34
ENDBRANCH   1  33
TORSDOF 8
