REMARK  Name = ZINC09275544
REMARK  11 active torsions:
REMARK  status: ('A' for Active; 'I' for Inactive)
REMARK    1  A    between atoms: C_1  and  C_2
REMARK    2  A    between atoms: C_2  and  N_56
REMARK    3  A    between atoms: C_3  and  C_4
REMARK    4  A    between atoms: C_3  and  N_56
REMARK    5  A    between atoms: C_5  and  C_6
REMARK    6  A    between atoms: C_5  and  N_56
REMARK    7  A    between atoms: C_6  and  N_7
REMARK    8  A    between atoms: C_8  and  C_24
REMARK    9  A    between atoms: C_11  and  C_12
REMARK   10  A    between atoms: C_11  and  O_19
REMARK   11  A    between atoms: C_27  and  N_30
REMARK                            x       y       z     vdW  Elec       q    Type
REMARK                         _______ _______ _______ _____ _____    ______ ____
ROOT
ATOM      1  N   UNL     1       0.970   2.211  -0.888  0.00  0.00    -0.285 N 
ATOM      2  C   UNL     1       1.942   1.114  -0.906  0.00  0.00    +0.144 C 
ATOM      3  C   UNL     1       1.149  -0.169  -0.814  0.00  0.00    +0.071 C 
ATOM      4  C   UNL     1       1.650  -1.455  -0.797  0.00  0.00    +0.133 C 
ATOM      5  C   UNL     1      -0.201   0.211  -0.747  0.00  0.00    +0.249 C 
ATOM      6  O   UNL     1      -1.153  -0.545  -0.664  0.00  0.00    -0.282 OA
ATOM      7  C   UNL     1      -0.268   1.696  -0.796  0.00  0.00    +0.288 C 
ATOM      8  O   UNL     1      -1.291   2.349  -0.764  0.00  0.00    -0.266 OA
ENDROOT
BRANCH   4   9
ATOM      9  C   UNL     1       0.744  -2.596  -0.587  0.00  0.00    +0.017 A 
ATOM     10  C   UNL     1      -0.174  -2.580   0.469  0.00  0.00    +0.012 A 
ATOM     11  C   UNL     1      -1.022  -3.649   0.657  0.00  0.00    +0.016 A 
ATOM     12  C   UNL     1      -0.962  -4.743  -0.191  0.00  0.00    +0.018 A 
ATOM     13  C   UNL     1      -0.052  -4.769  -1.235  0.00  0.00    +0.016 A 
ATOM     14  C   UNL     1       0.799  -3.705  -1.438  0.00  0.00    +0.012 A 
ATOM     15 BR   UNL     1      -2.126  -6.209   0.080  0.00  0.00    -0.050 Br
ENDBRANCH   4   9
BRANCH   2  16
ATOM     16  C   UNL     1       2.728   1.142  -2.192  0.00  0.00    -0.022 A 
ATOM     17  C   UNL     1       2.097   1.456  -3.381  0.00  0.00    +0.008 A 
ATOM     18  C   UNL     1       2.820   1.487  -4.559  0.00  0.00    +0.033 A 
ATOM     19  C   UNL     1       4.171   1.195  -4.550  0.00  0.00    +0.126 A 
ATOM     20  C   UNL     1       4.800   0.876  -3.361  0.00  0.00    +0.033 A 
ATOM     21  C   UNL     1       4.079   0.850  -2.182  0.00  0.00    +0.008 A 
BRANCH  19  22
ATOM     22  N   UNL     1       4.943   1.223  -5.812  0.00  0.00    +0.056 N 
ATOM     23  O   UNL     1       6.133   0.965  -5.804  0.00  0.00    -0.126 OA
ATOM     24  O   UNL     1       4.388   1.504  -6.859  0.00  0.00    -0.126 OA
ENDBRANCH  19  22
ENDBRANCH   2  16
BRANCH   4  25
ATOM     25  O   UNL     1       2.972  -1.666  -0.974  0.00  0.00    -0.506 OA
ATOM     26  H   UNL     1       3.161  -2.647  -0.933  0.00  0.00    +0.292 HD
ENDBRANCH   4  25
BRANCH   1  27
ATOM     27  C   UNL     1       1.296   3.637  -0.959  0.00  0.00    +0.090 C 
BRANCH  27  28
ATOM     28  C   UNL     1       1.495   4.186   0.456  0.00  0.00    -0.060 C 
BRANCH  28  29
ATOM     29  N   UNL     1       1.801   5.629   0.369  0.00  0.00    +0.380 N 
ATOM     30  H   UNL     1       1.087   6.087  -0.209  0.00  0.00    -0.082 HD
BRANCH  29  32
ATOM     31  C   UNL     1       0.333   6.447   2.143  0.00  0.00    -0.017 C 
ATOM     32  C   UNL     1       1.786   6.231   1.719  0.00  0.00    -0.082 C 
ENDBRANCH  29  32
BRANCH  29  33
ATOM     33  C   UNL     1       3.125   5.827  -0.258  0.00  0.00    -0.082 C 
ATOM     34  C   UNL     1       3.259   7.295  -0.671  0.00  0.00    -0.017 C 
ENDBRANCH  29  33
ENDBRANCH  28  29
ENDBRANCH  27  28
ENDBRANCH   1  27
TORSDOF 9
