REMARK  Name = ZINC66902663
REMARK  8 active torsions:
REMARK  status: ('A' for Active; 'I' for Inactive)
REMARK    1  A    between atoms: C_1  and  C_2
REMARK    2  A    between atoms: C_2  and  N_3
REMARK    3  A    between atoms: C_9  and  C_11
REMARK    4  A    between atoms: C_11  and  C_13
REMARK    5  A    between atoms: C_11  and  N_14
REMARK    6  A    between atoms: C_17  and  N_20
REMARK    7  A    between atoms: C_21  and  C_23
REMARK    8  A    between atoms: C_23  and  C_24
REMARK                            x       y       z     vdW  Elec       q    Type
REMARK                         _______ _______ _______ _____ _____    ______ ____
ROOT
ATOM      1  N   UNL     1       0.738  -4.847   5.507  0.00  0.00    +0.387 N 
ATOM      2  C   UNL     1       0.712  -6.305   5.342  0.00  0.00    -0.076 C 
ATOM      3  C   UNL     1      -0.028  -6.943   6.520  0.00  0.00    +0.004 C 
ATOM      4  C   UNL     1       0.696  -6.588   7.822  0.00  0.00    +0.069 C 
ATOM      5  C   UNL     1       0.783  -5.064   7.947  0.00  0.00    +0.004 C 
ATOM      6  C   UNL     1       1.492  -4.496   6.716  0.00  0.00    -0.076 C 
ATOM      7  H   UNL     1      -0.207  -4.503   5.590  0.00  0.00    -0.081 HD
ENDROOT
BRANCH   4   8
ATOM      8  N   UNL     1      -0.049  -7.131   8.960  0.00  0.00    -0.313 N 
ATOM      9  C   UNL     1       0.588  -7.401  10.117  0.00  0.00    +0.213 C 
ATOM     10  O   UNL     1       1.779  -7.193  10.215  0.00  0.00    -0.276 OA
ATOM     11  H   UNL     1      -1.002  -7.297   8.882  0.00  0.00    +0.149 HD
BRANCH   9  12
ATOM     12  C   UNL     1      -0.178  -7.960  11.287  0.00  0.00    +0.099 C 
BRANCH  12  13
ATOM     13  C   UNL     1       0.774  -8.173  12.466  0.00  0.00    -0.002 C 
ATOM     14  C   UNL     1       1.801  -9.248  12.104  0.00  0.00    +0.004 C 
ATOM     15  C   UNL     1       2.753  -9.461  13.282  0.00  0.00    +0.000 C 
ATOM     16  C   UNL     1       1.956  -9.910  14.508  0.00  0.00    +0.000 C 
ATOM     17  C   UNL     1       0.929  -8.835  14.870  0.00  0.00    +0.000 C 
ATOM     18  C   UNL     1      -0.023  -8.622  13.692  0.00  0.00    +0.004 C 
ENDBRANCH  12  13
ENDBRANCH   9  12
ENDBRANCH   4   8
BRANCH   1  19
ATOM     19  C   UNL     1       1.380  -4.234   4.336  0.00  0.00    +0.016 C 
ATOM     20  C   UNL     1       0.633  -4.653   3.068  0.00  0.00    -0.004 C 
BRANCH  19  27
ATOM     21  N   UNL     1       3.491  -0.525   1.805  0.00  0.00    -0.300 NA
ATOM     22  C   UNL     1       2.284   0.018   2.441  0.00  0.00    +0.103 C 
ATOM     23  C   UNL     1       2.186  -0.509   3.877  0.00  0.00    +0.123 C 
ATOM     24  N   UNL     1       2.263  -1.977   3.842  0.00  0.00    -0.300 N 
ATOM     25  C   UNL     1       3.374  -2.598   3.104  0.00  0.00    +0.123 C 
ATOM     26  C   UNL     1       3.425  -1.989   1.699  0.00  0.00    +0.103 C 
ATOM     27  C   UNL     1       1.341  -2.734   4.470  0.00  0.00    +0.202 C 
ATOM     28  O   UNL     1       0.481  -2.207   5.143  0.00  0.00    -0.277 OA
BRANCH  21  30
ATOM     29  C   UNL     1       4.026   1.576   0.666  0.00  0.00    +0.020 C 
ATOM     30  C   UNL     1       3.715   0.088   0.489  0.00  0.00    +0.081 C 
ENDBRANCH  21  30
ENDBRANCH  19  27
ENDBRANCH   1  19
TORSDOF 6
