REMARK  Name = ZINC11748878
REMARK  11 active torsions:
REMARK  status: ('A' for Active; 'I' for Inactive)
REMARK    1  A    between atoms: C_1  and  C_2
REMARK    2  A    between atoms: C_2  and  C_3
REMARK    3  A    between atoms: C_6  and  C_9
REMARK    4  A    between atoms: C_12  and  S_15
REMARK    5  A    between atoms: S_15  and  C_16
REMARK    6  A    between atoms: C_16  and  C_17
REMARK    7  A    between atoms: C_17  and  C_18
REMARK    8  A    between atoms: C_17  and  O_28
REMARK    9  A    between atoms: C_18  and  O_19
REMARK   10  A    between atoms: O_19  and  C_20
REMARK   11  A    between atoms: C_23  and  C_26
REMARK                            x       y       z     vdW  Elec       q    Type
REMARK                         _______ _______ _______ _____ _____    ______ ____
ROOT
ATOM      1  S   UNL     1       2.880  -3.084   8.368  0.00  0.00    -0.084 S 
ENDROOT
BRANCH   1   5
ATOM      2  C   UNL     1       2.788  -1.912   4.668  0.00  0.00    +0.182 A 
ATOM      3  N   UNL     1       2.224  -2.191   5.852  0.00  0.00    -0.201 NA
ATOM      4  H   UNL     1       5.196  -2.850   6.417  0.00  0.00    +0.191 HD
ATOM      5  C   UNL     1       3.147  -2.604   6.694  0.00  0.00    +0.185 A 
ATOM      6  N   UNL     1       4.335  -2.596   6.050  0.00  0.00    -0.253 N 
ATOM      7  N   UNL     1       4.077  -2.151   4.743  0.00  0.00    -0.152 NA
BRANCH   2  11
ATOM      8  C   UNL     1       0.731  -0.503   1.223  0.00  0.00    -0.048 A 
ATOM      9  C   UNL     1       2.098  -0.709   1.173  0.00  0.00    +0.004 A 
ATOM     10  C   UNL     1       2.771  -1.166   2.288  0.00  0.00    +0.012 A 
ATOM     11  C   UNL     1       2.070  -1.420   3.466  0.00  0.00    +0.021 A 
ATOM     12  C   UNL     1       0.693  -1.212   3.510  0.00  0.00    +0.012 A 
ATOM     13  C   UNL     1       0.031  -0.749   2.391  0.00  0.00    +0.004 A 
BRANCH   8  15
ATOM     14  C   UNL     1      -0.019   1.526   0.010  0.00  0.00    +0.009 C 
ATOM     15  C   UNL     1       0.002  -0.004   0.002  0.00  0.00    +0.032 C 
ENDBRANCH   8  15
ENDBRANCH   2  11
ENDBRANCH   1   5
BRANCH   1  16
ATOM     16  C   UNL     1       1.095  -2.869   8.607  0.00  0.00    +0.112 C 
BRANCH  16  17
ATOM     17  C   UNL     1       0.722  -3.256  10.040  0.00  0.00    +0.162 C 
BRANCH  17  18
ATOM     18  O   UNL     1       1.338  -2.348  10.954  0.00  0.00    -0.388 OA
ATOM     19  H   UNL     1       1.075  -1.425  10.830  0.00  0.00    +0.210 HD
ENDBRANCH  17  18
BRANCH  17  20
ATOM     20  C   UNL     1      -0.798  -3.195  10.206  0.00  0.00    +0.261 C 
BRANCH  20  21
ATOM     21  O   UNL     1      -1.155  -3.667  11.506  0.00  0.00    -0.489 OA
BRANCH  21  22
ATOM     22  C   UNL     1      -2.476  -3.678  11.817  0.00  0.00    +0.121 A 
ATOM     23  C   UNL     1      -3.411  -3.247  10.883  0.00  0.00    +0.047 A 
ATOM     24  C   UNL     1      -4.753  -3.257  11.194  0.00  0.00    +0.022 A 
ATOM     25  C   UNL     1      -5.173  -3.701  12.450  0.00  0.00    +0.052 A 
ATOM     26  C   UNL     1      -4.230  -4.134  13.386  0.00  0.00    +0.022 A 
ATOM     27  C   UNL     1      -2.891  -4.126  13.065  0.00  0.00    +0.047 A 
BRANCH  25  28
ATOM     28  C   UNL     1      -6.567  -3.713  12.778  0.00  0.00    +0.099 C 
ATOM     29  N   UNL     1      -7.673  -3.722  13.038  0.00  0.00    -0.191 NA
ENDBRANCH  25  28
ENDBRANCH  21  22
ENDBRANCH  20  21
ENDBRANCH  17  20
ENDBRANCH  16  17
ENDBRANCH   1  16
TORSDOF 10
