REMARK  Name = ZINC15225512
REMARK  10 active torsions:
REMARK  status: ('A' for Active; 'I' for Inactive)
REMARK    1  A    between atoms: C_1  and  C_2
REMARK    2  A    between atoms: C_2  and  O_3
REMARK    3  A    between atoms: O_3  and  C_4
REMARK    4  A    between atoms: C_6  and  C_15
REMARK    5  A    between atoms: C_9  and  O_10
REMARK    6  A    between atoms: O_10  and  C_11
REMARK    7  A    between atoms: C_11  and  C_12
REMARK    8  A    between atoms: N_19  and  C_29
REMARK    9  A    between atoms: N_21  and  C_22
REMARK   10  A    between atoms: C_29  and  C_30
REMARK                            x       y       z     vdW  Elec       q    Type
REMARK                         _______ _______ _______ _____ _____    ______ ____
ROOT
ATOM      1  C   UNL     1       0.093  -4.945   0.864  0.00  0.00    +0.028 C 
ATOM      2  C   UNL     1       0.438  -6.137   0.314  0.00  0.00    +0.078 C 
ATOM      3  C   UNL     1       1.626  -6.975   0.565  0.00  0.00    +0.259 C 
ATOM      4  O   UNL     1       2.483  -6.642   1.362  0.00  0.00    -0.269 OA
ATOM      5  N   UNL     1       1.717  -8.106  -0.116  0.00  0.00    -0.239 N 
ATOM      6  C   UNL     1       0.736  -8.466  -1.014  0.00  0.00    +0.169 C 
ATOM      7  N   UNL     1       0.671  -9.543  -1.764  0.00  0.00    -0.225 NA
ATOM      8  S   UNL     1      -0.428  -7.117  -0.904  0.00  0.00    -0.049 S 
ENDROOT
BRANCH   1  11
ATOM      9  C   UNL     1       0.991  -3.523   4.216  0.00  0.00    +0.162 A 
ATOM     10  C   UNL     1       0.246  -4.040   3.174  0.00  0.00    +0.057 A 
ATOM     11  C   UNL     1       0.879  -4.395   1.976  0.00  0.00    -0.020 A 
ATOM     12  C   UNL     1       2.262  -4.226   1.843  0.00  0.00    +0.012 A 
ATOM     13  C   UNL     1       2.996  -3.710   2.889  0.00  0.00    +0.050 A 
ATOM     14  C   UNL     1       2.367  -3.353   4.074  0.00  0.00    +0.163 A 
BRANCH   9  15
ATOM     15  O   UNL     1       0.380  -3.176   5.381  0.00  0.00    -0.489 OA
BRANCH  15  17
ATOM     16  C   UNL     1      -1.538  -2.933   6.832  0.00  0.00    +0.048 C 
ATOM     17  C   UNL     1      -1.033  -3.378   5.458  0.00  0.00    +0.226 C 
ENDBRANCH  15  17
ENDBRANCH   9  15
BRANCH  14  18
ATOM     18  O   UNL     1       3.096  -2.840   5.099  0.00  0.00    -0.479 OA
BRANCH  18  19
ATOM     19  C   UNL     1       4.501  -2.692   4.886  0.00  0.00    +0.324 C 
BRANCH  19  20
ATOM     20  C   UNL     1       5.138  -2.113   6.123  0.00  0.00    +0.248 C 
ATOM     21  O   UNL     1       4.456  -1.853   7.091  0.00  0.00    -0.272 OA
ATOM     22  N   UNL     1       6.466  -1.884   6.152  0.00  0.00    -0.327 N 
ATOM     23  H   UNL     1       7.011  -2.092   5.378  0.00  0.00    +0.145 HD
ATOM     24  H   UNL     1       6.876  -1.511   6.949  0.00  0.00    +0.145 HD
ENDBRANCH  19  20
ENDBRANCH  18  19
ENDBRANCH  14  18
ENDBRANCH   1  11
BRANCH   7  25
ATOM     25  C   UNL     1       1.244 -10.710  -1.337  0.00  0.00    +0.067 A 
ATOM     26  C   UNL     1       0.679 -11.423  -0.277  0.00  0.00    +0.028 A 
ATOM     27  C   UNL     1       1.263 -12.599   0.148  0.00  0.00    +0.002 A 
ATOM     28  C   UNL     1       2.405 -13.072  -0.474  0.00  0.00    +0.000 A 
ATOM     29  C   UNL     1       2.970 -12.370  -1.524  0.00  0.00    +0.002 A 
ATOM     30  C   UNL     1       2.394 -11.196  -1.963  0.00  0.00    +0.028 A 
ENDBRANCH   7  25
BRANCH   5  31
ATOM     31  C   UNL     1       2.873  -8.983   0.087  0.00  0.00    +0.190 C 
BRANCH  31  32
ATOM     32  C   UNL     1       4.035  -8.479  -0.729  0.00  0.00    +0.123 A 
ATOM     33  C   UNL     1       4.887  -7.504  -0.365  0.00  0.00    +0.046 A 
ATOM     34  C   UNL     1       5.816  -7.357  -1.421  0.00  0.00    +0.041 A 
ATOM     35  C   UNL     1       5.476  -8.251  -2.367  0.00  0.00    +0.195 A 
ATOM     36  O   UNL     1       4.400  -8.932  -1.940  0.00  0.00    -0.466 OA
ENDBRANCH  31  32
ENDBRANCH   5  31
TORSDOF 9
