REMARK  Name = ZINC36660417
REMARK  12 active torsions:
REMARK  status: ('A' for Active; 'I' for Inactive)
REMARK    1  A    between atoms: C_1  and  N_2
REMARK    2  A    between atoms: N_2  and  C_3
REMARK    3  A    between atoms: N_2  and  C_4
REMARK    4  A    between atoms: C_4  and  C_5
REMARK    5  A    between atoms: C_5  and  N_6
REMARK    6  A    between atoms: C_10  and  O_16
REMARK    7  A    between atoms: O_16  and  C_17
REMARK    8  A    between atoms: C_18  and  C_20
REMARK    9  A    between atoms: N_25  and  S_26
REMARK   10  A    between atoms: S_26  and  C_29
REMARK   11  A    between atoms: C_32  and  O_35
REMARK   12  A    between atoms: O_35  and  C_36
REMARK                            x       y       z     vdW  Elec       q    Type
REMARK                         _______ _______ _______ _____ _____    ______ ____
ROOT
ATOM      1  N   UNL     1       0.836  -0.860   3.432  0.00  0.00    -0.251 N 
ATOM      2  C   UNL     1       1.970  -0.292   3.990  0.00  0.00    +0.168 A 
ATOM      3  N   UNL     1       2.647  -0.675   5.047  0.00  0.00    -0.221 NA
ATOM      4  C   UNL     1       3.746  -0.020   5.482  0.00  0.00    +0.122 A 
ATOM      5  C   UNL     1       4.562  -0.326   6.601  0.00  0.00    +0.146 A 
ATOM      6  C   UNL     1       5.653   0.453   6.907  0.00  0.00    +0.048 A 
ATOM      7  C   UNL     1       5.992   1.557   6.137  0.00  0.00    +0.005 A 
ATOM      8  C   UNL     1       5.217   1.882   5.039  0.00  0.00    +0.017 A 
ATOM      9  C   UNL     1       4.124   1.110   4.726  0.00  0.00    +0.044 A 
ATOM     10  S   UNL     1       2.888   1.143   3.450  0.00  0.00    -0.052 S 
ATOM     11  C   UNL     1       0.284  -1.954   3.992  0.00  0.00    +0.240 C 
ATOM     12  O   UNL     1      -0.675  -2.484   3.472  0.00  0.00    -0.273 OA
ENDROOT
BRANCH  11  13
ATOM     13  C   UNL     1       0.859  -2.520   5.265  0.00  0.00    +0.166 C 
ATOM     14  C   UNL     1       0.464  -1.628   6.461  0.00  0.00    +0.031 C 
ATOM     15  C   UNL     1      -0.773  -2.359   7.046  0.00  0.00    +0.019 C 
ATOM     16  C   UNL     1      -0.396  -3.843   6.814  0.00  0.00    +0.110 C 
ATOM     17  N   UNL     1       0.303  -3.858   5.513  0.00  0.00    -0.165 NA
BRANCH  17  18
ATOM     18  S   UNL     1       0.438  -5.162   4.501  0.00  0.00    +0.062 S 
ATOM     19  O   UNL     1      -0.647  -6.027   4.805  0.00  0.00    -0.153 OA
ATOM     20  O   UNL     1       0.656  -4.643   3.197  0.00  0.00    -0.153 OA
BRANCH  18  21
ATOM     21  C   UNL     1       1.909  -6.022   4.953  0.00  0.00    +0.106 A 
ATOM     22  C   UNL     1       3.113  -5.689   4.360  0.00  0.00    +0.032 A 
ATOM     23  C   UNL     1       4.266  -6.362   4.712  0.00  0.00    +0.047 A 
ATOM     24  C   UNL     1       4.217  -7.372   5.662  0.00  0.00    +0.120 A 
ATOM     25  C   UNL     1       3.007  -7.704   6.255  0.00  0.00    +0.047 A 
ATOM     26  C   UNL     1       1.857  -7.025   5.904  0.00  0.00    +0.032 A 
BRANCH  24  27
ATOM     27  O   UNL     1       5.351  -8.036   6.009  0.00  0.00    -0.495 OA
ATOM     28  C   UNL     1       5.224  -9.064   6.994  0.00  0.00    +0.277 C 
ENDBRANCH  24  27
ENDBRANCH  18  21
ENDBRANCH  17  18
ENDBRANCH  11  13
BRANCH   5  29
ATOM     29  O   UNL     1       4.262  -1.399   7.380  0.00  0.00    -0.493 OA
ATOM     30  C   UNL     1       5.122  -1.654   8.492  0.00  0.00    +0.277 C 
ENDBRANCH   5  29
BRANCH   1  31
ATOM     31  C   UNL     1       0.236  -0.270   2.232  0.00  0.00    +0.097 C 
BRANCH  31  32
ATOM     32  C   UNL     1       0.882  -0.879   0.987  0.00  0.00    -0.060 C 
BRANCH  32  34
ATOM     33  C   UNL     1       0.542   1.121  -0.293  0.00  0.00    -0.097 C 
ATOM     34  N   UNL     1       0.253  -0.317  -0.216  0.00  0.00    +0.377 N 
ATOM     35  C   UNL     1       0.789  -0.988  -1.408  0.00  0.00    -0.097 C 
ATOM     36  H   UNL     1      -0.745  -0.458  -0.171  0.00  0.00    -0.083 HD
ENDBRANCH  32  34
ENDBRANCH  31  32
ENDBRANCH   1  31
TORSDOF 8
