REMARK  Name = ZINC00853071
REMARK  7 active torsions:
REMARK  status: ('A' for Active; 'I' for Inactive)
REMARK    1  A    between atoms: C_3  and  N_22
REMARK    2  A    between atoms: C_6  and  C_7
REMARK    3  A    between atoms: C_7  and  C_9
REMARK    4  A    between atoms: C_9  and  O_10
REMARK    5  A    between atoms: O_10  and  C_11
REMARK    6  A    between atoms: C_11  and  C_13
REMARK    7  A    between atoms: C_16  and  N_20
REMARK                            x       y       z     vdW  Elec       q    Type
REMARK                         _______ _______ _______ _____ _____    ______ ____
ROOT
ATOM      1  O   UNL     1       3.632   1.767  -0.024  0.00  0.00    -0.453 OA
ENDROOT
BRANCH   1   2
ATOM      2  C   UNL     1       2.476   1.075  -0.016  0.00  0.00    +0.340 C 
ATOM      3  O   UNL     1       2.495  -0.140  -0.024  0.00  0.00    -0.245 OA
BRANCH   2   4
ATOM      4  C   UNL     1       1.188   1.792   0.000  0.00  0.00    +0.061 A 
ATOM      5  C   UNL     1      -0.013   1.076   0.008  0.00  0.00    +0.032 A 
ATOM      6  C   UNL     1      -1.214   1.749   0.017  0.00  0.00    +0.040 A 
ATOM      7  C   UNL     1      -1.233   3.141   0.031  0.00  0.00    +0.053 A 
ATOM      8  C   UNL     1      -0.039   3.857   0.023  0.00  0.00    +0.040 A 
ATOM      9  C   UNL     1       1.165   3.191   0.008  0.00  0.00    +0.032 A 
ATOM     10 BR   UNL     1      -0.071   5.748   0.034  0.00  0.00    -0.048 Br
ATOM     11 BR   UNL     1      -2.838   0.781   0.020  0.00  0.00    -0.048 Br
BRANCH   7  12
ATOM     12  N   UNL     1      -2.449   3.818   0.046  0.00  0.00    -0.356 N 
ATOM     13  H   UNL     1      -2.463   4.788   0.051  0.00  0.00    +0.142 HD
ATOM     14  H   UNL     1      -3.281   3.320   0.051  0.00  0.00    +0.142 HD
ENDBRANCH   7  12
ENDBRANCH   2   4
ENDBRANCH   1   2
BRANCH   1  15
ATOM     15  C   UNL     1       4.862   0.995  -0.040  0.00  0.00    +0.311 C 
BRANCH  15  16
ATOM     16  C   UNL     1       6.043   1.931  -0.046  0.00  0.00    +0.200 C 
ATOM     17  O   UNL     1       5.866   3.131  -0.038  0.00  0.00    -0.288 OA
BRANCH  16  23
ATOM     18  C   UNL     1       7.620   0.007  -0.067  0.00  0.00    +0.014 A 
ATOM     19  C   UNL     1       8.905  -0.493  -0.087  0.00  0.00    +0.033 A 
ATOM     20  C   UNL     1       9.987   0.370  -0.092  0.00  0.00    +0.126 A 
ATOM     21  C   UNL     1       9.789   1.740  -0.084  0.00  0.00    +0.033 A 
ATOM     22  C   UNL     1       8.510   2.255  -0.069  0.00  0.00    +0.014 A 
ATOM     23  C   UNL     1       7.411   1.390  -0.063  0.00  0.00    +0.021 A 
BRANCH  20  24
ATOM     24  N   UNL     1      11.363  -0.174  -0.108  0.00  0.00    +0.056 N 
ATOM     25  O   UNL     1      12.318   0.583  -0.113  0.00  0.00    -0.126 OA
ATOM     26  O   UNL     1      11.541  -1.379  -0.116  0.00  0.00    -0.126 OA
ENDBRANCH  20  24
ENDBRANCH  16  23
ENDBRANCH  15  16
ENDBRANCH   1  15
TORSDOF 7
