REMARK  Name = ZINC02835792
REMARK  11 active torsions:
REMARK  status: ('A' for Active; 'I' for Inactive)
REMARK    1  A    between atoms: C_1  and  C_2
REMARK    2  A    between atoms: C_2  and  O_3
REMARK    3  A    between atoms: O_3  and  C_4
REMARK    4  A    between atoms: C_4  and  C_6
REMARK    5  A    between atoms: C_10  and  N_11
REMARK    6  A    between atoms: C_12  and  C_14
REMARK    7  A    between atoms: C_14  and  S_15
REMARK    8  A    between atoms: S_15  and  C_16
REMARK    9  A    between atoms: C_21  and  N_30
REMARK   10  A    between atoms: N_22  and  C_23
REMARK   11  A    between atoms: C_27  and  C_29
REMARK                            x       y       z     vdW  Elec       q    Type
REMARK                         _______ _______ _______ _____ _____    ______ ____
ROOT
ATOM      1  C   UNL     1      -1.331   2.079   0.020  0.00  0.00    +0.173 C 
ENDROOT
BRANCH   1   3
ATOM      2  N   UNL     1       0.002  -0.004   0.002  0.00  0.00    -0.279 N 
ATOM      3  C   UNL     1      -0.016   1.344   0.009  0.00  0.00    +0.228 C 
ATOM      4  O   UNL     1       1.026   1.964   0.003  0.00  0.00    -0.275 OA
ATOM      5  H   UNL     1      -0.831  -0.500   0.007  0.00  0.00    +0.155 HD
BRANCH   2  10
ATOM      6  C   UNL     1       1.433  -2.048  -0.017  0.00  0.00    +0.091 A 
ATOM      7  C   UNL     1       2.822  -2.509  -0.038  0.00  0.00    -0.021 A 
ATOM      8  C   UNL     1       3.747  -1.533  -0.042  0.00  0.00    -0.004 A 
ATOM      9  S   UNL     1       2.812  -0.022  -0.024  0.00  0.00    -0.077 S 
ATOM     10  C   UNL     1       1.212  -0.681  -0.013  0.00  0.00    +0.086 A 
ATOM     11  C   UNL     1       5.147  -2.083  -0.061  0.00  0.00    +0.043 C 
ATOM     12  C   UNL     1       4.982  -3.553  -0.506  0.00  0.00    +0.010 C 
ATOM     13  C   UNL     1       3.541  -3.858  -0.051  0.00  0.00    +0.037 C 
BRANCH   6  14
ATOM     14  C   UNL     1       0.319  -2.998  -0.005  0.00  0.00    +0.342 C 
ATOM     15  O   UNL     1      -0.156  -3.392  -1.053  0.00  0.00    -0.245 OA
BRANCH  14  16
ATOM     16  O   UNL     1      -0.181  -3.436   1.169  0.00  0.00    -0.461 OA
BRANCH  16  18
ATOM     17  C   UNL     1      -1.715  -4.756   2.523  0.00  0.00    +0.048 C 
ATOM     18  C   UNL     1      -1.286  -4.376   1.105  0.00  0.00    +0.229 C 
ENDBRANCH  16  18
ENDBRANCH  14  16
ENDBRANCH   6  14
ENDBRANCH   2  10
ENDBRANCH   1   3
BRANCH   1  19
ATOM     19  S   UNL     1      -1.025   3.863   0.028  0.00  0.00    -0.078 S 
BRANCH  19  20
ATOM     20  C   UNL     1      -2.683   4.458   0.039  0.00  0.00    +0.179 A 
ATOM     21  N   UNL     1      -3.679   3.598   0.034  0.00  0.00    -0.185 NA
ATOM     22  C   UNL     1      -4.954   4.017   0.046  0.00  0.00    +0.276 A 
ATOM     23  O   UNL     1      -5.868   3.205   0.046  0.00  0.00    -0.266 OA
ATOM     24  C   UNL     1      -5.237   5.398   0.055  0.00  0.00    +0.114 A 
ATOM     25  C   UNL     1      -4.198   6.284   0.056  0.00  0.00    +0.108 A 
ATOM     26  N   UNL     1      -2.913   5.804   0.047  0.00  0.00    -0.277 N 
BRANCH  26  27
ATOM     27  C   UNL     1      -1.833   6.697   0.048  0.00  0.00    +0.050 A 
ATOM     28  C   UNL     1      -1.620   7.530   1.139  0.00  0.00    +0.026 A 
ATOM     29  C   UNL     1      -0.552   8.405   1.138  0.00  0.00    +0.002 A 
ATOM     30  C   UNL     1       0.298   8.461   0.049  0.00  0.00    +0.003 A 
ATOM     31  C   UNL     1       0.086   7.637  -1.040  0.00  0.00    -0.048 A 
ATOM     32  C   UNL     1      -0.978   6.755  -1.044  0.00  0.00    +0.029 A 
ATOM     33  C   UNL     1       1.014   7.701  -2.226  0.00  0.00    +0.044 C 
ENDBRANCH  26  27
BRANCH  25  34
ATOM     34  N   UNL     1      -4.437   7.639   0.064  0.00  0.00    -0.344 N 
ATOM     35  H   UNL     1      -3.694   8.262   0.064  0.00  0.00    +0.144 HD
ATOM     36  H   UNL     1      -5.348   7.971   0.070  0.00  0.00    +0.144 HD
ENDBRANCH  25  34
ENDBRANCH  19  20
ENDBRANCH   1  19
TORSDOF 9
