REMARK  Name = ZINC32991054
REMARK  7 active torsions:
REMARK  status: ('A' for Active; 'I' for Inactive)
REMARK    1  A    between atoms: C_1  and  O_2
REMARK    2  A    between atoms: O_2  and  C_3
REMARK    3  A    between atoms: C_3  and  C_5
REMARK    4  A    between atoms: C_5  and  C_7
REMARK    5  A    between atoms: C_5  and  N_18
REMARK    6  A    between atoms: C_7  and  C_8
REMARK    7  A    between atoms: C_19  and  C_21
REMARK                            x       y       z     vdW  Elec       q    Type
REMARK                         _______ _______ _______ _____ _____    ______ ____
ROOT
ATOM      1  N   UNL     1       1.736   5.626  -1.965  0.00  0.00    -0.298 N 
ATOM      2  C   UNL     1       1.771   5.430  -3.299  0.00  0.00    +0.245 C 
ATOM      3  O   UNL     1       1.172   6.186  -4.040  0.00  0.00    -0.270 OA
ATOM      4  H   UNL     1       2.277   4.942  -1.295  0.00  0.00    +0.150 HD
ENDROOT
BRANCH   2   5
ATOM      5  C   UNL     1       2.534   4.299  -3.858  0.00  0.00    +0.039 A 
ATOM      6  C   UNL     1       3.227   3.434  -3.007  0.00  0.00    +0.014 A 
ATOM      7  C   UNL     1       3.937   2.373  -3.527  0.00  0.00    +0.017 A 
ATOM      8  C   UNL     1       3.972   2.173  -4.901  0.00  0.00    +0.029 A 
ATOM      9  C   UNL     1       3.287   3.036  -5.758  0.00  0.00    +0.048 A 
ATOM     10  C   UNL     1       2.570   4.097  -5.242  0.00  0.00    +0.037 A 
ATOM     11  N   UNL     1       3.333   2.813  -7.143  0.00  0.00    -0.285 N 
ATOM     12  C   UNL     1       3.056   1.602  -7.642  0.00  0.00    +0.218 C 
ATOM     13  O   UNL     1       3.286   1.373  -8.811  0.00  0.00    -0.275 OA
ATOM     14  C   UNL     1       2.467   0.522  -6.784  0.00  0.00    +0.107 C 
ATOM     15  C   UNL     1       3.580  -0.322  -6.140  0.00  0.00    +0.083 C 
ATOM     16  S   UNL     1       4.884   0.827  -5.586  0.00  0.00    -0.123 S 
ATOM     17  H   UNL     1       3.597   3.635  -7.825  0.00  0.00    +0.155 HD
ENDBRANCH   2   5
BRANCH   1  18
ATOM     18  C   UNL     1       0.978   6.749  -1.409  0.00  0.00    +0.186 C 
BRANCH  18  19
ATOM     19  C   UNL     1       1.834   7.989  -1.423  0.00  0.00    +0.328 C 
ATOM     20  O   UNL     1       2.962   7.940  -1.854  0.00  0.00    -0.249 OA
BRANCH  19  22
ATOM     21  C   UNL     1       2.224  10.302  -1.002  0.00  0.00    +0.280 C 
ATOM     22  O   UNL     1       1.343   9.149  -0.958  0.00  0.00    -0.467 OA
ENDBRANCH  19  22
ENDBRANCH  18  19
BRANCH  18  23
ATOM     23  C   UNL     1       0.571   6.427   0.030  0.00  0.00    +0.071 C 
BRANCH  23  24
ATOM     24  C   UNL     1      -0.384   5.261   0.033  0.00  0.00    -0.020 A 
ATOM     25  C   UNL     1      -1.724   5.326   0.046  0.00  0.00    +0.087 A 
ATOM     26  N   UNL     1      -2.254   4.064   0.045  0.00  0.00    -0.360 N 
ATOM     27  H   UNL     1      -3.345   3.926   0.055  0.00  0.00    +0.165 HD
ATOM     28  C   UNL     1      -1.240   3.132   0.031  0.00  0.00    +0.047 A 
ATOM     29  C   UNL     1      -0.025   3.840   0.022  0.00  0.00    +0.003 A 
ATOM     30  C   UNL     1       1.186   3.146   0.007  0.00  0.00    +0.010 A 
ATOM     31  C   UNL     1       1.184   1.779   0.000  0.00  0.00    +0.001 A 
ATOM     32  C   UNL     1      -0.013   1.076   0.008  0.00  0.00    +0.002 A 
ATOM     33  C   UNL     1      -1.219   1.742   0.017  0.00  0.00    +0.026 A 
ENDBRANCH  23  24
ENDBRANCH  18  23
ENDBRANCH   1  18
TORSDOF 6
