REMARK  Name = ZINC28175637
REMARK  13 active torsions:
REMARK  status: ('A' for Active; 'I' for Inactive)
REMARK    1  A    between atoms: C_1  and  C_2
REMARK    2  A    between atoms: C_2  and  O_3
REMARK    3  A    between atoms: O_3  and  C_4
REMARK    4  A    between atoms: C_4  and  C_6
REMARK    5  A    between atoms: C_7  and  C_31
REMARK    6  A    between atoms: C_8  and  C_26
REMARK    7  A    between atoms: C_10  and  N_11
REMARK    8  A    between atoms: C_12  and  C_14
REMARK    9  A    between atoms: C_14  and  C_16
REMARK   10  A    between atoms: C_14  and  N_17
REMARK   11  A    between atoms: C_26  and  O_28
REMARK   12  A    between atoms: O_28  and  C_29
REMARK   13  A    between atoms: C_29  and  C_30
REMARK                            x       y       z     vdW  Elec       q    Type
REMARK                         _______ _______ _______ _____ _____    ______ ____
ROOT
ATOM      1  C   UNL     1      -1.866  -2.292   0.028  0.00  0.00    +0.091 A 
ATOM      2  C   UNL     1      -1.713  -2.989  -1.161  0.00  0.00    -0.014 A 
ATOM      3  C   UNL     1      -1.214  -4.262  -1.091  0.00  0.00    +0.102 A 
ATOM      4  S   UNL     1      -0.956  -4.487   0.658  0.00  0.00    -0.066 S 
ATOM      5  C   UNL     1      -1.495  -2.936   1.213  0.00  0.00    +0.087 A 
ATOM      6  C   UNL     1      -2.083  -2.368  -2.483  0.00  0.00    +0.046 C 
ENDROOT
BRANCH   5   7
ATOM      7  N   UNL     1      -1.547  -2.455   2.507  0.00  0.00    -0.281 N 
ATOM      8  C   UNL     1      -1.141  -3.232   3.531  0.00  0.00    +0.204 C 
ATOM      9  O   UNL     1      -0.731  -4.353   3.317  0.00  0.00    -0.277 OA
ATOM     10  H   UNL     1      -1.919  -1.439   2.701  0.00  0.00    +0.155 HD
BRANCH   8  11
ATOM     11  C   UNL     1      -1.198  -2.707   4.942  0.00  0.00    +0.017 C 
ATOM     12  C   UNL     1       0.095  -1.951   5.258  0.00  0.00    -0.004 C 
BRANCH  11  13
ATOM     13  N   UNL     1      -1.349  -3.830   5.877  0.00  0.00    +0.390 N 
ATOM     14  C   UNL     1      -2.627  -4.523   5.665  0.00  0.00    -0.072 C 
ATOM     15  C   UNL     1      -2.565  -5.899   6.351  0.00  0.00    +0.024 C 
ATOM     16  C   UNL     1      -2.007  -5.699   7.722  0.00  0.00    -0.011 A 
ATOM     17  C   UNL     1      -1.377  -4.584   8.189  0.00  0.00    -0.054 A 
ATOM     18  C   UNL     1      -0.940  -4.625   9.511  0.00  0.00    +0.009 A 
ATOM     19  C   UNL     1      -1.148  -5.734  10.259  0.00  0.00    +0.045 A 
ATOM     20  S   UNL     1      -1.994  -6.804   9.104  0.00  0.00    -0.101 S 
ATOM     21  C   UNL     1      -1.187  -3.384   7.266  0.00  0.00    -0.041 C 
ATOM     22  H   UNL     1      -0.548  -4.557   5.675  0.00  0.00    -0.080 HD
ENDBRANCH  11  13
ENDBRANCH   8  11
ENDBRANCH   5   7
BRANCH   1  23
ATOM     23  C   UNL     1      -2.394  -0.923   0.042  0.00  0.00    +0.342 C 
ATOM     24  O   UNL     1      -3.591  -0.734   0.143  0.00  0.00    -0.245 OA
BRANCH  23  25
ATOM     25  O   UNL     1      -1.552   0.125  -0.058  0.00  0.00    -0.461 OA
BRANCH  25  27
ATOM     26  C   UNL     1      -1.041   2.504  -0.160  0.00  0.00    +0.048 C 
ATOM     27  C   UNL     1      -2.144   1.451  -0.037  0.00  0.00    +0.229 C 
ENDBRANCH  25  27
ENDBRANCH  23  25
ENDBRANCH   1  23
BRANCH   3  28
ATOM     28  C   UNL     1      -0.957  -5.203  -2.181  0.00  0.00    +0.346 C 
ATOM     29  O   UNL     1      -1.193  -4.882  -3.330  0.00  0.00    -0.244 OA
BRANCH  28  30
ATOM     30  O   UNL     1      -0.457  -6.427  -1.911  0.00  0.00    -0.461 OA
BRANCH  30  31
ATOM     31  C   UNL     1      -0.230  -7.295  -3.024  0.00  0.00    +0.229 C 
ATOM     32  C   UNL     1       0.333  -8.627  -2.526  0.00  0.00    +0.048 C 
ENDBRANCH  30  31
ENDBRANCH  28  30
ENDBRANCH   3  28
TORSDOF 9
