REMARK  Name = ZINC09783908
REMARK  15 active torsions:
REMARK  status: ('A' for Active; 'I' for Inactive)
REMARK    1  A    between atoms: C_1  and  C_2
REMARK    2  A    between atoms: C_2  and  C_3
REMARK    3  A    between atoms: C_3  and  C_5
REMARK    4  A    between atoms: C_3  and  O_6
REMARK    5  A    between atoms: O_6  and  C_7
REMARK    6  A    between atoms: C_7  and  C_9
REMARK    7  A    between atoms: C_9  and  C_10
REMARK    8  A    between atoms: N_17  and  C_18
REMARK    9  A    between atoms: C_18  and  N_20
REMARK   10  A    between atoms: C_21  and  C_23
REMARK   11  A    between atoms: C_28  and  O_29
REMARK   12  A    between atoms: O_29  and  C_30
REMARK   13  A    between atoms: C_30  and  C_31
REMARK   14  A    between atoms: C_31  and  C_32
REMARK   15  A    between atoms: C_31  and  C_33
REMARK                            x       y       z     vdW  Elec       q    Type
REMARK                         _______ _______ _______ _____ _____    ______ ____
ROOT
ATOM      1  C   UNL     1      -4.864   4.310   0.058  0.00  0.00    +0.140 C 
ATOM      2  S   UNL     1      -3.493   3.294  -0.082  0.00  0.00    -0.018 S 
ENDROOT
BRANCH   1   9
ATOM      3  C   UNL     1      -7.300   4.608   0.195  0.00  0.00    +0.171 C 
ATOM      4  C   UNL     1      -8.227   4.120   1.275  0.00  0.00    +0.234 C 
ATOM      5  O   UNL     1      -9.166   4.819   1.591  0.00  0.00    -0.274 OA
ATOM      6  N   UNL     1      -8.064   2.953   1.900  0.00  0.00    -0.312 N 
ATOM      7  C   UNL     1      -6.939   2.053   1.691  0.00  0.00    +0.123 C 
ATOM      8  C   UNL     1      -6.278   2.316   0.331  0.00  0.00    +0.126 C 
ATOM      9  N   UNL     1      -6.091   3.770   0.191  0.00  0.00    -0.299 N 
ATOM     10  H   UNL     1      -8.743   2.685   2.539  0.00  0.00    +0.149 HD
BRANCH   3  11
ATOM     11  C   UNL     1      -7.997   4.509  -1.163  0.00  0.00    +0.152 C 
BRANCH  11  12
ATOM     12  C   UNL     1      -7.122   5.125  -2.224  0.00  0.00    +0.310 C 
ATOM     13  O   UNL     1      -6.110   5.705  -1.909  0.00  0.00    -0.251 OA
BRANCH  12  14
ATOM     14  O   UNL     1      -7.465   5.028  -3.517  0.00  0.00    -0.462 OA
BRANCH  14  15
ATOM     15  C   UNL     1      -6.575   5.644  -4.484  0.00  0.00    +0.173 C 
ATOM     16  C   UNL     1      -5.522   4.628  -4.928  0.00  0.00    +0.052 C 
BRANCH  15  18
ATOM     17  C   UNL     1      -8.350   7.214  -5.277  0.00  0.00    +0.007 C 
ATOM     18  C   UNL     1      -7.382   6.107  -5.699  0.00  0.00    +0.041 C 
ENDBRANCH  15  18
ENDBRANCH  14  15
ENDBRANCH  12  14
ENDBRANCH  11  12
ENDBRANCH   3  11
ENDBRANCH   1   9
BRANCH   1  19
ATOM     19  N   UNL     1      -4.716   5.649   0.035  0.00  0.00    -0.264 N 
ATOM     20  C   UNL     1      -3.482   6.190   0.008  0.00  0.00    +0.253 C 
ATOM     21  O   UNL     1      -2.502   5.470   0.003  0.00  0.00    -0.270 OA
ATOM     22  H   UNL     1      -5.497   6.224   0.038  0.00  0.00    +0.157 HD
BRANCH  20  23
ATOM     23  C   UNL     1      -3.320   7.656  -0.017  0.00  0.00    +0.080 A 
ATOM     24  C   UNL     1      -4.443   8.487  -0.008  0.00  0.00    +0.032 A 
ATOM     25  C   UNL     1      -4.285   9.856  -0.037  0.00  0.00    +0.019 A 
ATOM     26  C   UNL     1      -3.015  10.413  -0.065  0.00  0.00    +0.019 A 
ATOM     27  C   UNL     1      -1.897   9.602  -0.070  0.00  0.00    +0.047 A 
ATOM     28  C   UNL     1      -2.038   8.223  -0.046  0.00  0.00    +0.133 A 
ATOM     29 BR   UNL     1      -5.805  10.980  -0.032  0.00  0.00    -0.050 Br
BRANCH  28  30
ATOM     30  O   UNL     1      -0.941   7.426  -0.051  0.00  0.00    -0.491 OA
BRANCH  30  31
ATOM     31  C   UNL     1       0.332   8.075  -0.081  0.00  0.00    +0.232 C 
BRANCH  31  32
ATOM     32  C   UNL     1       1.442   7.021  -0.082  0.00  0.00    +0.020 C 
ATOM     33  C   UNL     1       2.799   7.710  -0.240  0.00  0.00    +0.010 C 
ATOM     34  C   UNL     1       1.413   6.248   1.238  0.00  0.00    +0.010 C 
ENDBRANCH  31  32
ENDBRANCH  30  31
ENDBRANCH  28  30
ENDBRANCH  20  23
ENDBRANCH   1  19
TORSDOF 11
