REMARK  Name = ZINC03158286
REMARK  12 active torsions:
REMARK  status: ('A' for Active; 'I' for Inactive)
REMARK    1  A    between atoms: C_1  and  C_2
REMARK    2  A    between atoms: C_2  and  O_3
REMARK    3  A    between atoms: O_3  and  C_4
REMARK    4  A    between atoms: C_4  and  C_6
REMARK    5  A    between atoms: C_6  and  C_7
REMARK    6  A    between atoms: C_6  and  C_25
REMARK    7  A    between atoms: C_6  and  O_29
REMARK    8  A    between atoms: C_10  and  N_13
REMARK    9  A    between atoms: N_13  and  C_14
REMARK   10  A    between atoms: N_13  and  S_15
REMARK   11  A    between atoms: S_15  and  C_18
REMARK   12  A    between atoms: C_21  and  C_24
REMARK                            x       y       z     vdW  Elec       q    Type
REMARK                         _______ _______ _______ _____ _____    ______ ____
ROOT
ATOM      1  C   UNL     1       2.341   4.421  -1.448  0.00  0.00    +0.004 A 
ATOM      2  C   UNL     1       0.982   4.655  -1.552  0.00  0.00    +0.009 A 
ATOM      3  C   UNL     1       0.081   3.719  -1.084  0.00  0.00    +0.025 A 
ATOM      4  C   UNL     1       0.541   2.541  -0.508  0.00  0.00    +0.051 A 
ATOM      5  C   UNL     1       1.907   2.312  -0.401  0.00  0.00    +0.025 A 
ATOM      6  C   UNL     1       2.802   3.250  -0.875  0.00  0.00    +0.009 A 
ENDROOT
BRANCH   4   7
ATOM      7  N   UNL     1      -0.368   1.593  -0.034  0.00  0.00    -0.206 N 
ATOM      8  C   UNL     1      -1.499   2.013   0.797  0.00  0.00    +0.157 C 
BRANCH   7   9
ATOM      9  S   UNL     1      -0.171  -0.006  -0.416  0.00  0.00    +0.074 S 
ATOM     10  O   UNL     1      -1.473  -0.542  -0.606  0.00  0.00    -0.150 OA
ATOM     11  O   UNL     1       0.831  -0.063  -1.423  0.00  0.00    -0.150 OA
BRANCH   9  12
ATOM     12  C   UNL     1       0.499  -0.803   1.006  0.00  0.00    +0.109 A 
ATOM     13  C   UNL     1       1.860  -1.026   1.096  0.00  0.00    +0.029 A 
ATOM     14  C   UNL     1       2.386  -1.647   2.214  0.00  0.00    +0.005 A 
ATOM     15  C   UNL     1       1.549  -2.054   3.236  0.00  0.00    -0.050 A 
ATOM     16  C   UNL     1       0.187  -1.836   3.144  0.00  0.00    +0.005 A 
ATOM     17  C   UNL     1      -0.338  -1.211   2.028  0.00  0.00    +0.029 A 
ATOM     18  C   UNL     1       2.122  -2.736   4.452  0.00  0.00    +0.044 C 
ENDBRANCH   9  12
ENDBRANCH   7   9
ENDBRANCH   4   7
BRANCH   1  19
ATOM     19  C   UNL     1       3.322   5.445  -1.959  0.00  0.00    +0.283 C 
BRANCH  19  20
ATOM     20  C   UNL     1       3.097   5.663  -3.457  0.00  0.00    +0.433 C 
ATOM     21  F   UNL     1       1.839   6.241  -3.660  0.00  0.00    -0.167 F 
ATOM     22  F   UNL     1       4.088   6.514  -3.958  0.00  0.00    -0.167 F 
ATOM     23  F   UNL     1       3.158   4.433  -4.122  0.00  0.00    -0.167 F 
ENDBRANCH  19  20
BRANCH  19  24
ATOM     24  C   UNL     1       3.118   6.745  -1.226  0.00  0.00    +0.353 C 
ATOM     25  O   UNL     1       2.044   7.000  -0.735  0.00  0.00    -0.247 OA
BRANCH  24  26
ATOM     26  O   UNL     1       4.129   7.622  -1.119  0.00  0.00    -0.462 OA
BRANCH  26  28
ATOM     27  C   UNL     1       5.122   9.719  -0.383  0.00  0.00    +0.048 C 
ATOM     28  C   UNL     1       3.861   8.854  -0.400  0.00  0.00    +0.229 C 
ENDBRANCH  26  28
ENDBRANCH  24  26
ENDBRANCH  19  24
BRANCH  19  29
ATOM     29  O   UNL     1       4.655   4.979  -1.740  0.00  0.00    -0.367 OA
ATOM     30  H   UNL     1       4.868   4.819  -0.811  0.00  0.00    +0.212 HD
ENDBRANCH  19  29
ENDBRANCH   1  19
TORSDOF 9
