REMARK  Name = ZINC65963117
REMARK  6 active torsions:
REMARK  status: ('A' for Active; 'I' for Inactive)
REMARK    1  A    between atoms: C_1  and  N_2
REMARK    2  A    between atoms: C_6  and  C_8
REMARK    3  A    between atoms: C_8  and  C_9
REMARK    4  A    between atoms: C_9  and  N_10
REMARK    5  A    between atoms: C_13  and  N_16
REMARK    6  A    between atoms: C_17  and  C_19
REMARK                            x       y       z     vdW  Elec       q    Type
REMARK                         _______ _______ _______ _____ _____    ______ ____
ROOT
ATOM      1  N   UNL     1      -3.691  -6.236   0.004  0.00  0.00    +0.380 N 
ATOM      2  C   UNL     1      -3.079  -6.723   1.246  0.00  0.00    -0.077 C 
ATOM      3  C   UNL     1      -2.982  -8.249   1.208  0.00  0.00    +0.003 C 
ATOM      4  C   UNL     1      -4.387  -8.841   1.063  0.00  0.00    +0.069 C 
ATOM      5  C   UNL     1      -5.043  -8.270  -0.197  0.00  0.00    +0.003 C 
ATOM      6  C   UNL     1      -5.064  -6.742  -0.106  0.00  0.00    -0.077 C 
ATOM      7  H   UNL     1      -3.150  -6.560  -0.784  0.00  0.00    -0.082 HD
ENDROOT
BRANCH   4   8
ATOM      8  N   UNL     1      -4.295 -10.299   0.949  0.00  0.00    -0.312 N 
ATOM      9  C   UNL     1      -5.339 -11.070   1.310  0.00  0.00    +0.216 C 
ATOM     10  O   UNL     1      -6.356 -10.557   1.729  0.00  0.00    -0.276 OA
ATOM     11  H   UNL     1      -3.482 -10.709   0.614  0.00  0.00    +0.149 HD
BRANCH   9  12
ATOM     12  C   UNL     1      -5.245 -12.570   1.193  0.00  0.00    +0.075 C 
ATOM     13  C   UNL     1      -4.093 -13.078   2.062  0.00  0.00    +0.013 C 
ATOM     14  C   UNL     1      -3.997 -14.600   1.943  0.00  0.00    +0.001 C 
ATOM     15  C   UNL     1      -5.308 -15.232   2.415  0.00  0.00    +0.000 C 
ATOM     16  C   UNL     1      -6.460 -14.724   1.546  0.00  0.00    +0.001 C 
ATOM     17  C   UNL     1      -6.556 -13.202   1.664  0.00  0.00    +0.013 C 
ENDBRANCH   9  12
ENDBRANCH   4   8
BRANCH   1  18
ATOM     18  C   UNL     1      -3.710  -4.768   0.012  0.00  0.00    -0.070 C 
BRANCH  18  19
ATOM     19  C   UNL     1      -2.275  -4.238   0.001  0.00  0.00    +0.078 C 
BRANCH  19  25
ATOM     20  C   UNL     1      -0.018   1.461   0.010  0.00  0.00    +0.129 C 
ATOM     21  N   UNL     1       0.002  -0.004   0.002  0.00  0.00    -0.302 N 
ATOM     22  C   UNL     1      -1.156  -0.694   0.009  0.00  0.00    +0.306 C 
ATOM     23  O   UNL     1      -2.216  -0.101   0.023  0.00  0.00    -0.252 OA
ATOM     24  N   UNL     1      -1.137  -2.041   0.002  0.00  0.00    -0.240 N 
ATOM     25  C   UNL     1      -2.295  -2.731   0.009  0.00  0.00    +0.219 C 
ATOM     26  O   UNL     1      -3.353  -2.139   0.023  0.00  0.00    -0.275 OA
ATOM     27  H   UNL     1       0.849  -0.478  -0.009  0.00  0.00    +0.150 HD
ATOM     28  H   UNL     1      -0.291  -2.515  -0.009  0.00  0.00    +0.159 HD
ENDBRANCH  19  25
ENDBRANCH  18  19
ENDBRANCH   1  18
TORSDOF 5
