REMARK  Name = ZINC58918534
REMARK  8 active torsions:
REMARK  status: ('A' for Active; 'I' for Inactive)
REMARK    1  A    between atoms: C_1  and  C_2
REMARK    2  A    between atoms: C_5  and  N_9
REMARK    3  A    between atoms: N_9  and  C_10
REMARK    4  A    between atoms: N_9  and  S_26
REMARK    5  A    between atoms: C_10  and  C_11
REMARK    6  A    between atoms: N_13  and  N_14
REMARK    7  A    between atoms: C_15  and  C_16
REMARK    8  A    between atoms: S_26  and  C_29
REMARK                            x       y       z     vdW  Elec       q    Type
REMARK                         _______ _______ _______ _____ _____    ______ ____
ROOT
ATOM      1  N   UNL     1       0.059  -4.168  -0.022  0.00  0.00    -0.194 N 
ENDROOT
BRANCH   1   6
ATOM      2  C   UNL     1       0.025   1.503   0.028  0.00  0.00    +0.045 C 
ATOM      3  C   UNL     1       0.034  -0.004   0.015  0.00  0.00    -0.032 A 
ATOM      4  C   UNL     1      -0.738  -0.691  -0.904  0.00  0.00    +0.006 A 
ATOM      5  C   UNL     1      -0.732  -2.071  -0.919  0.00  0.00    +0.025 A 
ATOM      6  C   UNL     1       0.051  -2.772  -0.009  0.00  0.00    +0.053 A 
ATOM      7  C   UNL     1       0.826  -2.080   0.912  0.00  0.00    +0.045 A 
ATOM      8  C   UNL     1       0.819  -0.697   0.919  0.00  0.00    +0.046 A 
ATOM      9 CL   UNL     1       1.792   0.169   2.066  0.00  0.00    -0.083 Cl
ENDBRANCH   1   6
BRANCH   1  10
ATOM     10  S   UNL     1      -0.414  -5.011   1.323  0.00  0.00    +0.075 S 
ATOM     11  O   UNL     1       0.304  -6.237   1.307  0.00  0.00    -0.150 OA
ATOM     12  O   UNL     1      -0.347  -4.104   2.415  0.00  0.00    -0.150 OA
BRANCH  10  13
ATOM     13  C   UNL     1      -2.115  -5.420   1.111  0.00  0.00    +0.109 A 
ATOM     14  C   UNL     1      -3.095  -4.552   1.556  0.00  0.00    +0.029 A 
ATOM     15  C   UNL     1      -4.429  -4.872   1.389  0.00  0.00    +0.002 A 
ATOM     16  C   UNL     1      -4.783  -6.061   0.778  0.00  0.00    +0.000 A 
ATOM     17  C   UNL     1      -3.803  -6.928   0.333  0.00  0.00    +0.002 A 
ATOM     18  C   UNL     1      -2.469  -6.605   0.495  0.00  0.00    +0.029 A 
ENDBRANCH  10  13
ENDBRANCH   1  10
BRANCH   1  19
ATOM     19  C   UNL     1       0.484  -4.888  -1.225  0.00  0.00    +0.228 C 
BRANCH  19  20
ATOM     20  C   UNL     1       1.985  -5.024  -1.224  0.00  0.00    +0.251 C 
ATOM     21  O   UNL     1       2.635  -4.564  -0.309  0.00  0.00    -0.272 OA
ATOM     22  N   UNL     1       2.605  -5.655  -2.241  0.00  0.00    -0.206 N 
ATOM     23  H   UNL     1       2.085  -6.022  -2.973  0.00  0.00    +0.177 HD
BRANCH  22  24
ATOM     24  N   UNL     1       4.000  -5.781  -2.240  0.00  0.00    -0.188 NA
ATOM     25  C   UNL     1       4.597  -6.389  -3.219  0.00  0.00    +0.142 C 
BRANCH  25  26
ATOM     26  C   UNL     1       6.065  -6.522  -3.219  0.00  0.00    +0.040 A 
ATOM     27  C   UNL     1       6.711  -7.172  -4.274  0.00  0.00    +0.013 A 
ATOM     28  C   UNL     1       8.085  -7.293  -4.269  0.00  0.00    +0.004 A 
ATOM     29  C   UNL     1       8.828  -6.777  -3.223  0.00  0.00    +0.049 A 
ATOM     30  C   UNL     1       8.200  -6.130  -2.168  0.00  0.00    +0.163 A 
ATOM     31  C   UNL     1       6.819  -5.993  -2.163  0.00  0.00    +0.171 A 
ATOM     32  O   UNL     1       6.185  -5.352  -1.145  0.00  0.00    -0.484 OA
ATOM     33  C   UNL     1       6.930  -5.169   0.064  0.00  0.00    +0.270 C 
ATOM     34  C   UNL     1       8.327  -4.653  -0.307  0.00  0.00    +0.270 C 
ATOM     35  O   UNL     1       8.952  -5.633  -1.147  0.00  0.00    -0.485 OA
ENDBRANCH  25  26
ENDBRANCH  22  24
ENDBRANCH  19  20
ENDBRANCH   1  19
TORSDOF 7
