REMARK  Name = ZINC21878596
REMARK  9 active torsions:
REMARK  status: ('A' for Active; 'I' for Inactive)
REMARK    1  A    between atoms: C_1  and  C_2
REMARK    2  A    between atoms: C_2  and  O_3
REMARK    3  A    between atoms: O_3  and  C_4
REMARK    4  A    between atoms: C_4  and  C_6
REMARK    5  A    between atoms: C_12  and  C_24
REMARK    6  A    between atoms: C_12  and  C_25
REMARK    7  A    between atoms: N_13  and  C_16
REMARK    8  A    between atoms: C_21  and  C_22
REMARK    9  A    between atoms: N_27  and  C_28
REMARK                            x       y       z     vdW  Elec       q    Type
REMARK                         _______ _______ _______ _____ _____    ______ ____
ROOT
ATOM      1  C   UNL     1       5.295   4.828  -8.704  0.00  0.00    +0.170 A 
ATOM      2  C   UNL     1       6.082   3.963  -7.909  0.00  0.00    +0.069 A 
ATOM      3  C   UNL     1       5.230   3.459  -6.986  0.00  0.00    +0.125 A 
ATOM      4  N   UNL     1       3.991   4.017  -7.218  0.00  0.00    -0.256 N 
ATOM      5  N   UNL     1       4.061   4.798  -8.226  0.00  0.00    -0.164 NA
ATOM      6  C   UNL     1       2.840   3.694  -6.365  0.00  0.00    +0.179 C 
ATOM      7  C   UNL     1       2.996   2.275  -5.823  0.00  0.00    +0.135 C 
ATOM      8  N   UNL     1       4.328   2.026  -5.283  0.00  0.00    -0.250 N 
ATOM      9  C   UNL     1       5.441   2.489  -5.899  0.00  0.00    +0.270 C 
ATOM     10  O   UNL     1       6.555   2.124  -5.572  0.00  0.00    -0.268 OA
ATOM     11  C   UNL     1       2.727   1.281  -6.954  0.00  0.00    +0.044 C 
ENDROOT
BRANCH   8  12
ATOM     12  C   UNL     1       4.459   1.289  -4.101  0.00  0.00    +0.041 A 
ATOM     13  C   UNL     1       4.547  -0.097  -4.151  0.00  0.00    +0.025 A 
ATOM     14  C   UNL     1       4.677  -0.822  -2.983  0.00  0.00    +0.022 A 
ATOM     15  C   UNL     1       4.719  -0.169  -1.764  0.00  0.00    +0.041 A 
ATOM     16  C   UNL     1       4.631   1.210  -1.711  0.00  0.00    +0.025 A 
ATOM     17  C   UNL     1       4.507   1.941  -2.876  0.00  0.00    -0.028 A 
ATOM     18  C   UNL     1       4.418   3.444  -2.818  0.00  0.00    +0.046 C 
ATOM     19 CL   UNL     1       4.882  -1.084  -0.297  0.00  0.00    -0.084 Cl
ENDBRANCH   8  12
BRANCH   7  20
ATOM     20  C   UNL     1       1.980   2.056  -4.732  0.00  0.00    +0.239 C 
ATOM     21  O   UNL     1       1.462   3.007  -4.185  0.00  0.00    -0.273 OA
ATOM     22  N   UNL     1       1.646   0.804  -4.363  0.00  0.00    -0.311 N 
ATOM     23  H   UNL     1       2.061  -0.059  -4.905  0.00  0.00    +0.149 HD
BRANCH  22  24
ATOM     24  C   UNL     1       0.730   0.590  -3.239  0.00  0.00    +0.073 C 
ATOM     25  C   UNL     1       1.525   0.686  -1.923  0.00  0.00    +0.022 C 
ATOM     26  C   UNL     1       0.778   0.066  -0.727  0.00  0.00    +0.002 C 
ATOM     27  C   UNL     1      -0.688   0.407  -0.725  0.00  0.00    +0.000 C 
ATOM     28  C   UNL     1      -1.457  -0.730  -1.427  0.00  0.00    +0.000 C 
ATOM     29  C   UNL     1      -1.389  -0.632  -2.878  0.00  0.00    +0.002 C 
ATOM     30  C   UNL     1       0.055  -0.744  -3.408  0.00  0.00    +0.022 C 
ENDBRANCH  22  24
ENDBRANCH   7  20
BRANCH   1  31
ATOM     31  C   UNL     1       5.764   5.622  -9.857  0.00  0.00    +0.359 C 
ATOM     32  O   UNL     1       6.928   5.564 -10.200  0.00  0.00    -0.243 OA
BRANCH  31  33
ATOM     33  O   UNL     1       4.902   6.410 -10.528  0.00  0.00    -0.460 OA
BRANCH  33  35
ATOM     34  C   UNL     1       4.314   7.992 -12.283  0.00  0.00    +0.048 C 
ATOM     35  C   UNL     1       5.433   7.162 -11.651  0.00  0.00    +0.229 C 
ENDBRANCH  33  35
ENDBRANCH  31  33
ENDBRANCH   1  31
TORSDOF 6
