REMARK  Name = ZINC38146958
REMARK  11 active torsions:
REMARK  status: ('A' for Active; 'I' for Inactive)
REMARK    1  A    between atoms: C_1  and  C_2
REMARK    2  A    between atoms: C_7  and  C_38
REMARK    3  A    between atoms: N_9  and  C_10
REMARK    4  A    between atoms: C_10  and  C_11
REMARK    5  A    between atoms: C_11  and  C_12
REMARK    6  A    between atoms: C_12  and  N_13
REMARK    7  A    between atoms: C_14  and  C_16
REMARK    8  A    between atoms: C_16  and  N_17
REMARK    9  A    between atoms: C_20  and  S_28
REMARK   10  A    between atoms: S_28  and  N_31
REMARK   11  A    between atoms: C_34  and  C_37
REMARK                            x       y       z     vdW  Elec       q    Type
REMARK                         _______ _______ _______ _____ _____    ______ ____
ROOT
ATOM      1  N   UNL     1       8.138   0.475   5.344  0.00  0.00    -0.256 N 
ATOM      2  C   UNL     1       9.223  -0.236   4.812  0.00  0.00    +0.081 A 
ATOM      3  C   UNL     1       9.017  -1.322   3.978  0.00  0.00    +0.055 A 
ATOM      4  C   UNL     1      10.101  -2.010   3.465  0.00  0.00    +0.107 A 
ATOM      5  C   UNL     1      11.389  -1.616   3.782  0.00  0.00    +0.032 A 
ATOM      6  C   UNL     1      11.601  -0.532   4.613  0.00  0.00    +0.049 A 
ATOM      7  C   UNL     1      10.521   0.162   5.130  0.00  0.00    +0.143 A 
ATOM      8  O   UNL     1      10.711   1.233   5.947  0.00  0.00    -0.481 OA
ATOM      9  C   UNL     1       9.743   2.283   5.866  0.00  0.00    +0.325 C 
ATOM     10  C   UNL     1       8.354   1.697   5.877  0.00  0.00    +0.258 C 
ATOM     11  O   UNL     1       7.435   2.320   6.367  0.00  0.00    -0.271 OA
ENDROOT
BRANCH   4  12
ATOM     12  S   UNL     1       9.842  -3.393   2.405  0.00  0.00    +0.061 S 
ATOM     13  O   UNL     1      11.009  -4.199   2.496  0.00  0.00    -0.153 OA
ATOM     14  O   UNL     1       8.546  -3.894   2.700  0.00  0.00    -0.153 OA
BRANCH  12  15
ATOM     15  N   UNL     1       9.785  -2.817   0.853  0.00  0.00    -0.177 NA
ATOM     16  C   UNL     1       8.509  -2.396   0.258  0.00  0.00    +0.110 C 
ATOM     17  C   UNL     1       8.316  -3.136  -1.069  0.00  0.00    +0.020 C 
ATOM     18  C   UNL     1       9.536  -2.900  -1.963  0.00  0.00    -0.012 C 
ATOM     19  C   UNL     1      10.787  -3.454  -1.278  0.00  0.00    +0.020 C 
ATOM     20  C   UNL     1      11.009  -2.711   0.048  0.00  0.00    +0.110 C 
ATOM     21  C   UNL     1       9.331  -3.609  -3.303  0.00  0.00    +0.007 C 
ENDBRANCH  12  15
ENDBRANCH   4  12
BRANCH   1  22
ATOM     22  C   UNL     1       6.789  -0.096   5.316  0.00  0.00    +0.209 C 
BRANCH  22  24
ATOM     23  N   UNL     1       4.842  -0.112   3.791  0.00  0.00    -0.314 N 
ATOM     24  C   UNL     1       6.101   0.302   4.036  0.00  0.00    +0.231 C 
ATOM     25  O   UNL     1       6.680   0.995   3.227  0.00  0.00    -0.274 OA
ATOM     26  H   UNL     1       4.379  -0.666   4.439  0.00  0.00    +0.149 HD
BRANCH  23  27
ATOM     27  C   UNL     1       4.173   0.276   2.547  0.00  0.00    +0.102 C 
BRANCH  27  28
ATOM     28  C   UNL     1       2.764  -0.321   2.518  0.00  0.00    +0.000 C 
BRANCH  28  29
ATOM     29  C   UNL     1       2.066   0.083   1.218  0.00  0.00    -0.077 C 
BRANCH  29  36
ATOM     30  C   UNL     1      -0.019   1.526   0.010  0.00  0.00    -0.013 C 
ATOM     31  C   UNL     1       0.002  -0.004   0.002  0.00  0.00    -0.071 C 
ATOM     32  C   UNL     1      -1.434  -0.533   0.011  0.00  0.00    -0.016 C 
ATOM     33  C   UNL     1      -1.408  -2.064   0.003  0.00  0.00    -0.003 C 
ATOM     34  C   UNL     1      -0.600  -2.558   1.206  0.00  0.00    -0.016 C 
ATOM     35  C   UNL     1       0.805  -1.954   1.152  0.00  0.00    -0.071 C 
ATOM     36  N   UNL     1       0.713  -0.490   1.191  0.00  0.00    +0.383 N 
ATOM     37  C   UNL     1       1.497  -2.387  -0.142  0.00  0.00    -0.013 C 
ATOM     38  H   UNL     1       0.213  -0.206   2.020  0.00  0.00    -0.081 HD
ENDBRANCH  29  36
ENDBRANCH  28  29
ENDBRANCH  27  28
ENDBRANCH  23  27
ENDBRANCH  22  24
ENDBRANCH   1  22
TORSDOF 8
