REMARK  Name = ZINC39879216
REMARK  6 active torsions:
REMARK  status: ('A' for Active; 'I' for Inactive)
REMARK    1  A    between atoms: C_1  and  C_2
REMARK    2  A    between atoms: N_15  and  C_27
REMARK    3  A    between atoms: C_16  and  C_18
REMARK    4  A    between atoms: C_21  and  O_26
REMARK    5  A    between atoms: C_22  and  O_24
REMARK    6  A    between atoms: O_24  and  C_25
REMARK                            x       y       z     vdW  Elec       q    Type
REMARK                         _______ _______ _______ _____ _____    ______ ____
ROOT
ATOM      1  C   UNL     1      -0.018   1.503   0.010  0.00  0.00    +0.044 C 
ATOM      2  C   UNL     1       0.002  -0.004   0.002  0.00  0.00    -0.050 A 
ATOM      3  C   UNL     1       0.006  -0.689  -1.205  0.00  0.00    +0.007 A 
ATOM      4  C   UNL     1       0.021  -2.065  -1.235  0.00  0.00    +0.047 A 
ATOM      5  C   UNL     1       0.033  -2.790  -0.043  0.00  0.00    +0.139 A 
ATOM      6  C   UNL     1       0.036  -2.086   1.172  0.00  0.00    +0.065 A 
ATOM      7  C   UNL     1       0.023  -0.692   1.183  0.00  0.00    +0.018 A 
ATOM      8  C   UNL     1       0.066  -2.849   2.446  0.00  0.00    +0.199 A 
ATOM      9  O   UNL     1      -0.099  -2.332   3.537  0.00  0.00    -0.287 OA
ATOM     10  C   UNL     1       0.311  -4.283   2.265  0.00  0.00    +0.072 A 
ATOM     11  C   UNL     1       0.291  -4.850   1.023  0.00  0.00    +0.199 A 
ATOM     12  O   UNL     1       0.041  -4.142  -0.096  0.00  0.00    -0.450 OA
ATOM     13  C   UNL     1       0.578  -6.288   1.166  0.00  0.00    +0.287 C 
ATOM     14  O   UNL     1       0.639  -7.080   0.247  0.00  0.00    -0.266 OA
ATOM     15  N   UNL     1       0.766  -6.596   2.466  0.00  0.00    -0.253 N 
ATOM     16  C   UNL     1       0.610  -5.362   3.254  0.00  0.00    +0.150 C 
ENDROOT
BRANCH  15  17
ATOM     17  C   UNL     1       1.057  -7.865   2.975  0.00  0.00    +0.038 A 
ATOM     18  C   UNL     1       1.220  -8.045   4.343  0.00  0.00    +0.024 A 
ATOM     19  C   UNL     1       1.508  -9.299   4.843  0.00  0.00    +0.017 A 
ATOM     20  C   UNL     1       1.633 -10.377   3.983  0.00  0.00    +0.018 A 
ATOM     21  C   UNL     1       1.472 -10.200   2.621  0.00  0.00    +0.017 A 
ATOM     22  C   UNL     1       1.178  -8.949   2.115  0.00  0.00    +0.024 A 
ATOM     23 BR   UNL     1       2.028 -12.093   4.673  0.00  0.00    -0.050 Br
ENDBRANCH  15  17
BRANCH  16  24
ATOM     24  C   UNL     1       1.887  -5.052   3.991  0.00  0.00    -0.018 A 
ATOM     25  C   UNL     1       3.108  -5.282   3.384  0.00  0.00    +0.009 A 
ATOM     26  C   UNL     1       4.282  -5.000   4.057  0.00  0.00    +0.049 A 
ATOM     27  C   UNL     1       4.237  -4.484   5.342  0.00  0.00    +0.158 A 
ATOM     28  C   UNL     1       3.008  -4.252   5.953  0.00  0.00    +0.162 A 
ATOM     29  C   UNL     1       1.835  -4.533   5.271  0.00  0.00    +0.055 A 
BRANCH  28  30
ATOM     30  O   UNL     1       2.959  -3.745   7.214  0.00  0.00    -0.491 OA
ATOM     31  C   UNL     1       1.663  -3.533   7.778  0.00  0.00    +0.277 C 
ENDBRANCH  28  30
BRANCH  27  32
ATOM     32  O   UNL     1       5.391  -4.205   6.006  0.00  0.00    -0.503 OA
ATOM     33  H   UNL     1       5.716  -3.305   5.868  0.00  0.00    +0.292 HD
ENDBRANCH  27  32
ENDBRANCH  16  24
TORSDOF 4
