REMARK  Name = ZINC39511825
REMARK  6 active torsions:
REMARK  status: ('A' for Active; 'I' for Inactive)
REMARK    1  A    between atoms: C_4  and  O_7
REMARK    2  A    between atoms: O_7  and  S_8
REMARK    3  A    between atoms: S_8  and  C_11
REMARK    4  A    between atoms: N_16  and  C_24
REMARK    5  A    between atoms: C_20  and  O_23
REMARK    6  A    between atoms: C_29  and  O_30
REMARK                            x       y       z     vdW  Elec       q    Type
REMARK                         _______ _______ _______ _____ _____    ______ ____
ROOT
ATOM      1  C   UNL     1       3.125  -2.313   1.960  0.00  0.00    +0.195 C 
ATOM      2  C   UNL     1       3.162  -3.466   0.952  0.00  0.00    +0.033 C 
ATOM      3  C   UNL     1       2.302  -4.623   1.469  0.00  0.00    +0.021 C 
ATOM      4  C   UNL     1       2.877  -5.134   2.793  0.00  0.00    +0.106 C 
ATOM      5  N   UNL     1       2.978  -4.005   3.730  0.00  0.00    -0.319 N 
ATOM      6  C   UNL     1       3.674  -2.794   3.299  0.00  0.00    +0.063 C 
ATOM      7  C   UNL     1       5.189  -3.064   3.186  0.00  0.00    +0.030 C 
ATOM      8  C   UNL     1       5.670  -2.924   4.653  0.00  0.00    +0.033 C 
ATOM      9  C   UNL     1       4.823  -1.767   5.222  0.00  0.00    +0.117 C 
ATOM     10  C   UNL     1       3.548  -1.691   4.361  0.00  0.00    +0.059 C 
ENDROOT
BRANCH   5  11
ATOM     11  C   UNL     1       2.418  -4.087   5.010  0.00  0.00    +0.072 A 
ATOM     12  C   UNL     1       3.173  -4.566   6.070  0.00  0.00    +0.027 A 
ATOM     13  C   UNL     1       2.618  -4.646   7.334  0.00  0.00    +0.002 A 
ATOM     14  C   UNL     1       1.310  -4.250   7.544  0.00  0.00    +0.004 A 
ATOM     15  C   UNL     1       0.551  -3.772   6.491  0.00  0.00    +0.047 A 
ATOM     16  C   UNL     1       1.102  -3.683   5.224  0.00  0.00    +0.138 A 
BRANCH  16  17
ATOM     17  O   UNL     1       0.358  -3.208   4.189  0.00  0.00    -0.505 OA
ATOM     18  H   UNL     1      -0.137  -3.890   3.715  0.00  0.00    +0.292 HD
ENDBRANCH  16  17
ENDBRANCH   5  11
BRANCH   1  19
ATOM     19  S   UNL     1       4.140  -0.941   1.346  0.00  0.00    +0.126 S 
ATOM     20  O   UNL     1       5.396  -1.427   0.890  0.00  0.00    -0.136 OA
ATOM     21  O   UNL     1       4.072   0.158   2.244  0.00  0.00    -0.136 OA
BRANCH  19  22
ATOM     22  O   UNL     1       3.430  -0.460   0.089  0.00  0.00    -0.346 OA
BRANCH  22  26
ATOM     23  C   UNL     1       0.009   1.724   0.825  0.00  0.00    +0.000 A 
ATOM     24  C   UNL     1       1.229   2.367   0.722  0.00  0.00    +0.004 A 
ATOM     25  C   UNL     1       2.376   1.637   0.475  0.00  0.00    +0.048 A 
ATOM     26  C   UNL     1       2.303   0.259   0.332  0.00  0.00    +0.156 A 
ATOM     27  C   UNL     1       1.077  -0.383   0.437  0.00  0.00    +0.048 A 
ATOM     28  C   UNL     1      -0.067   0.351   0.683  0.00  0.00    +0.004 A 
ENDBRANCH  22  26
ENDBRANCH  19  22
ENDBRANCH   1  19
BRANCH   9  29
ATOM     29  O   UNL     1       4.480  -2.035   6.583  0.00  0.00    -0.392 OA
ATOM     30  H   UNL     1       5.243  -2.115   7.172  0.00  0.00    +0.210 HD
ENDBRANCH   9  29
TORSDOF 6
