REMARK  Name = ZINC12381400
REMARK  9 active torsions:
REMARK  status: ('A' for Active; 'I' for Inactive)
REMARK    1  A    between atoms: C_1  and  C_2
REMARK    2  A    between atoms: C_2  and  C_3
REMARK    3  A    between atoms: C_2  and  C_4
REMARK    4  A    between atoms: C_2  and  C_5
REMARK    5  A    between atoms: C_12  and  N_17
REMARK    6  A    between atoms: C_13  and  C_14
REMARK    7  A    between atoms: C_18  and  C_20
REMARK    8  A    between atoms: C_23  and  N_29
REMARK    9  A    between atoms: C_24  and  N_26
REMARK                            x       y       z     vdW  Elec       q    Type
REMARK                         _______ _______ _______ _____ _____    ______ ____
ROOT
ATOM      1  C   UNL     1      -0.749   1.928   1.279  0.00  0.00    -0.000 C 
ATOM      2  C   UNL     1      -0.928   3.449   1.271  0.00  0.00    +0.009 C 
ATOM      3  C   UNL     1      -1.878   3.868   2.393  0.00  0.00    +0.037 C 
ATOM      4  C   UNL     1      -1.390   3.263   3.704  0.00  0.00    -0.023 A 
ATOM      5  C   UNL     1      -0.527   2.224   3.711  0.00  0.00    -0.004 A 
ATOM      6  S   UNL     1      -0.254   1.874   5.425  0.00  0.00    -0.077 S 
ATOM      7  C   UNL     1      -1.272   3.090   6.124  0.00  0.00    +0.085 A 
ATOM      8  C   UNL     1      -1.798   3.737   5.015  0.00  0.00    +0.068 A 
ATOM      9  C   UNL     1       0.062   1.530   2.521  0.00  0.00    +0.046 C 
ENDROOT
BRANCH   8  10
ATOM     10  C   UNL     1      -2.732   4.858   5.161  0.00  0.00    +0.244 C 
ATOM     11  O   UNL     1      -2.308   5.997   5.230  0.00  0.00    -0.270 OA
ATOM     12  N   UNL     1      -4.058   4.628   5.218  0.00  0.00    -0.325 N 
ATOM     13  H   UNL     1      -4.396   3.720   5.163  0.00  0.00    +0.145 HD
ATOM     14  H   UNL     1      -4.676   5.369   5.315  0.00  0.00    +0.145 HD
ENDBRANCH   8  10
BRANCH   1  16
ATOM     15  C   UNL     1       0.184  -0.026   0.032  0.00  0.00    +0.011 C 
ATOM     16  C   UNL     1      -0.001   1.493   0.017  0.00  0.00    -0.035 C 
ATOM     17  C   UNL     1       1.370   2.173  -0.023  0.00  0.00    +0.011 C 
ATOM     18  C   UNL     1      -0.807   1.897  -1.218  0.00  0.00    +0.011 C 
ENDBRANCH   1  16
BRANCH   7  19
ATOM     19  N   UNL     1      -1.503   3.352   7.464  0.00  0.00    -0.275 N 
ATOM     20  C   UNL     1      -0.895   2.610   8.411  0.00  0.00    +0.249 C 
ATOM     21  O   UNL     1      -0.143   1.710   8.088  0.00  0.00    -0.270 OA
ATOM     22  H   UNL     1      -2.103   4.069   7.721  0.00  0.00    +0.156 HD
BRANCH  20  23
ATOM     23  C   UNL     1      -1.142   2.889   9.838  0.00  0.00    +0.039 A 
ATOM     24  C   UNL     1      -2.002   3.927  10.210  0.00  0.00    +0.015 A 
ATOM     25  C   UNL     1      -2.234   4.181  11.542  0.00  0.00    +0.026 A 
ATOM     26  C   UNL     1      -1.606   3.413  12.519  0.00  0.00    +0.060 A 
ATOM     27  C   UNL     1      -0.745   2.383  12.152  0.00  0.00    +0.148 A 
ATOM     28  C   UNL     1      -0.512   2.120  10.821  0.00  0.00    +0.047 A 
BRANCH  26  29
ATOM     29  N   UNL     1      -1.838   3.677  13.865  0.00  0.00    -0.328 N 
ATOM     30  C   UNL     1      -1.580   5.105  14.180  0.00  0.00    +0.105 C 
ATOM     31  C   UNL     1      -2.365   5.325  15.498  0.00  0.00    +0.020 C 
ATOM     32  C   UNL     1      -3.637   4.471  15.289  0.00  0.00    +0.020 C 
ATOM     33  C   UNL     1      -3.255   3.436  14.215  0.00  0.00    +0.105 C 
ENDBRANCH  26  29
BRANCH  27  34
ATOM     34  N   UNL     1      -0.078   1.569  13.194  0.00  0.00    +0.058 N 
ATOM     35  O   UNL     1       0.597   0.607  12.875  0.00  0.00    -0.126 OA
ATOM     36  O   UNL     1      -0.205   1.862  14.369  0.00  0.00    -0.126 OA
ENDBRANCH  27  34
ENDBRANCH  20  23
ENDBRANCH   7  19
TORSDOF 6
