REMARK  Name = ZINC03419107
REMARK  12 active torsions:
REMARK  status: ('A' for Active; 'I' for Inactive)
REMARK    1  A    between atoms: C_1  and  C_2
REMARK    2  A    between atoms: C_5  and  N_9
REMARK    3  A    between atoms: C_7  and  C_8
REMARK    4  A    between atoms: C_22  and  N_23
REMARK    5  A    between atoms: N_23  and  C_24
REMARK    6  A    between atoms: C_24  and  C_25
REMARK    7  A    between atoms: C_25  and  C_27
REMARK    8  A    between atoms: C_25  and  N_35
REMARK    9  A    between atoms: C_30  and  O_33
REMARK   10  A    between atoms: O_33  and  C_34
REMARK   11  A    between atoms: N_35  and  C_36
REMARK   12  A    between atoms: N_35  and  C_37
REMARK                            x       y       z     vdW  Elec       q    Type
REMARK                         _______ _______ _______ _____ _____    ______ ____
ROOT
ATOM      1  N   UNL     1       1.885  10.675  -3.786  0.00  0.00    -0.202 N 
ATOM      2  C   UNL     1       2.316  11.214  -2.637  0.00  0.00    +0.258 C 
ATOM      3  O   UNL     1       3.311  11.911  -2.652  0.00  0.00    -0.269 OA
ATOM      4  C   UNL     1       1.623  10.991  -1.356  0.00  0.00    +0.046 A 
ATOM      5  C   UNL     1       2.093  11.565  -0.175  0.00  0.00    +0.014 A 
ATOM      6  C   UNL     1       1.422  11.337   1.010  0.00  0.00    +0.001 A 
ATOM      7  C   UNL     1       0.288  10.544   1.031  0.00  0.00    +0.001 A 
ATOM      8  C   UNL     1      -0.185   9.971  -0.138  0.00  0.00    +0.009 A 
ATOM      9  C   UNL     1       0.476  10.191  -1.322  0.00  0.00    +0.000 A 
ATOM     10  C   UNL     1      -0.004   9.585  -2.620  0.00  0.00    +0.059 C 
ATOM     11  C   UNL     1      -0.465   9.902  -4.026  0.00  0.00    +0.259 C 
ATOM     12  O   UNL     1      -1.558   9.538  -4.405  0.00  0.00    -0.269 OA
ATOM     13  C   UNL     1      -0.038   8.089  -2.447  0.00  0.00    +0.081 C 
ENDROOT
BRANCH   1  18
ATOM     14  C   UNL     1       4.798  11.750  -8.536  0.00  0.00    +0.044 C 
ATOM     15  C   UNL     1       4.025  11.465  -7.275  0.00  0.00    -0.047 A 
ATOM     16  C   UNL     1       3.298  12.473  -6.668  0.00  0.00    +0.005 A 
ATOM     17  C   UNL     1       2.585  12.213  -5.514  0.00  0.00    +0.024 A 
ATOM     18  C   UNL     1       2.605  10.941  -4.959  0.00  0.00    +0.045 A 
ATOM     19  C   UNL     1       3.335   9.931  -5.570  0.00  0.00    +0.027 A 
ATOM     20  C   UNL     1       4.043  10.195  -6.726  0.00  0.00    -0.046 A 
ATOM     21  C   UNL     1       4.835   9.100  -7.391  0.00  0.00    +0.044 C 
ENDBRANCH   1  18
BRANCH  13  23
ATOM     22  H   UNL     1      -1.585   8.191  -1.086  0.00  0.00    +0.145 HD
ATOM     23  N   UNL     1      -0.883   7.556  -1.648  0.00  0.00    -0.350 N 
BRANCH  23  24
ATOM     24  C   UNL     1      -0.917   6.101  -1.480  0.00  0.00    +0.090 C 
BRANCH  24  25
ATOM     25  C   UNL     1      -0.520   5.744  -0.046  0.00  0.00    -0.021 C 
BRANCH  25  26
ATOM     26  C   UNL     1      -0.627   4.253   0.148  0.00  0.00    -0.059 A 
ATOM     27  C   UNL     1       0.361   3.420  -0.344  0.00  0.00    +0.005 A 
ATOM     28  C   UNL     1       0.265   2.054  -0.166  0.00  0.00    +0.046 A 
ATOM     29  C   UNL     1      -0.824   1.517   0.506  0.00  0.00    +0.120 A 
ATOM     30  C   UNL     1      -1.816   2.354   0.994  0.00  0.00    +0.046 A 
ATOM     31  C   UNL     1      -1.713   3.721   0.818  0.00  0.00    +0.005 A 
BRANCH  29  32
ATOM     32  O   UNL     1      -0.920   0.173   0.681  0.00  0.00    -0.495 OA
ATOM     33  C   UNL     1      -2.068  -0.309   1.382  0.00  0.00    +0.277 C 
ENDBRANCH  29  32
ENDBRANCH  25  26
BRANCH  25  34
ATOM     34  N   UNL     1      -1.419   6.426   0.895  0.00  0.00    +0.382 N 
ATOM     35  C   UNL     1      -0.906   7.759   1.239  0.00  0.00    -0.096 C 
ATOM     36  C   UNL     1      -2.782   6.510   0.354  0.00  0.00    -0.096 C 
ATOM     37  H   UNL     1      -1.457   5.830   1.818  0.00  0.00    -0.082 HD
ENDBRANCH  25  34
ENDBRANCH  24  25
ENDBRANCH  23  24
ENDBRANCH  13  23
TORSDOF 7
