REMARK  Name = ZINC13556242
REMARK  11 active torsions:
REMARK  status: ('A' for Active; 'I' for Inactive)
REMARK    1  A    between atoms: C_1  and  C_2
REMARK    2  A    between atoms: C_2  and  C_3
REMARK    3  A    between atoms: C_3  and  C_4
REMARK    4  A    between atoms: C_13  and  O_15
REMARK    5  A    between atoms: O_15  and  C_16
REMARK    6  A    between atoms: C_16  and  C_17
REMARK    7  A    between atoms: N_19  and  C_20
REMARK    8  A    between atoms: C_22  and  C_27
REMARK    9  A    between atoms: C_22  and  C_28
REMARK   10  A    between atoms: C_23  and  C_25
REMARK   11  A    between atoms: C_23  and  C_26
REMARK                            x       y       z     vdW  Elec       q    Type
REMARK                         _______ _______ _______ _____ _____    ______ ____
ROOT
ATOM      1  C   UNL     1       0.105   7.210  -2.379  0.00  0.00    +0.324 C 
ENDROOT
BRANCH   1   2
ATOM      2  C   UNL     1       0.113   5.703  -2.353  0.00  0.00    +0.251 C 
ATOM      3  O   UNL     1      -0.129   5.078  -3.364  0.00  0.00    -0.272 OA
ATOM      4  N   UNL     1       0.389   5.051  -1.207  0.00  0.00    -0.310 N 
ATOM      5  H   UNL     1       0.582   5.550  -0.398  0.00  0.00    +0.149 HD
BRANCH   4   6
ATOM      6  C   UNL     1       0.396   3.583  -1.181  0.00  0.00    +0.070 C 
ATOM      7  C   UNL     1       1.298   3.104  -0.042  0.00  0.00    +0.009 C 
ATOM      8  C   UNL     1       1.320   1.577  -0.002  0.00  0.00    -0.072 C 
ATOM      9  C   UNL     1      -1.042   1.551  -0.852  0.00  0.00    -0.072 C 
ATOM     10  C   UNL     1      -1.022   3.076  -0.918  0.00  0.00    +0.009 C 
ATOM     11  C   UNL     1      -0.944   0.975  -2.269  0.00  0.00    -0.010 C 
ATOM     12  C   UNL     1      -2.415   1.129  -0.282  0.00  0.00    -0.010 C 
ATOM     13  C   UNL     1       2.035   1.156   1.301  0.00  0.00    -0.010 C 
ATOM     14  C   UNL     1       2.151   1.041  -1.172  0.00  0.00    -0.010 C 
ATOM     15  N   UNL     1      -0.027   0.947   0.053  0.00  0.00    +0.386 N 
ATOM     16  H   UNL     1      -0.375   1.022   1.016  0.00  0.00    -0.084 HD
ATOM     17  H   UNL     1       0.074  -0.044  -0.199  0.00  0.00    -0.084 HD
ENDBRANCH   4   6
ENDBRANCH   1   2
BRANCH   1  18
ATOM     18  O   UNL     1      -0.211   7.662  -3.697  0.00  0.00    -0.481 OA
BRANCH  18  28
ATOM     19  C   UNL     1      -0.413  13.187  -4.511  0.00  0.00    -0.030 A 
ATOM     20  C   UNL     1      -0.158  13.990  -3.445  0.00  0.00    +0.096 A 
ATOM     21  C   UNL     1       0.143  13.418  -2.192  0.00  0.00    +0.337 A 
ATOM     22  O   UNL     1       0.369  14.149  -1.245  0.00  0.00    -0.245 OA
ATOM     23  O   UNL     1       0.187  12.088  -2.017  0.00  0.00    -0.422 OA
ATOM     24  C   UNL     1      -0.056  11.234  -3.034  0.00  0.00    +0.143 A 
ATOM     25  C   UNL     1      -0.363  11.737  -4.313  0.00  0.00    +0.022 A 
ATOM     26  C   UNL     1      -0.616  10.857  -5.370  0.00  0.00    +0.035 A 
ATOM     27  C   UNL     1      -0.564   9.508  -5.157  0.00  0.00    +0.083 A 
ATOM     28  C   UNL     1      -0.260   9.005  -3.893  0.00  0.00    +0.143 A 
ATOM     29  C   UNL     1      -0.013   9.863  -2.834  0.00  0.00    +0.094 A 
ATOM     30 CL   UNL     1      -0.878   8.415  -6.469  0.00  0.00    -0.080 Cl
BRANCH  19  31
ATOM     31  C   UNL     1      -0.737  13.773  -5.861  0.00  0.00    +0.036 C 
BRANCH  31  33
ATOM     32  C   UNL     1      -2.585  14.448  -7.402  0.00  0.00    +0.004 C 
ATOM     33  C   UNL     1      -2.255  13.854  -6.031  0.00  0.00    +0.001 C 
ENDBRANCH  31  33
ENDBRANCH  19  31
ENDBRANCH  18  28
ENDBRANCH   1  18
TORSDOF 6
