REMARK  Name = ZINC33460110
REMARK  14 active torsions:
REMARK  status: ('A' for Active; 'I' for Inactive)
REMARK    1  A    between atoms: C_1  and  C_2
REMARK    2  A    between atoms: C_5  and  C_11
REMARK    3  A    between atoms: C_7  and  N_8
REMARK    4  A    between atoms: N_13  and  C_14
REMARK    5  A    between atoms: N_13  and  C_21
REMARK    6  A    between atoms: C_14  and  C_15
REMARK    7  A    between atoms: C_15  and  C_16
REMARK    8  A    between atoms: C_16  and  C_17
REMARK    9  A    between atoms: C_17  and  C_18
REMARK   10  A    between atoms: C_18  and  C_19
REMARK   11  A    between atoms: C_19  and  N_20
REMARK   12  A    between atoms: C_21  and  C_23
REMARK   13  A    between atoms: C_21  and  C_24
REMARK   14  A    between atoms: N_34  and  C_35
REMARK                            x       y       z     vdW  Elec       q    Type
REMARK                         _______ _______ _______ _____ _____    ______ ____
ROOT
ATOM      1  C   UNL     1      -3.134   0.920  -1.019  0.00  0.00    +0.247 C 
ATOM      2  O   UNL     1      -2.490   0.854  -2.048  0.00  0.00    -0.270 OA
ATOM      3  N   UNL     1      -2.781   0.173   0.046  0.00  0.00    -0.288 N 
ENDROOT
BRANCH   1   8
ATOM      4  C   UNL     1      -7.690   4.420  -0.695  0.00  0.00    +0.046 C 
ATOM      5  C   UNL     1      -6.497   3.503  -0.780  0.00  0.00    -0.020 A 
ATOM      6  C   UNL     1      -5.536   3.530   0.216  0.00  0.00    +0.006 A 
ATOM      7  C   UNL     1      -4.444   2.689   0.147  0.00  0.00    +0.013 A 
ATOM      8  C   UNL     1      -4.304   1.819  -0.936  0.00  0.00    +0.039 A 
ATOM      9  C   UNL     1      -5.277   1.798  -1.936  0.00  0.00    +0.046 A 
ATOM     10  C   UNL     1      -6.367   2.639  -1.852  0.00  0.00    +0.130 A 
BRANCH  10  11
ATOM     11  N   UNL     1      -7.400   2.618  -2.913  0.00  0.00    +0.057 N 
ATOM     12  O   UNL     1      -7.257   1.903  -3.888  0.00  0.00    -0.126 OA
ATOM     13  O   UNL     1      -8.392   3.317  -2.810  0.00  0.00    -0.126 OA
ENDBRANCH  10  11
ENDBRANCH   1   8
BRANCH   3  14
ATOM     14  C   UNL     1      -1.566  -0.645  -0.004  0.00  0.00    +0.139 C 
ATOM     15  C   UNL     1      -1.679  -1.658  -1.145  0.00  0.00    +0.036 C 
BRANCH  14  16
ATOM     16  C   UNL     1      -0.371   0.243  -0.237  0.00  0.00    +0.133 A 
ATOM     17  N   UNL     1      -0.580   1.472  -0.601  0.00  0.00    -0.232 NA
ATOM     18  C   UNL     1       0.447   2.329  -0.829  0.00  0.00    +0.080 A 
ATOM     19  C   UNL     1       0.226   3.651  -1.219  0.00  0.00    +0.048 A 
ATOM     20  C   UNL     1       1.302   4.484  -1.438  0.00  0.00    +0.043 A 
ATOM     21  C   UNL     1       2.603   4.024  -1.274  0.00  0.00    +0.021 A 
ATOM     22  C   UNL     1       2.844   2.733  -0.892  0.00  0.00    +0.017 A 
ATOM     23  C   UNL     1       1.773   1.871  -0.664  0.00  0.00    +0.065 A 
ATOM     24  C   UNL     1       1.973   0.474  -0.252  0.00  0.00    +0.262 A 
ATOM     25  O   UNL     1       3.090   0.016  -0.092  0.00  0.00    -0.267 OA
ATOM     26  N   UNL     1       0.868  -0.282  -0.056  0.00  0.00    -0.298 N 
ATOM     27  C   UNL     1       1.010  -1.681   0.357  0.00  0.00    +0.154 C 
ATOM     28 CL   UNL     1       1.029   6.128  -1.924  0.00  0.00    -0.083 Cl
ENDBRANCH  14  16
ENDBRANCH   3  14
BRANCH   3  29
ATOM     29  C   UNL     1      -3.612   0.178   1.252  0.00  0.00    +0.109 C 
BRANCH  29  30
ATOM     30  C   UNL     1      -2.928   1.011   2.338  0.00  0.00    +0.019 C 
BRANCH  30  31
ATOM     31  C   UNL     1      -3.851   1.121   3.553  0.00  0.00    +0.001 C 
BRANCH  31  32
ATOM     32  C   UNL     1      -3.168   1.954   4.640  0.00  0.00    -0.002 C 
BRANCH  32  33
ATOM     33  C   UNL     1      -4.091   2.064   5.855  0.00  0.00    -0.020 C 
BRANCH  33  34
ATOM     34  C   UNL     1      -3.408   2.897   6.941  0.00  0.00    -0.086 C 
BRANCH  34  35
ATOM     35  N   UNL     1      -4.294   3.002   8.108  0.00  0.00    +0.378 N 
ATOM     36  H   UNL     1      -3.803   3.601   8.889  0.00  0.00    -0.090 HD
ATOM     37  H   UNL     1      -4.508   1.996   8.497  0.00  0.00    -0.090 HD
ATOM     38  H   UNL     1      -5.235   3.488   7.810  0.00  0.00    -0.090 HD
ENDBRANCH  34  35
ENDBRANCH  33  34
ENDBRANCH  32  33
ENDBRANCH  31  32
ENDBRANCH  30  31
ENDBRANCH  29  30
ENDBRANCH   3  29
TORSDOF 11
