REMARK  Name = ZINC01352913
REMARK  7 active torsions:
REMARK  status: ('A' for Active; 'I' for Inactive)
REMARK    1  A    between atoms: C_1  and  C_2
REMARK    2  A    between atoms: C_7  and  C_14
REMARK    3  A    between atoms: C_14  and  N_15
REMARK    4  A    between atoms: N_15  and  C_16
REMARK    5  A    between atoms: C_16  and  C_17
REMARK    6  A    between atoms: N_28  and  C_29
REMARK    7  A    between atoms: C_29  and  C_30
REMARK                            x       y       z     vdW  Elec       q    Type
REMARK                         _______ _______ _______ _____ _____    ______ ____
ROOT
ATOM      1  N   UNL     1       1.318   4.110   1.388  0.00  0.00    -0.277 N 
ATOM      2  C   UNL     1       0.220   4.342   2.134  0.00  0.00    +0.303 C 
ATOM      3  O   UNL     1      -0.885   4.153   1.664  0.00  0.00    -0.253 OA
ATOM      4  N   UNL     1       0.347   4.783   3.401  0.00  0.00    -0.295 N 
ATOM      5  H   UNL     1       1.229   4.934   3.776  0.00  0.00    +0.151 HD
ENDROOT
BRANCH   1   6
ATOM      6  C   UNL     1       1.179   3.631   0.010  0.00  0.00    +0.150 C 
BRANCH   6  13
ATOM      7  C   UNL     1       0.122  -4.275  -0.024  0.00  0.00    +0.044 C 
ATOM      8  C   UNL     1       0.089  -2.769  -0.015  0.00  0.00    -0.048 A 
ATOM      9  C   UNL     1      -1.133  -2.109   0.001  0.00  0.00    +0.004 A 
ATOM     10  C   UNL     1      -1.185  -0.744   0.009  0.00  0.00    +0.010 A 
ATOM     11  C   UNL     1       0.002  -0.004   0.002  0.00  0.00    -0.001 A 
ATOM     12  C   UNL     1      -0.018   1.460   0.010  0.00  0.00    +0.020 A 
ATOM     13  C   UNL     1       1.165   2.124   0.002  0.00  0.00    +0.035 A 
ATOM     14  C   UNL     1       2.381   1.409  -0.013  0.00  0.00    +0.254 A 
ATOM     15  O   UNL     1       3.433   2.025  -0.020  0.00  0.00    -0.268 OA
ATOM     16  N   UNL     1       2.409   0.064  -0.021  0.00  0.00    -0.322 N 
ATOM     17  H   UNL     1       3.263  -0.396  -0.031  0.00  0.00    +0.169 HD
ATOM     18  C   UNL     1       1.242  -0.669  -0.013  0.00  0.00    +0.049 A 
ATOM     19  C   UNL     1       1.271  -2.060  -0.021  0.00  0.00    +0.029 A 
ENDBRANCH   6  13
ENDBRANCH   1   6
BRANCH   1  20
ATOM     20  C   UNL     1       2.650   4.338   1.954  0.00  0.00    +0.145 C 
BRANCH  20  21
ATOM     21  C   UNL     1       3.074   5.759   1.683  0.00  0.00    -0.026 A 
ATOM     22  C   UNL     1       3.772   6.063   0.529  0.00  0.00    +0.009 A 
ATOM     23  C   UNL     1       4.158   7.365   0.274  0.00  0.00    +0.050 A 
ATOM     24  C   UNL     1       3.857   8.368   1.181  0.00  0.00    +0.166 A 
ATOM     25  C   UNL     1       3.159   8.061   2.347  0.00  0.00    +0.167 A 
ATOM     26  C   UNL     1       2.770   6.754   2.593  0.00  0.00    +0.054 A 
ATOM     27  O   UNL     1       2.989   9.207   3.068  0.00  0.00    -0.453 OA
ATOM     28  C   UNL     1       3.942  10.144   2.532  0.00  0.00    +0.466 C 
ATOM     29  O   UNL     1       4.124   9.707   1.172  0.00  0.00    -0.453 OA
ENDBRANCH  20  21
ENDBRANCH   1  20
BRANCH   4  30
ATOM     30  C   UNL     1      -0.846   5.035   4.212  0.00  0.00    +0.141 C 
BRANCH  30  31
ATOM     31  C   UNL     1      -0.432   5.518   5.579  0.00  0.00    -0.030 A 
ATOM     32  C   UNL     1      -0.221   4.608   6.598  0.00  0.00    +0.005 A 
ATOM     33  C   UNL     1       0.164   5.051   7.850  0.00  0.00    +0.000 A 
ATOM     34  C   UNL     1       0.327   6.403   8.085  0.00  0.00    +0.000 A 
ATOM     35  C   UNL     1       0.110   7.313   7.068  0.00  0.00    +0.000 A 
ATOM     36  C   UNL     1      -0.270   6.870   5.814  0.00  0.00    +0.005 A 
ENDBRANCH  30  31
ENDBRANCH   4  30
TORSDOF 6
