REMARK  Name = ZINC33937076
REMARK  13 active torsions:
REMARK  status: ('A' for Active; 'I' for Inactive)
REMARK    1  A    between atoms: C_1  and  C_2
REMARK    2  A    between atoms: C_2  and  C_3
REMARK    3  A    between atoms: C_3  and  C_5
REMARK    4  A    between atoms: C_3  and  N_17
REMARK    5  A    between atoms: N_9  and  C_10
REMARK    6  A    between atoms: C_10  and  C_11
REMARK    7  A    between atoms: N_17  and  C_18
REMARK    8  A    between atoms: N_17  and  C_26
REMARK    9  A    between atoms: C_18  and  C_19
REMARK   10  A    between atoms: C_22  and  C_25
REMARK   11  A    between atoms: C_26  and  C_27
REMARK   12  A    between atoms: C_30  and  C_40
REMARK   13  A    between atoms: C_33  and  C_39
REMARK                            x       y       z     vdW  Elec       q    Type
REMARK                         _______ _______ _______ _____ _____    ______ ____
ROOT
ATOM      1  N   UNL     1      -2.707   0.192  -2.561  0.00  0.00    +0.392 N 
ATOM      2  H   UNL     1      -2.389   0.550  -3.449  0.00  0.00    -0.080 HD
ENDROOT
BRANCH   1   3
ATOM      3  C   UNL     1      -2.584  -1.272  -2.551  0.00  0.00    +0.003 C 
BRANCH   3   4
ATOM      4  C   UNL     1      -3.274  -1.842  -3.764  0.00  0.00    +0.138 A 
ATOM      5  N   UNL     1      -3.180  -1.405  -4.996  0.00  0.00    -0.115 NA
ATOM      6  N   UNL     1      -3.916  -2.155  -5.742  0.00  0.00    -0.023 NA
ATOM      7  N   UNL     1      -4.477  -3.059  -5.017  0.00  0.00    -0.044 NA
ATOM      8  N   UNL     1      -4.102  -2.903  -3.792  0.00  0.00    -0.228 N 
BRANCH   8   9
ATOM      9  C   UNL     1      -4.505  -3.724  -2.648  0.00  0.00    +0.178 C 
BRANCH   9  10
ATOM     10  C   UNL     1      -5.771  -3.137  -2.020  0.00  0.00    +0.140 C 
ATOM     11  C   UNL     1      -6.266  -4.041  -0.863  0.00  0.00    +0.035 C 
ATOM     12  C   UNL     1      -7.062  -3.018  -0.009  0.00  0.00    +0.031 C 
ATOM     13  C   UNL     1      -6.247  -1.722  -0.206  0.00  0.00    +0.160 C 
ATOM     14  O   UNL     1      -5.483  -1.869  -1.411  0.00  0.00    -0.375 OA
ENDBRANCH   9  10
ENDBRANCH   8   9
ENDBRANCH   3   4
BRANCH   3  16
ATOM     15  C   UNL     1      -0.712  -2.264  -1.227  0.00  0.00    +0.002 C 
ATOM     16  C   UNL     1      -1.104  -1.660  -2.577  0.00  0.00    -0.011 C 
ENDBRANCH   3  16
ENDBRANCH   1   3
BRANCH   1  17
ATOM     17  C   UNL     1      -4.112   0.567  -2.358  0.00  0.00    -0.042 C 
BRANCH  17  18
ATOM     18  C   UNL     1      -4.309   2.009  -2.748  0.00  0.00    -0.064 A 
ATOM     19  C   UNL     1      -4.270   2.998  -1.783  0.00  0.00    +0.002 A 
ATOM     20  C   UNL     1      -4.451   4.321  -2.141  0.00  0.00    +0.003 A 
ATOM     21  C   UNL     1      -4.670   4.655  -3.464  0.00  0.00    -0.050 A 
ATOM     22  C   UNL     1      -4.708   3.666  -4.430  0.00  0.00    +0.003 A 
ATOM     23  C   UNL     1      -4.523   2.344  -4.072  0.00  0.00    +0.002 A 
ATOM     24  C   UNL     1      -4.867   6.097  -3.854  0.00  0.00    +0.044 C 
ENDBRANCH  17  18
ENDBRANCH   1  17
BRANCH   1  25
ATOM     25  C   UNL     1      -1.887   0.759  -1.482  0.00  0.00    -0.036 C 
BRANCH  25  26
ATOM     26  C   UNL     1      -0.524   1.113  -2.020  0.00  0.00    +0.001 A 
ATOM     27  C   UNL     1      -0.396   1.561  -3.293  0.00  0.00    +0.017 A 
ATOM     28  C   UNL     1       0.942   1.897  -3.784  0.00  0.00    +0.002 A 
ATOM     29  C   UNL     1       1.138   2.365  -5.088  0.00  0.00    -0.041 A 
ATOM     30  C   UNL     1       2.399   2.669  -5.516  0.00  0.00    +0.004 A 
ATOM     31  C   UNL     1       3.488   2.518  -4.668  0.00  0.00    +0.005 A 
ATOM     32  C   UNL     1       3.319   2.059  -3.380  0.00  0.00    -0.026 A 
ATOM     33  C   UNL     1       2.044   1.743  -2.922  0.00  0.00    +0.052 A 
ATOM     34  N   UNL     1       1.846   1.282  -1.638  0.00  0.00    -0.322 N 
ATOM     35  H   UNL     1       2.606   1.177  -1.045  0.00  0.00    +0.169 HD
ATOM     36  C   UNL     1       0.613   0.982  -1.194  0.00  0.00    +0.251 A 
ATOM     37  O   UNL     1       0.474   0.582  -0.051  0.00  0.00    -0.268 OA
ATOM     38  C   UNL     1       4.511   1.899  -2.472  0.00  0.00    +0.046 C 
ATOM     39  C   UNL     1      -0.037   2.531  -6.016  0.00  0.00    +0.044 C 
ENDBRANCH  25  26
ENDBRANCH   1  25
TORSDOF 9
