REMARK  Name = ZINC35746435
REMARK  16 active torsions:
REMARK  status: ('A' for Active; 'I' for Inactive)
REMARK    1  A    between atoms: C_1  and  C_2
REMARK    2  A    between atoms: C_2  and  C_3
REMARK    3  A    between atoms: C_3  and  N_4
REMARK    4  A    between atoms: N_4  and  C_5
REMARK    5  A    between atoms: N_4  and  C_25
REMARK    6  A    between atoms: C_5  and  C_6
REMARK    7  A    between atoms: C_12  and  C_17
REMARK    8  A    between atoms: C_20  and  C_24
REMARK    9  A    between atoms: C_22  and  C_23
REMARK   10  A    between atoms: C_25  and  C_26
REMARK   11  A    between atoms: C_26  and  C_28
REMARK   12  A    between atoms: C_26  and  O_33
REMARK   13  A    between atoms: C_28  and  O_29
REMARK   14  A    between atoms: O_29  and  C_30
REMARK   15  A    between atoms: C_30  and  C_31
REMARK   16  A    between atoms: C_30  and  C_32
REMARK                            x       y       z     vdW  Elec       q    Type
REMARK                         _______ _______ _______ _____ _____    ______ ____
ROOT
ATOM      1  C   UNL     1      -0.638  -4.061   0.902  0.00  0.00    +0.094 A 
ATOM      2  N   UNL     1      -0.054  -4.792   1.887  0.00  0.00    -0.312 N 
ATOM      3  H   UNL     1       0.195  -4.357   2.717  0.00  0.00    +0.170 HD
ATOM      4  C   UNL     1       0.184  -6.107   1.733  0.00  0.00    +0.260 A 
ATOM      5  O   UNL     1       0.709  -6.750   2.627  0.00  0.00    -0.267 OA
ATOM      6  C   UNL     1      -0.187  -6.742   0.505  0.00  0.00    +0.080 A 
ATOM      7  C   UNL     1      -0.035  -8.135   0.103  0.00  0.00    +0.004 A 
ATOM      8  C   UNL     1      -0.467  -8.509  -1.125  0.00  0.00    +0.056 A 
ATOM      9  S   UNL     1      -1.107  -6.996  -1.817  0.00  0.00    -0.076 S 
ATOM     10  C   UNL     1      -0.783  -5.907  -0.454  0.00  0.00    +0.116 A 
ATOM     11  N   UNL     1      -0.992  -4.613  -0.228  0.00  0.00    -0.229 NA
ENDROOT
BRANCH   7  12
ATOM     12  C   UNL     1       0.579  -9.123   1.021  0.00  0.00    -0.014 A 
ATOM     13  C   UNL     1       1.794  -9.723   0.692  0.00  0.00    +0.009 A 
ATOM     14  C   UNL     1       2.362 -10.642   1.551  0.00  0.00    +0.004 A 
ATOM     15  C   UNL     1       1.728 -10.968   2.737  0.00  0.00    -0.050 A 
ATOM     16  C   UNL     1       0.523 -10.376   3.069  0.00  0.00    +0.007 A 
ATOM     17  C   UNL     1      -0.052  -9.451   2.220  0.00  0.00    -0.042 A 
ATOM     18  C   UNL     1      -1.361  -8.802   2.587  0.00  0.00    +0.044 C 
ATOM     19  C   UNL     1       2.353 -11.972   3.670  0.00  0.00    +0.044 C 
ENDBRANCH   7  12
BRANCH   1  20
ATOM     20  C   UNL     1      -0.886  -2.591   1.119  0.00  0.00    -0.003 C 
BRANCH  20  21
ATOM     21  N   UNL     1      -1.662  -2.054  -0.007  0.00  0.00    +0.386 N 
ATOM     22  H   UNL     1      -1.202  -2.288  -0.875  0.00  0.00    -0.081 HD
BRANCH  21  23
ATOM     23  C   UNL     1      -1.760  -0.594   0.117  0.00  0.00    -0.078 C 
BRANCH  23  25
ATOM     24  C   UNL     1      -0.487   1.550  -0.043  0.00  0.00    +0.002 C 
ATOM     25  C   UNL     1      -0.368   0.025  -0.027  0.00  0.00    -0.022 C 
ENDBRANCH  23  25
ENDBRANCH  21  23
BRANCH  21  26
ATOM     26  C   UNL     1      -3.010  -2.638   0.005  0.00  0.00    -0.044 C 
BRANCH  26  27
ATOM     27  C   UNL     1      -3.777  -2.177  -1.236  0.00  0.00    +0.124 C 
BRANCH  27  28
ATOM     28  O   UNL     1      -3.148  -2.701  -2.407  0.00  0.00    -0.391 OA
ATOM     29  H   UNL     1      -3.114  -3.667  -2.436  0.00  0.00    +0.210 HD
ENDBRANCH  27  28
BRANCH  27  30
ATOM     30  C   UNL     1      -5.219  -2.682  -1.161  0.00  0.00    +0.189 C 
BRANCH  30  31
ATOM     31  O   UNL     1      -5.966  -2.155  -2.260  0.00  0.00    -0.375 OA
BRANCH  31  32
ATOM     32  C   UNL     1      -7.334  -2.568  -2.284  0.00  0.00    +0.112 C 
ATOM     33  C   UNL     1      -8.185  -1.477  -2.936  0.00  0.00    +0.037 C 
ATOM     34  C   UNL     1      -7.461  -3.863  -3.089  0.00  0.00    +0.037 C 
ENDBRANCH  31  32
ENDBRANCH  30  31
ENDBRANCH  27  30
ENDBRANCH  26  27
ENDBRANCH  21  26
ENDBRANCH  20  21
ENDBRANCH   1  20
TORSDOF 11
