REMARK  Name = ZINC02213234
REMARK  7 active torsions:
REMARK  status: ('A' for Active; 'I' for Inactive)
REMARK    1  A    between atoms: C_1  and  C_2
REMARK    2  A    between atoms: C_2  and  C_33
REMARK    3  A    between atoms: C_7  and  C_32
REMARK    4  A    between atoms: C_10  and  N_11
REMARK    5  A    between atoms: C_10  and  N_61
REMARK    6  A    between atoms: N_19  and  N_20
REMARK    7  A    between atoms: C_21  and  C_23
REMARK                            x       y       z     vdW  Elec       q    Type
REMARK                         _______ _______ _______ _____ _____    ______ ____
ROOT
ATOM      1  N   UNL     1      -0.320   6.033   0.039  0.00  0.00    -0.282 N 
ATOM      2  C   UNL     1      -0.041   4.671   0.028  0.00  0.00    +0.044 A 
ATOM      3  C   UNL     1       1.164   3.975   0.013  0.00  0.00    +0.025 A 
ATOM      4  C   UNL     1       1.167   2.595   0.005  0.00  0.00    +0.017 A 
ATOM      5  C   UNL     1      -0.024   1.887   0.012  0.00  0.00    +0.019 A 
ATOM      6  C   UNL     1      -1.229   2.561   0.022  0.00  0.00    +0.027 A 
ATOM      7  C   UNL     1      -1.242   3.951   0.035  0.00  0.00    +0.029 A 
ATOM      8  C   UNL     1      -2.331   4.955   0.051  0.00  0.00    +0.153 C 
ATOM      9  N   UNL     1      -3.623   4.732   0.062  0.00  0.00    -0.174 NA
ATOM     10  C   UNL     1      -1.645   6.263   0.053  0.00  0.00    +0.270 C 
ATOM     11  O   UNL     1      -2.182   7.354   0.065  0.00  0.00    -0.268 OA
ATOM     12 BR   UNL     1       0.002  -0.004   0.002  0.00  0.00    -0.050 Br
ENDROOT
BRANCH   9  13
ATOM     13  N   UNL     1      -4.520   5.808   0.077  0.00  0.00    -0.202 N 
ATOM     14  C   UNL     1      -5.848   5.578   0.088  0.00  0.00    +0.263 C 
ATOM     15  O   UNL     1      -6.267   4.438   0.085  0.00  0.00    -0.268 OA
ATOM     16  H   UNL     1      -4.185   6.718   0.080  0.00  0.00    +0.178 HD
BRANCH  14  17
ATOM     17  C   UNL     1      -6.796   6.715   0.104  0.00  0.00    +0.041 A 
ATOM     18  C   UNL     1      -6.334   8.036   0.114  0.00  0.00    +0.033 A 
ATOM     19  C   UNL     1      -7.254   9.066   0.124  0.00  0.00    +0.111 A 
ATOM     20  N   UNL     1      -8.549   8.819   0.134  0.00  0.00    -0.263 NA
ATOM     21  C   UNL     1      -9.026   7.590   0.131  0.00  0.00    +0.111 A 
ATOM     22  C   UNL     1      -8.178   6.499   0.116  0.00  0.00    +0.033 A 
ENDBRANCH  14  17
ENDBRANCH   9  13
BRANCH   1  23
ATOM     23  C   UNL     1       0.699   7.085   0.035  0.00  0.00    +0.039 C 
BRANCH  23  34
ATOM     24  C   UNL     1       1.246  10.509   0.552  0.00  0.00    +0.011 C 
ATOM     25  C   UNL     1       2.152  10.302  -0.679  0.00  0.00    -0.036 C 
ATOM     26  C   UNL     1       2.833   8.956  -0.571  0.00  0.00    -0.009 C 
ATOM     27  C   UNL     1       2.404   7.891  -1.567  0.00  0.00    -0.065 C 
ATOM     28  C   UNL     1       2.321   8.572  -2.963  0.00  0.00    -0.011 C 
ATOM     29  C   UNL     1       1.006   9.377  -2.776  0.00  0.00    -0.048 C 
ATOM     30  C   UNL     1       1.353  10.601  -1.929  0.00  0.00    +0.011 C 
ATOM     31  C   UNL     1       0.119   8.437  -1.926  0.00  0.00    -0.070 C 
ATOM     32  C   UNL     1       0.350   9.746  -4.114  0.00  0.00    +0.009 C 
ATOM     33  C   UNL     1       3.260  11.383  -0.577  0.00  0.00    +0.011 C 
ATOM     34  N   UNL     1       1.016   7.410  -1.397  0.00  0.00    +0.393 N 
ATOM     35  H   UNL     1       0.897   6.552  -1.949  0.00  0.00    -0.079 HD
ENDBRANCH  23  34
ENDBRANCH   1  23
TORSDOF 4
