REMARK  Name = ZINC12621155
REMARK  12 active torsions:
REMARK  status: ('A' for Active; 'I' for Inactive)
REMARK    1  A    between atoms: C_1  and  C_2
REMARK    2  A    between atoms: C_2  and  C_3
REMARK    3  A    between atoms: C_2  and  C_4
REMARK    4  A    between atoms: C_2  and  C_5
REMARK    5  A    between atoms: C_11  and  C_19
REMARK    6  A    between atoms: C_19  and  O_21
REMARK    7  A    between atoms: O_21  and  C_22
REMARK    8  A    between atoms: C_22  and  C_23
REMARK    9  A    between atoms: N_25  and  C_26
REMARK   10  A    between atoms: C_27  and  C_34
REMARK   11  A    between atoms: C_34  and  O_36
REMARK   12  A    between atoms: O_36  and  C_37
REMARK                            x       y       z     vdW  Elec       q    Type
REMARK                         _______ _______ _______ _____ _____    ______ ____
ROOT
ATOM      1  C   UNL     1       1.174   2.076   0.002  0.00  0.00    +0.341 C 
ATOM      2  O   UNL     1       2.202   1.428  -0.011  0.00  0.00    -0.245 OA
ENDROOT
BRANCH   1   8
ATOM      3  C   UNL     1       1.715   4.324   3.662  0.00  0.00    -0.001 C 
ATOM      4  C   UNL     1       0.926   5.638   3.650  0.00  0.00    +0.010 C 
ATOM      5  C   UNL     1       1.385   6.467   2.453  0.00  0.00    +0.056 C 
ATOM      6  C   UNL     1       1.328   5.648   1.187  0.00  0.00    +0.046 A 
ATOM      7  C   UNL     1       1.265   4.261   1.210  0.00  0.00    -0.011 A 
ATOM      8  C   UNL     1       1.232   3.552   0.009  0.00  0.00    +0.073 A 
ATOM      9  C   UNL     1       1.248   4.285  -1.202  0.00  0.00    +0.015 A 
ATOM     10  C   UNL     1       1.213   3.645  -2.448  0.00  0.00    +0.011 A 
ATOM     11  C   UNL     1       1.230   4.390  -3.589  0.00  0.00    +0.001 A 
ATOM     12  C   UNL     1       1.282   5.781  -3.532  0.00  0.00    +0.002 A 
ATOM     13  C   UNL     1       1.317   6.434  -2.339  0.00  0.00    +0.028 A 
ATOM     14  C   UNL     1       1.302   5.699  -1.139  0.00  0.00    +0.072 A 
ATOM     15  N   UNL     1       1.341   6.308   0.045  0.00  0.00    -0.251 NA
ATOM     16  C   UNL     1       1.240   3.468   2.489  0.00  0.00    +0.042 C 
BRANCH   3  18
ATOM     17  C   UNL     1      -0.032   3.280   5.112  0.00  0.00    +0.011 C 
ATOM     18  C   UNL     1       1.462   3.583   4.977  0.00  0.00    -0.035 C 
ATOM     19  C   UNL     1       2.251   2.272   4.984  0.00  0.00    +0.011 C 
ATOM     20  C   UNL     1       1.913   4.456   6.149  0.00  0.00    +0.011 C 
ENDBRANCH   3  18
ENDBRANCH   1   8
BRANCH   1  21
ATOM     21  O   UNL     1      -0.018   1.448   0.010  0.00  0.00    -0.452 OA
BRANCH  21  22
ATOM     22  C   UNL     1       0.002  -0.004   0.002  0.00  0.00    +0.328 C 
BRANCH  22  23
ATOM     23  C   UNL     1      -1.412  -0.526   0.013  0.00  0.00    +0.255 C 
ATOM     24  O   UNL     1      -2.344   0.250   0.026  0.00  0.00    -0.272 OA
ATOM     25  N   UNL     1      -1.640  -1.854   0.008  0.00  0.00    -0.277 N 
ATOM     26  H   UNL     1      -0.894  -2.474  -0.003  0.00  0.00    +0.155 HD
BRANCH  25  27
ATOM     27  C   UNL     1      -2.940  -2.334   0.018  0.00  0.00    +0.086 A 
ATOM     28  C   UNL     1      -3.373  -3.650   0.015  0.00  0.00    +0.091 A 
ATOM     29  C   UNL     1      -4.816  -3.888   0.029  0.00  0.00    -0.021 A 
ATOM     30  C   UNL     1      -5.578  -2.780   0.041  0.00  0.00    -0.004 A 
ATOM     31  S   UNL     1      -4.419  -1.434   0.044  0.00  0.00    -0.077 S 
ATOM     32  C   UNL     1      -7.047  -3.105   0.051  0.00  0.00    +0.043 C 
ATOM     33  C   UNL     1      -7.121  -4.583  -0.391  0.00  0.00    +0.010 C 
ATOM     34  C   UNL     1      -5.737  -5.109   0.036  0.00  0.00    +0.037 C 
BRANCH  28  35
ATOM     35  C   UNL     1      -2.420  -4.762  -0.001  0.00  0.00    +0.342 C 
ATOM     36  O   UNL     1      -2.013  -5.229   1.045  0.00  0.00    -0.245 OA
BRANCH  35  37
ATOM     37  O   UNL     1      -1.993  -5.268  -1.177  0.00  0.00    -0.464 OA
ATOM     38  C   UNL     1      -1.049  -6.369  -1.117  0.00  0.00    +0.280 C 
ENDBRANCH  35  37
ENDBRANCH  28  35
ENDBRANCH  25  27
ENDBRANCH  22  23
ENDBRANCH  21  22
ENDBRANCH   1  21
TORSDOF 8
