REMARK  Name = ZINC39969618
REMARK  9 active torsions:
REMARK  status: ('A' for Active; 'I' for Inactive)
REMARK    1  A    between atoms: C_1  and  C_2
REMARK    2  A    between atoms: C_2  and  C_4
REMARK    3  A    between atoms: C_2  and  N_27
REMARK    4  A    between atoms: C_8  and  S_13
REMARK    5  A    between atoms: N_9  and  C_10
REMARK    6  A    between atoms: C_10  and  C_11
REMARK    7  A    between atoms: S_13  and  C_14
REMARK    8  A    between atoms: C_14  and  C_15
REMARK    9  A    between atoms: C_28  and  C_30
REMARK                            x       y       z     vdW  Elec       q    Type
REMARK                         _______ _______ _______ _____ _____    ______ ____
ROOT
ATOM      1  C   UNL     1      -1.375  -0.515   0.050  0.00  0.00    +0.197 C 
ATOM      2  N   UNL     1      -1.217  -1.979   0.089  0.00  0.00    -0.245 N 
ATOM      3  N   UNL     1      -1.750  -2.461  -1.112  0.00  0.00    -0.163 NA
ATOM      4  C   UNL     1      -2.197  -1.501  -1.850  0.00  0.00    +0.176 C 
ATOM      5  N   UNL     1      -2.026  -0.261  -1.246  0.00  0.00    -0.284 N 
ATOM      6  H   UNL     1      -0.823  -2.504   0.804  0.00  0.00    +0.170 HD
ENDROOT
BRANCH   1   8
ATOM      7  C   UNL     1       0.599  -0.021   1.500  0.00  0.00    +0.031 C 
ATOM      8  C   UNL     1      -0.010   0.174   0.110  0.00  0.00    +0.110 C 
BRANCH   8   9
ATOM      9  N   UNL     1       0.877  -0.411  -0.898  0.00  0.00    -0.305 N 
ATOM     10  C   UNL     1       1.905   0.308  -1.390  0.00  0.00    +0.247 C 
ATOM     11  O   UNL     1       2.097   1.442  -0.996  0.00  0.00    -0.270 OA
ATOM     12  H   UNL     1       0.724  -1.316  -1.212  0.00  0.00    +0.149 HD
BRANCH  10  13
ATOM     13  C   UNL     1       2.800  -0.282  -2.406  0.00  0.00    +0.072 A 
ATOM     14  C   UNL     1       2.579  -1.583  -2.865  0.00  0.00    +0.016 A 
ATOM     15  C   UNL     1       3.417  -2.127  -3.814  0.00  0.00    +0.001 A 
ATOM     16  C   UNL     1       4.477  -1.389  -4.314  0.00  0.00    +0.003 A 
ATOM     17  C   UNL     1       4.704  -0.102  -3.866  0.00  0.00    +0.039 A 
ATOM     18  C   UNL     1       3.868   0.461  -2.919  0.00  0.00    +0.135 A 
ATOM     19  F   UNL     1       4.086   1.722  -2.485  0.00  0.00    -0.205 F 
ENDBRANCH  10  13
ENDBRANCH   8   9
ENDBRANCH   1   8
BRANCH   5  20
ATOM     20  C   UNL     1      -2.414   1.043  -1.790  0.00  0.00    +0.135 C 
BRANCH  20  21
ATOM     21  C   UNL     1      -1.326   1.552  -2.700  0.00  0.00    -0.016 C 
ATOM     22  C   UNL     1      -1.602   1.862  -3.942  0.00  0.00    +0.005 C 
ENDBRANCH  20  21
ENDBRANCH   5  20
BRANCH   4  23
ATOM     23  S   UNL     1      -2.937  -1.734  -3.432  0.00  0.00    -0.081 S 
BRANCH  23  24
ATOM     24  C   UNL     1      -2.887  -3.530  -3.679  0.00  0.00    +0.151 C 
BRANCH  24  25
ATOM     25  C   UNL     1      -3.498  -3.870  -5.014  0.00  0.00    +0.121 A 
ATOM     26  N   UNL     1      -3.558  -5.177  -5.381  0.00  0.00    -0.310 N 
ATOM     27  H   UNL     1      -3.211  -5.860  -4.786  0.00  0.00    +0.170 HD
ATOM     28  C   UNL     1      -4.098  -5.535  -6.570  0.00  0.00    +0.259 A 
ATOM     29  O   UNL     1      -4.158  -6.702  -6.911  0.00  0.00    -0.267 OA
ATOM     30  C   UNL     1      -4.608  -4.459  -7.433  0.00  0.00    +0.065 A 
ATOM     31  C   UNL     1      -5.182  -4.721  -8.675  0.00  0.00    +0.015 A 
ATOM     32  C   UNL     1      -5.644  -3.674  -9.443  0.00  0.00    +0.001 A 
ATOM     33  C   UNL     1      -5.542  -2.366  -8.989  0.00  0.00    +0.002 A 
ATOM     34  C   UNL     1      -4.978  -2.086  -7.764  0.00  0.00    +0.028 A 
ATOM     35  C   UNL     1      -4.503  -3.130  -6.967  0.00  0.00    +0.078 A 
ATOM     36  N   UNL     1      -3.945  -2.900  -5.752  0.00  0.00    -0.233 NA
ENDBRANCH  24  25
ENDBRANCH  23  24
ENDBRANCH   4  23
TORSDOF 8
