REMARK  Name = ZINC08858386
REMARK  12 active torsions:
REMARK  status: ('A' for Active; 'I' for Inactive)
REMARK    1  A    between atoms: C_1  and  N_56
REMARK    2  A    between atoms: C_2  and  N_56
REMARK    3  A    between atoms: C_3  and  C_4
REMARK    4  A    between atoms: C_3  and  N_56
REMARK    5  A    between atoms: C_4  and  N_5
REMARK    6  A    between atoms: C_6  and  C_25
REMARK    7  A    between atoms: C_8  and  C_13
REMARK    8  A    between atoms: C_9  and  O_12
REMARK    9  A    between atoms: C_13  and  C_15
REMARK   10  A    between atoms: C_18  and  O_21
REMARK   11  A    between atoms: O_21  and  C_22
REMARK   12  A    between atoms: C_22  and  C_23
REMARK                            x       y       z     vdW  Elec       q    Type
REMARK                         _______ _______ _______ _____ _____    ______ ____
ROOT
ATOM      1  N   UNL     1       2.312  -2.052   0.773  0.00  0.00    -0.285 N 
ATOM      2  C   UNL     1       1.228  -1.630  -0.122  0.00  0.00    +0.144 C 
ATOM      3  C   UNL     1       1.353  -2.479  -1.366  0.00  0.00    +0.071 C 
ATOM      4  C   UNL     1       2.413  -3.297  -1.176  0.00  0.00    +0.188 C 
ATOM      5  C   UNL     1       3.003  -3.027   0.152  0.00  0.00    +0.282 C 
ATOM      6  O   UNL     1       3.969  -3.600   0.616  0.00  0.00    -0.267 OA
ENDROOT
BRANCH   2   7
ATOM      7  C   UNL     1       1.382  -0.173  -0.472  0.00  0.00    -0.021 A 
ATOM      8  C   UNL     1       2.638   0.350  -0.721  0.00  0.00    +0.006 A 
ATOM      9  C   UNL     1       2.780   1.686  -1.042  0.00  0.00    +0.001 A 
ATOM     10  C   UNL     1       1.666   2.502  -1.114  0.00  0.00    +0.015 A 
ATOM     11  C   UNL     1       0.409   1.980  -0.866  0.00  0.00    +0.018 A 
ATOM     12  C   UNL     1       0.268   0.642  -0.544  0.00  0.00    +0.021 A 
ATOM     13 BR   UNL     1      -1.115   3.094  -0.972  0.00  0.00    -0.050 Br
ENDBRANCH   2   7
BRANCH   4  14
ATOM     14  O   UNL     1       2.862  -4.218  -2.060  0.00  0.00    -0.502 OA
ATOM     15  H   UNL     1       3.657  -4.688  -1.677  0.00  0.00    +0.292 HD
ENDBRANCH   4  14
BRANCH   3  16
ATOM     16  C   UNL     1       0.490  -2.426  -2.551  0.00  0.00    +0.195 C 
ATOM     17  O   UNL     1       0.951  -2.081  -3.623  0.00  0.00    -0.287 OA
BRANCH  16  18
ATOM     18  C   UNL     1      -0.935  -2.792  -2.443  0.00  0.00    +0.022 A 
ATOM     19  C   UNL     1      -1.439  -3.305  -1.244  0.00  0.00    +0.015 A 
ATOM     20  C   UNL     1      -2.771  -3.639  -1.145  0.00  0.00    +0.046 A 
ATOM     21  C   UNL     1      -3.612  -3.478  -2.240  0.00  0.00    +0.121 A 
ATOM     22  C   UNL     1      -3.115  -2.974  -3.436  0.00  0.00    +0.046 A 
ATOM     23  C   UNL     1      -1.786  -2.631  -3.541  0.00  0.00    +0.015 A 
BRANCH  21  24
ATOM     24  O   UNL     1      -4.923  -3.813  -2.140  0.00  0.00    -0.488 OA
BRANCH  24  25
ATOM     25  C   UNL     1      -5.356  -4.380  -0.902  0.00  0.00    +0.256 C 
BRANCH  25  26
ATOM     26  C   UNL     1      -6.802  -4.789  -1.014  0.00  0.00    +0.006 C 
ATOM     27  C   UNL     1      -7.190  -5.954  -0.558  0.00  0.00    +0.007 C 
ENDBRANCH  25  26
ENDBRANCH  24  25
ENDBRANCH  21  24
ENDBRANCH  16  18
ENDBRANCH   3  16
BRANCH   1  28
ATOM     28  C   UNL     1       2.592  -1.508   2.104  0.00  0.00    +0.090 C 
BRANCH  28  29
ATOM     29  C   UNL     1       1.820  -2.308   3.155  0.00  0.00    -0.060 C 
BRANCH  29  32
ATOM     30  C   UNL     1       1.566  -0.400   4.624  0.00  0.00    -0.097 C 
ATOM     31  C   UNL     1       1.571  -2.642   5.540  0.00  0.00    -0.097 C 
ATOM     32  N   UNL     1       2.129  -1.761   4.492  0.00  0.00    +0.377 N 
ATOM     33  H   UNL     1       3.148  -1.712   4.606  0.00  0.00    -0.083 HD
ENDBRANCH  29  32
ENDBRANCH  28  29
ENDBRANCH   1  28
TORSDOF 10
