REMARK  Name = ZINC40731409
REMARK  6 active torsions:
REMARK  status: ('A' for Active; 'I' for Inactive)
REMARK    1  A    between atoms: C_1  and  C_2
REMARK    2  A    between atoms: C_2  and  C_3
REMARK    3  A    between atoms: C_4  and  C_21
REMARK    4  A    between atoms: N_6  and  C_9
REMARK    5  A    between atoms: C_7  and  C_8
REMARK    6  A    between atoms: C_14  and  N_15
REMARK                            x       y       z     vdW  Elec       q    Type
REMARK                         _______ _______ _______ _____ _____    ______ ____
ROOT
ATOM      1  C   UNL     1       3.507  -1.549  -3.148  0.00  0.00    +0.088 A 
ATOM      2  C   UNL     1       4.658  -1.410  -2.388  0.00  0.00    +0.053 A 
ATOM      3  C   UNL     1       5.890  -1.745  -2.930  0.00  0.00    +0.039 A 
ATOM      4  C   UNL     1       5.971  -2.220  -4.233  0.00  0.00    -0.024 A 
ATOM      5  C   UNL     1       4.826  -2.360  -4.992  0.00  0.00    +0.030 A 
ATOM      6  C   UNL     1       3.590  -2.031  -4.454  0.00  0.00    +0.051 A 
ATOM      7  C   UNL     1       7.312  -2.584  -4.816  0.00  0.00    +0.046 C 
ATOM      8  C   UNL     1       8.383  -1.647  -4.258  0.00  0.00    +0.101 C 
ATOM      9  C   UNL     1       8.261  -1.562  -2.760  0.00  0.00    +0.218 C 
ATOM     10  O   UNL     1       9.261  -1.455  -2.082  0.00  0.00    -0.275 OA
ATOM     11  N   UNL     1       7.055  -1.605  -2.165  0.00  0.00    -0.285 N 
ATOM     12  H   UNL     1       6.992  -1.538  -1.199  0.00  0.00    +0.155 HD
ENDROOT
BRANCH   1  16
ATOM     13  C   UNL     1       0.659  -0.130  -1.582  0.00  0.00    -0.004 A 
ATOM     14  C   UNL     1       0.144  -1.352  -2.028  0.00  0.00    +0.064 A 
ATOM     15  N   UNL     1       1.102  -2.001  -2.639  0.00  0.00    -0.171 NA
ATOM     16  N   UNL     1       2.259  -1.212  -2.602  0.00  0.00    -0.235 N 
ATOM     17  C   UNL     1       1.959  -0.065  -1.952  0.00  0.00    +0.045 A 
ATOM     18  C   UNL     1       2.904   1.078  -1.684  0.00  0.00    +0.066 C 
ATOM     19  C   UNL     1      -1.270  -1.837  -1.837  0.00  0.00    +0.068 C 
BRANCH  13  21
ATOM     20  C   UNL     1      -0.745   1.900  -1.821  0.00  0.00    +0.009 C 
ATOM     21  C   UNL     1      -0.102   0.930  -0.828  0.00  0.00    +0.035 C 
ENDBRANCH  13  21
ENDBRANCH   1  16
BRANCH   6  22
ATOM     22  N   UNL     1       2.429  -2.179  -5.222  0.00  0.00    -0.356 N 
ATOM     23  H   UNL     1       1.579  -1.860  -4.881  0.00  0.00    +0.142 HD
ATOM     24  H   UNL     1       2.475  -2.599  -6.095  0.00  0.00    +0.142 HD
ENDBRANCH   6  22
TORSDOF 3
