REMARK  Name = ZINC42099536
REMARK  4 active torsions:
REMARK  status: ('A' for Active; 'I' for Inactive)
REMARK    1  A    between atoms: C_1  and  C_2
REMARK    2  A    between atoms: N_10  and  C_11
REMARK    3  A    between atoms: C_11  and  C_13
REMARK    4  A    between atoms: C_11  and  C_14
REMARK                            x       y       z     vdW  Elec       q    Type
REMARK                         _______ _______ _______ _____ _____    ______ ____
ROOT
ATOM      1  C   UNL     1       6.373  -1.768  -1.953  0.00  0.00    +0.067 C 
ATOM      2  C   UNL     1       5.218  -2.667  -1.594  0.00  0.00    +0.059 A 
ATOM      3  C   UNL     1       3.989  -2.625  -2.140  0.00  0.00    +0.138 A 
ATOM      4  N   UNL     1       3.224  -3.615  -1.536  0.00  0.00    -0.212 N 
ATOM      5  C   UNL     1       4.066  -4.210  -0.637  0.00  0.00    +0.197 A 
ATOM      6  N   UNL     1       5.240  -3.649  -0.681  0.00  0.00    -0.225 NA
ATOM      7  S   UNL     1       3.030  -5.456   0.093  0.00  0.00    -0.013 S 
ATOM      8  C   UNL     1       1.548  -5.109  -0.840  0.00  0.00    +0.182 A 
ATOM      9  N   UNL     1       1.929  -4.119  -1.602  0.00  0.00    -0.142 NA
ATOM     10  N   UNL     1       0.311  -5.730  -0.774  0.00  0.00    -0.315 N 
ATOM     11  H   UNL     1      -0.412  -5.434  -1.348  0.00  0.00    +0.149 HD
ENDROOT
BRANCH  10  12
ATOM     12  C   UNL     1       0.096  -6.835   0.164  0.00  0.00    +0.102 C 
ATOM     13  C   UNL     1      -1.398  -6.964   0.466  0.00  0.00    +0.033 C 
BRANCH  12  14
ATOM     14  C   UNL     1       0.597  -8.118  -0.448  0.00  0.00    +0.010 A 
ATOM     15  C   UNL     1       0.656  -8.251  -1.823  0.00  0.00    +0.046 A 
ATOM     16  C   UNL     1       1.117  -9.429  -2.385  0.00  0.00    +0.124 A 
ATOM     17  C   UNL     1       1.518 -10.474  -1.570  0.00  0.00    +0.041 A 
ATOM     18  C   UNL     1       1.459 -10.341  -0.196  0.00  0.00    +0.041 A 
ATOM     19  C   UNL     1       1.003  -9.161   0.366  0.00  0.00    +0.128 A 
ATOM     20  F   UNL     1       0.950  -9.029   1.710  0.00  0.00    -0.205 F 
ATOM     21  F   UNL     1       1.175  -9.559  -3.728  0.00  0.00    -0.205 F 
ENDBRANCH  12  14
ENDBRANCH  10  12
TORSDOF 2
