REMARK  Name = ZINC13032338
REMARK  16 active torsions:
REMARK  status: ('A' for Active; 'I' for Inactive)
REMARK    1  A    between atoms: C_1  and  C_2
REMARK    2  A    between atoms: C_2  and  C_3
REMARK    3  A    between atoms: C_3  and  C_4
REMARK    4  A    between atoms: C_3  and  C_5
REMARK    5  A    between atoms: C_3  and  N_6
REMARK    6  A    between atoms: C_7  and  C_9
REMARK    7  A    between atoms: C_9  and  C_11
REMARK    8  A    between atoms: C_9  and  N_18
REMARK    9  A    between atoms: C_14  and  O_17
REMARK   10  A    between atoms: N_18  and  C_19
REMARK   11  A    between atoms: C_22  and  O_27
REMARK   12  A    between atoms: C_23  and  O_25
REMARK   13  A    between atoms: O_25  and  C_26
REMARK   14  A    between atoms: O_27  and  C_28
REMARK   15  A    between atoms: C_29  and  C_31
REMARK   16  A    between atoms: C_31  and  N_32
REMARK                            x       y       z     vdW  Elec       q    Type
REMARK                         _______ _______ _______ _____ _____    ______ ____
ROOT
ATOM      1  N   UNL     1      -5.488   3.086  -1.762  0.00  0.00    -0.254 N 
ATOM      2  C   UNL     1      -4.185   3.334  -1.523  0.00  0.00    +0.242 C 
ATOM      3  O   UNL     1      -3.495   3.835  -2.386  0.00  0.00    -0.273 OA
ENDROOT
BRANCH   1   4
ATOM      4  C   UNL     1      -6.309   2.605  -0.734  0.00  0.00    +0.041 A 
ATOM      5  C   UNL     1      -6.787   1.302  -0.779  0.00  0.00    +0.027 A 
ATOM      6  C   UNL     1      -7.597   0.826   0.234  0.00  0.00    +0.051 A 
ATOM      7  C   UNL     1      -7.934   1.648   1.298  0.00  0.00    +0.162 A 
ATOM      8  C   UNL     1      -7.456   2.954   1.346  0.00  0.00    +0.163 A 
ATOM      9  C   UNL     1      -6.641   3.429   0.333  0.00  0.00    +0.073 A 
BRANCH   8  10
ATOM     10  O   UNL     1      -7.786   3.761   2.390  0.00  0.00    -0.491 OA
ATOM     11  C   UNL     1      -7.260   5.090   2.373  0.00  0.00    +0.277 C 
ENDBRANCH   8  10
BRANCH   7  12
ATOM     12  O   UNL     1      -8.731   1.178   2.295  0.00  0.00    -0.491 OA
ATOM     13  C   UNL     1      -9.184  -0.173   2.181  0.00  0.00    +0.277 C 
ENDBRANCH   7  12
ENDBRANCH   1   4
BRANCH   1  14
ATOM     14  C   UNL     1      -6.045   3.318  -3.097  0.00  0.00    +0.197 C 
BRANCH  14  15
ATOM     15  C   UNL     1      -7.470   2.829  -3.138  0.00  0.00    -0.018 A 
ATOM     16  C   UNL     1      -8.401   3.340  -2.254  0.00  0.00    +0.009 A 
ATOM     17  C   UNL     1      -9.709   2.897  -2.294  0.00  0.00    +0.046 A 
ATOM     18  C   UNL     1     -10.085   1.930  -3.215  0.00  0.00    +0.117 A 
ATOM     19  C   UNL     1      -9.147   1.414  -4.097  0.00  0.00    +0.046 A 
ATOM     20  C   UNL     1      -7.842   1.865  -4.057  0.00  0.00    +0.009 A 
BRANCH  18  21
ATOM     21  O   UNL     1     -11.370   1.488  -3.252  0.00  0.00    -0.507 OA
ATOM     22  H   UNL     1     -11.540   0.727  -2.679  0.00  0.00    +0.292 HD
ENDBRANCH  18  21
ENDBRANCH  14  15
BRANCH  14  24
ATOM     23  N   UNL     1      -6.476   5.245  -4.587  0.00  0.00    -0.308 N 
ATOM     24  C   UNL     1      -6.011   4.793  -3.405  0.00  0.00    +0.239 C 
ATOM     25  O   UNL     1      -5.566   5.573  -2.591  0.00  0.00    -0.273 OA
ATOM     26  H   UNL     1      -6.833   4.621  -5.238  0.00  0.00    +0.149 HD
BRANCH  23  27
ATOM     27  C   UNL     1      -6.444   6.678  -4.887  0.00  0.00    +0.029 C 
ATOM     28  C   UNL     1      -7.274   7.436  -3.848  0.00  0.00    +0.031 C 
ATOM     29  C   UNL     1      -4.997   7.176  -4.844  0.00  0.00    +0.031 C 
BRANCH  27  31
ATOM     30  C   UNL     1      -6.992   8.418  -6.594  0.00  0.00    +0.006 C 
ATOM     31  C   UNL     1      -7.026   6.921  -6.281  0.00  0.00    +0.022 C 
ENDBRANCH  27  31
ENDBRANCH  23  27
ENDBRANCH  14  24
ENDBRANCH   1  14
BRANCH   2  32
ATOM     32  C   UNL     1      -3.585   2.991  -0.184  0.00  0.00    +0.242 C 
BRANCH  32  33
ATOM     33  N   UNL     1      -2.142   3.237  -0.217  0.00  0.00    -0.235 N 
ATOM     34  C   UNL     1      -1.163   2.341  -0.577  0.00  0.00    +0.090 A 
ATOM     35  C   UNL     1      -1.173   1.017  -1.002  0.00  0.00    +0.029 A 
ATOM     36  C   UNL     1       0.004   0.386  -1.288  0.00  0.00    +0.002 A 
ATOM     37  C   UNL     1       1.214   1.058  -1.168  0.00  0.00    +0.002 A 
ATOM     38  C   UNL     1       1.251   2.359  -0.758  0.00  0.00    +0.032 A 
ATOM     39  C   UNL     1       0.058   3.027  -0.454  0.00  0.00    +0.113 A 
ATOM     40  N   UNL     1      -0.217   4.279  -0.035  0.00  0.00    -0.129 NA
ATOM     41  N   UNL     1      -1.486   4.432   0.111  0.00  0.00    -0.064 NA
ENDBRANCH  32  33
ENDBRANCH   2  32
TORSDOF 11
