REMARK  Name = ZINC62347598
REMARK  15 active torsions:
REMARK  status: ('A' for Active; 'I' for Inactive)
REMARK    1  A    between atoms: C_1  and  C_2
REMARK    2  A    between atoms: C_2  and  C_3
REMARK    3  A    between atoms: C_3  and  C_5
REMARK    4  A    between atoms: C_3  and  C_6
REMARK    5  A    between atoms: C_6  and  C_8
REMARK    6  A    between atoms: C_6  and  N_19
REMARK    7  A    between atoms: N_10  and  C_11
REMARK    8  A    between atoms: C_11  and  C_12
REMARK    9  A    between atoms: C_12  and  C_13
REMARK   10  A    between atoms: C_16  and  C_18
REMARK   11  A    between atoms: C_20  and  O_22
REMARK   12  A    between atoms: O_22  and  C_23
REMARK   13  A    between atoms: C_23  and  C_24
REMARK   14  A    between atoms: C_23  and  C_25
REMARK   15  A    between atoms: C_23  and  C_26
REMARK                            x       y       z     vdW  Elec       q    Type
REMARK                         _______ _______ _______ _____ _____    ______ ____
ROOT
ATOM      1  C   UNL     1      -0.131  -0.111   2.463  0.00  0.00    +0.165 C 
ENDROOT
BRANCH   1   2
ATOM      2  C   UNL     1       0.454  -0.906   3.602  0.00  0.00    +0.234 C 
ATOM      3  O   UNL     1       0.729  -0.356   4.647  0.00  0.00    -0.274 OA
ATOM      4  N   UNL     1       0.672  -2.228   3.458  0.00  0.00    -0.313 N 
ATOM      5  H   UNL     1       0.521  -2.654   2.600  0.00  0.00    +0.149 HD
BRANCH   4   6
ATOM      6  C   UNL     1       1.137  -3.022   4.598  0.00  0.00    +0.110 C 
BRANCH   6   7
ATOM      7  C   UNL     1       1.303  -4.481   4.169  0.00  0.00    +0.074 C 
BRANCH   7   8
ATOM      8  C   UNL     1       1.782  -5.298   5.342  0.00  0.00    +0.050 A 
ATOM      9  C   UNL     1       1.113  -6.405   5.756  0.00  0.00    +0.070 A 
ATOM     10  S   UNL     1       2.135  -6.912   7.130  0.00  0.00    -0.081 S 
ATOM     11  C   UNL     1       3.281  -5.683   7.031  0.00  0.00    +0.075 A 
ATOM     12  N   UNL     1       2.871  -4.974   6.009  0.00  0.00    -0.249 NA
ATOM     13  C   UNL     1       4.490  -5.458   7.902  0.00  0.00    +0.073 C 
ENDBRANCH   7   8
ENDBRANCH   6   7
ENDBRANCH   4   6
ENDBRANCH   1   2
BRANCH   1  14
ATOM     14  N   UNL     1      -0.256   1.293   2.862  0.00  0.00    -0.270 N 
ATOM     15  C   UNL     1      -1.264   2.045   2.376  0.00  0.00    +0.401 C 
ATOM     16  O   UNL     1      -2.123   1.535   1.684  0.00  0.00    -0.226 OA
ATOM     17  H   UNL     1       0.387   1.682   3.475  0.00  0.00    +0.153 HD
BRANCH  15  18
ATOM     18  O   UNL     1      -1.320   3.360   2.658  0.00  0.00    -0.445 OA
BRANCH  18  19
ATOM     19  C   UNL     1      -2.416   4.095   2.110  0.00  0.00    +0.107 C 
ATOM     20  C   UNL     1      -3.732   3.508   2.626  0.00  0.00    +0.055 C 
ATOM     21  C   UNL     1      -2.310   5.561   2.535  0.00  0.00    +0.055 C 
ATOM     22  C   UNL     1      -2.380   4.003   0.584  0.00  0.00    +0.055 C 
ENDBRANCH  18  19
ENDBRANCH  15  18
ENDBRANCH   1  14
BRANCH   1  23
ATOM     23  C   UNL     1       0.787  -0.215   1.244  0.00  0.00    +0.015 C 
ATOM     24  C   UNL     1       0.115   0.451   0.041  0.00  0.00    +0.010 C 
BRANCH  23  26
ATOM     25  C   UNL     1       2.882  -0.300   2.602  0.00  0.00    +0.004 C 
ATOM     26  C   UNL     1       2.112   0.489   1.541  0.00  0.00    +0.002 C 
ENDBRANCH  23  26
ENDBRANCH   1  23
TORSDOF 9
