REMARK  Name = ZINC12133768
REMARK  12 active torsions:
REMARK  status: ('A' for Active; 'I' for Inactive)
REMARK    1  A    between atoms: C_1  and  C_2
REMARK    2  A    between atoms: C_2  and  C_29
REMARK    3  A    between atoms: C_6  and  N_61
REMARK    4  A    between atoms: C_14  and  S_20
REMARK    5  A    between atoms: C_15  and  C_16
REMARK    6  A    between atoms: C_16  and  O_18
REMARK    7  A    between atoms: O_18  and  C_19
REMARK    8  A    between atoms: S_20  and  N_23
REMARK    9  A    between atoms: N_23  and  C_24
REMARK   10  A    between atoms: C_24  and  C_25
REMARK   11  A    between atoms: C_25  and  O_26
REMARK   12  A    between atoms: O_26  and  C_27
REMARK                            x       y       z     vdW  Elec       q    Type
REMARK                         _______ _______ _______ _____ _____    ______ ____
ROOT
ATOM      1  C   UNL     1      -0.013   1.086   0.008  0.00  0.00    -0.073 C 
ATOM      2  C   UNL     1      -0.748   1.591  -1.237  0.00  0.00    +0.018 C 
ATOM      3  C   UNL     1      -0.935   3.097  -1.100  0.00  0.00    -0.025 A 
ATOM      4  C   UNL     1      -0.807   3.689   0.111  0.00  0.00    -0.021 A 
ATOM      5  S   UNL     1      -1.098   5.406  -0.199  0.00  0.00    -0.074 S 
ATOM      6  C   UNL     1      -1.384   5.335  -1.907  0.00  0.00    +0.157 A 
ATOM      7  C   UNL     1      -1.248   3.992  -2.195  0.00  0.00    +0.096 A 
ATOM      8  C   UNL     1      -0.492   3.007   1.405  0.00  0.00    -0.035 C 
ATOM      9  N   UNL     1      -0.721   1.554   1.217  0.00  0.00    +0.385 N 
ATOM     10  H   UNL     1      -1.728   1.386   1.101  0.00  0.00    -0.081 HD
ENDROOT
BRANCH   9  16
ATOM     11  C   UNL     1      -1.237   1.067   6.114  0.00  0.00    +0.011 C 
ATOM     12  C   UNL     1      -0.506   0.549   4.874  0.00  0.00    -0.036 C 
ATOM     13  C   UNL     1       1.001   0.740   5.054  0.00  0.00    +0.006 C 
ATOM     14  C   UNL     1       1.732   0.223   3.813  0.00  0.00    -0.001 C 
ATOM     15  C   UNL     1       1.263   1.001   2.583  0.00  0.00    -0.015 C 
ATOM     16  C   UNL     1      -0.245   0.810   2.403  0.00  0.00    -0.068 C 
ATOM     17  C   UNL     1      -0.976   1.328   3.643  0.00  0.00    -0.009 C 
ATOM     18  C   UNL     1      -0.813  -0.937   4.685  0.00  0.00    +0.011 C 
ENDBRANCH   9  16
BRANCH   6  19
ATOM     19  S   UNL     1      -1.757   6.657  -3.010  0.00  0.00    +0.066 S 
ATOM     20  O   UNL     1      -1.253   7.842  -2.408  0.00  0.00    -0.153 OA
ATOM     21  O   UNL     1      -1.359   6.231  -4.305  0.00  0.00    -0.153 OA
BRANCH  19  22
ATOM     22  N   UNL     1      -3.406   6.811  -3.049  0.00  0.00    -0.187 NA
ATOM     23  H   UNL     1      -3.890   6.633  -3.870  0.00  0.00    +0.148 HD
BRANCH  22  24
ATOM     24  C   UNL     1      -4.132   7.218  -1.843  0.00  0.00    +0.134 C 
BRANCH  24  25
ATOM     25  C   UNL     1      -5.552   7.644  -2.222  0.00  0.00    +0.176 C 
BRANCH  25  26
ATOM     26  O   UNL     1      -6.267   6.518  -2.733  0.00  0.00    -0.382 OA
ATOM     27  C   UNL     1      -7.612   6.809  -3.119  0.00  0.00    +0.194 C 
ENDBRANCH  25  26
ENDBRANCH  24  25
ENDBRANCH  22  24
ENDBRANCH  19  22
ENDBRANCH   6  19
BRANCH   7  28
ATOM     28  C   UNL     1      -1.417   3.488  -3.565  0.00  0.00    +0.342 C 
ATOM     29  O   UNL     1      -2.515   3.137  -3.953  0.00  0.00    -0.245 OA
BRANCH  28  30
ATOM     30  O   UNL     1      -0.355   3.413  -4.392  0.00  0.00    -0.464 OA
ATOM     31  C   UNL     1      -0.596   2.905  -5.731  0.00  0.00    +0.280 C 
ENDBRANCH  28  30
ENDBRANCH   7  28
TORSDOF 8
