REMARK  Name = ZINC36358052
REMARK  6 active torsions:
REMARK  status: ('A' for Active; 'I' for Inactive)
REMARK    1  A    between atoms: C_1  and  C_2
REMARK    2  A    between atoms: C_2  and  C_3
REMARK    3  A    between atoms: C_2  and  C_4
REMARK    4  A    between atoms: C_18  and  C_27
REMARK    5  A    between atoms: C_19  and  C_20
REMARK    6  A    between atoms: N_32  and  C_33
REMARK                            x       y       z     vdW  Elec       q    Type
REMARK                         _______ _______ _______ _____ _____    ______ ____
ROOT
ATOM      1  C   UNL     1      -1.412  -0.526   0.013  0.00  0.00    -0.044 A 
ATOM      2  C   UNL     1      -2.245  -0.196   1.062  0.00  0.00    +0.006 A 
ATOM      3  C   UNL     1      -3.555  -0.645   1.128  0.00  0.00    +0.024 A 
ATOM      4  C   UNL     1      -4.006  -1.453   0.083  0.00  0.00    +0.041 A 
ATOM      5  C   UNL     1      -3.150  -1.780  -0.977  0.00  0.00    -0.005 A 
ATOM      6  C   UNL     1      -1.851  -1.325  -1.038  0.00  0.00    +0.010 A 
ATOM      7  C   UNL     1      -3.944  -2.642  -1.905  0.00  0.00    +0.115 C 
ATOM      8  C   UNL     1      -4.081  -1.987  -3.280  0.00  0.00    +0.122 C 
ATOM      9  C   UNL     1      -2.853  -2.227  -4.111  0.00  0.00    +0.219 C 
ATOM     10  O   UNL     1      -2.488  -1.353  -4.868  0.00  0.00    -0.275 OA
ATOM     11  N   UNL     1      -2.139  -3.365  -4.055  0.00  0.00    -0.284 N 
ATOM     12  C   UNL     1      -2.480  -4.347  -3.082  0.00  0.00    +0.054 A 
ATOM     13  C   UNL     1      -3.330  -3.995  -2.066  0.00  0.00    +0.032 A 
ATOM     14  S   UNL     1      -3.499  -5.353  -1.117  0.00  0.00    -0.083 S 
ATOM     15  C   UNL     1      -2.457  -6.472  -2.034  0.00  0.00    +0.110 A 
ATOM     16  C   UNL     1      -2.010  -5.659  -3.083  0.00  0.00    +0.028 A 
ATOM     17  C   UNL     1      -5.304  -2.750  -1.248  0.00  0.00    +0.236 C 
ATOM     18  O   UNL     1      -6.261  -3.364  -1.668  0.00  0.00    -0.274 OA
ATOM     19  N   UNL     1      -5.248  -2.033  -0.106  0.00  0.00    -0.273 N 
ATOM     20  C   UNL     1      -6.371  -1.886   0.824  0.00  0.00    +0.138 C 
ATOM     21  H   UNL     1      -1.402  -3.514  -4.668  0.00  0.00    +0.155 HD
ENDROOT
BRANCH  16  22
ATOM     22  C   UNL     1      -1.094  -6.163  -4.131  0.00  0.00    +0.020 A 
ATOM     23  C   UNL     1       0.287  -6.069  -3.960  0.00  0.00    +0.011 A 
ATOM     24  C   UNL     1       1.135  -6.540  -4.940  0.00  0.00    +0.001 A 
ATOM     25  C   UNL     1       0.620  -7.107  -6.093  0.00  0.00    +0.003 A 
ATOM     26  C   UNL     1      -0.748  -7.205  -6.271  0.00  0.00    +0.039 A 
ATOM     27  C   UNL     1      -1.610  -6.742  -5.294  0.00  0.00    +0.131 A 
ATOM     28  F   UNL     1      -2.946  -6.844  -5.465  0.00  0.00    -0.205 F 
ENDBRANCH  16  22
BRANCH   1  30
ATOM     29  C   UNL     1      -0.019   1.526   0.010  0.00  0.00    +0.012 C 
ATOM     30  C   UNL     1       0.002  -0.004   0.002  0.00  0.00    +0.013 C 
ATOM     31  C   UNL     1       0.742  -0.511   1.242  0.00  0.00    +0.012 C 
ENDBRANCH   1  30
BRANCH  15  32
ATOM     32  C   UNL     1      -2.158  -7.828  -1.770  0.00  0.00    +0.394 C 
ATOM     33  O   UNL     1      -2.646  -8.383  -0.792  0.00  0.00    -0.240 OA
ATOM     34  O   UNL     1      -1.411  -8.448  -2.518  0.00  0.00    -0.240 OA
ENDBRANCH  15  32
TORSDOF 3
