REMARK  Name = ZINC12360376
REMARK  4 active torsions:
REMARK  status: ('A' for Active; 'I' for Inactive)
REMARK    1  A    between atoms: C_10  and  N_11
REMARK    2  A    between atoms: N_11  and  C_12
REMARK    3  A    between atoms: C_12  and  C_13
REMARK    4  A    between atoms: N_15  and  N_16
REMARK                            x       y       z     vdW  Elec       q    Type
REMARK                         _______ _______ _______ _____ _____    ______ ____
ROOT
ATOM      1  C   UNL     1       7.285   0.364  -0.199  0.00  0.00    +0.249 C 
ATOM      2  O   UNL     1       7.057   1.528  -0.450  0.00  0.00    -0.272 OA
ATOM      3  N   UNL     1       8.553  -0.046  -0.001  0.00  0.00    -0.205 N 
ATOM      4  H   UNL     1       8.736  -0.977   0.200  0.00  0.00    +0.177 HD
ENDROOT
BRANCH   3   5
ATOM      5  N   UNL     1       9.608   0.872  -0.085  0.00  0.00    -0.174 NA
ATOM      6  C   UNL     1      10.848   0.456   0.000  0.00  0.00    +0.153 C 
ATOM      7  C   UNL     1      11.332  -0.944   0.000  0.00  0.00    +0.030 A 
ATOM      8  C   UNL     1      10.687  -2.174  -0.082  0.00  0.00    +0.027 A 
ATOM      9  C   UNL     1      11.428  -3.339  -0.056  0.00  0.00    +0.020 A 
ATOM     10  C   UNL     1      12.808  -3.281   0.052  0.00  0.00    +0.032 A 
ATOM     11  C   UNL     1      13.457  -2.065   0.135  0.00  0.00    +0.041 A 
ATOM     12  C   UNL     1      12.726  -0.881   0.109  0.00  0.00    +0.057 A 
ATOM     13  N   UNL     1      13.123   0.451   0.176  0.00  0.00    -0.279 N 
ATOM     14  C   UNL     1      12.068   1.281   0.111  0.00  0.00    +0.269 C 
ATOM     15  O   UNL     1      12.111   2.497   0.141  0.00  0.00    -0.268 OA
ATOM     16 BR   UNL     1      15.341  -2.008   0.284  0.00  0.00    -0.048 Br
ATOM     17 BR   UNL     1      10.559  -5.014  -0.168  0.00  0.00    -0.050 Br
ATOM     18  H   UNL     1      14.044   0.743   0.255  0.00  0.00    +0.155 HD
ENDBRANCH   3   5
BRANCH   1  19
ATOM     19  C   UNL     1       6.151  -0.624  -0.108  0.00  0.00    +0.199 C 
BRANCH  19  20
ATOM     20  N   UNL     1       4.882   0.065  -0.361  0.00  0.00    -0.335 N 
ATOM     21  H   UNL     1       4.876   1.016  -0.550  0.00  0.00    +0.147 HD
BRANCH  20  31
ATOM     22  C   UNL     1       0.026   1.254  -1.043  0.00  0.00    +0.001 A 
ATOM     23  C   UNL     1       1.212   1.985  -1.078  0.00  0.00    +0.001 A 
ATOM     24  C   UNL     1       2.412   1.385  -0.849  0.00  0.00    +0.010 A 
ATOM     25  C   UNL     1       2.460   0.009  -0.574  0.00  0.00    +0.003 A 
ATOM     26  C   UNL     1       1.255  -0.735  -0.538  0.00  0.00    -0.016 A 
ATOM     27  C   UNL     1       0.034  -0.081  -0.779  0.00  0.00    +0.008 A 
ATOM     28  C   UNL     1       1.300  -2.112  -0.262  0.00  0.00    +0.008 A 
ATOM     29  C   UNL     1       2.497  -2.720  -0.030  0.00  0.00    +0.002 A 
ATOM     30  C   UNL     1       3.687  -2.000  -0.062  0.00  0.00    +0.023 A 
ATOM     31  C   UNL     1       3.685  -0.647  -0.331  0.00  0.00    +0.035 A 
ENDBRANCH  20  31
ENDBRANCH  19  20
ENDBRANCH   1  19
TORSDOF 4
