REMARK  Name = ZINC66784211
REMARK  7 active torsions:
REMARK  status: ('A' for Active; 'I' for Inactive)
REMARK    1  A    between atoms: C_6  and  C_7
REMARK    2  A    between atoms: C_7  and  N_8
REMARK    3  A    between atoms: N_11  and  C_12
REMARK    4  A    between atoms: C_12  and  C_13
REMARK    5  A    between atoms: N_15  and  N_16
REMARK    6  A    between atoms: C_17  and  C_19
REMARK    7  A    between atoms: C_19  and  C_20
REMARK                            x       y       z     vdW  Elec       q    Type
REMARK                         _______ _______ _______ _____ _____    ______ ____
ROOT
ATOM      1  C   UNL     1      -4.506  -2.652  -3.134  0.00  0.00    +0.203 C 
ENDROOT
BRANCH   1   5
ATOM      2  N   UNL     1      -1.726  -1.017  -1.368  0.00  0.00    -0.295 N 
ATOM      3  C   UNL     1      -2.867  -1.694  -1.606  0.00  0.00    +0.300 C 
ATOM      4  O   UNL     1      -3.537  -2.103  -0.678  0.00  0.00    -0.253 OA
ATOM      5  N   UNL     1      -3.266  -1.917  -2.874  0.00  0.00    -0.291 N 
ATOM      6  H   UNL     1      -1.192  -0.691  -2.108  0.00  0.00    +0.151 HD
ATOM      7  H   UNL     1      -2.731  -1.590  -3.615  0.00  0.00    +0.151 HD
BRANCH   2   8
ATOM      8  C   UNL     1      -1.293  -0.775   0.011  0.00  0.00    +0.141 C 
BRANCH   8  14
ATOM      9  C   UNL     1      -0.017   1.378   0.010  0.00  0.00    +0.006 A 
ATOM     10  C   UNL     1       1.171   2.086   0.002  0.00  0.00    +0.020 A 
ATOM     11  C   UNL     1       2.378   1.410  -0.013  0.00  0.00    +0.041 A 
ATOM     12  C   UNL     1       2.396   0.027  -0.021  0.00  0.00    +0.020 A 
ATOM     13  C   UNL     1       1.208  -0.679  -0.013  0.00  0.00    +0.006 A 
ATOM     14  C   UNL     1       0.002  -0.004   0.002  0.00  0.00    -0.030 A 
ATOM     15 CL   UNL     1       3.870   2.298  -0.023  0.00  0.00    -0.084 Cl
ENDBRANCH   8  14
ENDBRANCH   2   8
ENDBRANCH   1   5
BRANCH   1  16
ATOM     16  C   UNL     1      -4.722  -2.764  -4.621  0.00  0.00    +0.246 C 
ATOM     17  O   UNL     1      -3.919  -2.277  -5.389  0.00  0.00    -0.273 OA
ATOM     18  N   UNL     1      -5.807  -3.405  -5.098  0.00  0.00    -0.233 N 
ATOM     19  H   UNL     1      -6.450  -3.794  -4.484  0.00  0.00    +0.173 HD
BRANCH  18  20
ATOM     20  N   UNL     1      -6.008  -3.509  -6.481  0.00  0.00    -0.234 N 
ATOM     21  C   UNL     1      -7.094  -4.150  -6.957  0.00  0.00    +0.229 C 
ATOM     22  O   UNL     1      -7.897  -4.636  -6.190  0.00  0.00    -0.274 OA
ATOM     23  H   UNL     1      -5.366  -3.120  -7.095  0.00  0.00    +0.173 HD
BRANCH  21  24
ATOM     24  C   UNL     1      -7.310  -4.261  -8.445  0.00  0.00    +0.101 C 
BRANCH  24  25
ATOM     25  C   UNL     1      -8.605  -5.029  -8.716  0.00  0.00    -0.002 C 
ATOM     26  C   UNL     1      -8.458  -6.469  -8.219  0.00  0.00    +0.004 C 
ATOM     27  C   UNL     1      -9.753  -7.237  -8.489  0.00  0.00    +0.000 C 
ATOM     28  C   UNL     1     -10.037  -7.243  -9.993  0.00  0.00    +0.000 C 
ATOM     29  C   UNL     1     -10.185  -5.803 -10.490  0.00  0.00    +0.000 C 
ATOM     30  C   UNL     1      -8.889  -5.035 -10.219  0.00  0.00    +0.004 C 
ENDBRANCH  24  25
ENDBRANCH  21  24
ENDBRANCH  18  20
ENDBRANCH   1  16
TORSDOF 7
