REMARK  Name = ZINC51117192
REMARK  7 active torsions:
REMARK  status: ('A' for Active; 'I' for Inactive)
REMARK    1  A    between atoms: C_1  and  C_2
REMARK    2  A    between atoms: C_5  and  N_9
REMARK    3  A    between atoms: C_6  and  C_8
REMARK    4  A    between atoms: N_9  and  C_10
REMARK    5  A    between atoms: C_11  and  C_13
REMARK    6  A    between atoms: C_15  and  N_20
REMARK    7  A    between atoms: N_20  and  N_21
REMARK                            x       y       z     vdW  Elec       q    Type
REMARK                         _______ _______ _______ _____ _____    ______ ____
ROOT
ATOM      1  N   UNL     1       0.066  -4.152  -0.016  0.00  0.00    -0.270 N 
ATOM      2  C   UNL     1       1.323  -4.905  -0.041  0.00  0.00    +0.138 C 
ATOM      3  C   UNL     1      -1.112  -4.807  -0.014  0.00  0.00    +0.251 C 
ATOM      4  O   UNL     1      -2.153  -4.186  -0.101  0.00  0.00    -0.270 OA
ENDROOT
BRANCH   1   9
ATOM      5  C   UNL     1       0.157   1.519   0.073  0.00  0.00    +0.044 C 
ATOM      6  C   UNL     1       0.133   0.012   0.049  0.00  0.00    -0.050 A 
ATOM      7  C   UNL     1       0.110  -0.659  -1.160  0.00  0.00    +0.005 A 
ATOM      8  C   UNL     1       0.088  -2.039  -1.185  0.00  0.00    +0.024 A 
ATOM      9  C   UNL     1       0.089  -2.754   0.006  0.00  0.00    +0.039 A 
ATOM     10  C   UNL     1       0.113  -2.077   1.218  0.00  0.00    -0.029 A 
ATOM     11  C   UNL     1       0.140  -0.697   1.236  0.00  0.00    +0.008 A 
ATOM     12  C   UNL     1       0.114  -2.849   2.513  0.00  0.00    +0.045 C 
ENDBRANCH   1   9
BRANCH   3  13
ATOM     13  C   UNL     1      -1.138  -6.284   0.094  0.00  0.00    +0.043 A 
ATOM     14  C   UNL     1      -0.197  -6.962   0.871  0.00  0.00    +0.057 A 
ATOM     15  C   UNL     1      -0.259  -8.350   0.944  0.00  0.00    +0.134 A 
ATOM     16  N   UNL     1      -1.193  -9.021   0.289  0.00  0.00    -0.220 NA
ATOM     17  C   UNL     1      -2.098  -8.412  -0.455  0.00  0.00    +0.132 A 
ATOM     18  C   UNL     1      -2.110  -7.036  -0.575  0.00  0.00    +0.053 A 
ATOM     19 CL   UNL     1      -3.294  -9.355  -1.288  0.00  0.00    -0.062 Cl
BRANCH  15  20
ATOM     20  N   UNL     1       0.671  -9.039   1.713  0.00  0.00    -0.267 N 
ATOM     21  H   UNL     1       1.358  -8.553   2.196  0.00  0.00    +0.167 HD
BRANCH  20  22
ATOM     22  N   UNL     1       0.618 -10.402   1.791  0.00  0.00    -0.255 NA
ATOM     23  H   UNL     1       0.658 -10.818   0.872  0.00  0.00    +0.140 HD
ATOM     24  H   UNL     1       1.353 -10.760   2.382  0.00  0.00    +0.140 HD
ENDBRANCH  20  22
ENDBRANCH  15  20
ENDBRANCH   3  13
TORSDOF 4
