REMARK  Name = ZINC32963831
REMARK  8 active torsions:
REMARK  status: ('A' for Active; 'I' for Inactive)
REMARK    1  A    between atoms: C_1  and  C_2
REMARK    2  A    between atoms: C_7  and  C_9
REMARK    3  A    between atoms: C_7  and  C_10
REMARK    4  A    between atoms: N_13  and  C_17
REMARK    5  A    between atoms: C_17  and  C_18
REMARK    6  A    between atoms: N_20  and  C_21
REMARK    7  A    between atoms: C_23  and  C_33
REMARK    8  A    between atoms: C_26  and  N_27
REMARK                            x       y       z     vdW  Elec       q    Type
REMARK                         _______ _______ _______ _____ _____    ______ ____
ROOT
ATOM      1  C   UNL     1      -2.297  -3.327  -4.356  0.00  0.00    +0.235 C 
ATOM      2  O   UNL     1      -1.951  -2.189  -4.592  0.00  0.00    -0.274 OA
ATOM      3  N   UNL     1      -3.321  -3.876  -5.040  0.00  0.00    -0.283 N 
ATOM      4  H   UNL     1      -3.546  -4.810  -4.909  0.00  0.00    +0.155 HD
ENDROOT
BRANCH   3   5
ATOM      5  C   UNL     1      -4.060  -3.096  -5.940  0.00  0.00    +0.055 A 
ATOM      6  C   UNL     1      -4.119  -1.719  -5.782  0.00  0.00    +0.037 A 
ATOM      7  C   UNL     1      -4.849  -0.952  -6.670  0.00  0.00    +0.057 A 
ATOM      8  C   UNL     1      -5.522  -1.553  -7.718  0.00  0.00    +0.014 A 
ATOM      9  C   UNL     1      -5.469  -2.924  -7.883  0.00  0.00    +0.025 A 
ATOM     10  C   UNL     1      -4.734  -3.701  -7.000  0.00  0.00    +0.051 A 
BRANCH  10  11
ATOM     11  N   UNL     1      -4.674  -5.088  -7.169  0.00  0.00    -0.328 N 
ATOM     12  C   UNL     1      -5.671  -5.963  -6.537  0.00  0.00    +0.105 C 
ATOM     13  C   UNL     1      -6.294  -6.859  -7.612  0.00  0.00    +0.019 C 
ATOM     14  C   UNL     1      -5.183  -7.606  -8.354  0.00  0.00    +0.003 C 
ATOM     15  C   UNL     1      -4.259  -6.598  -9.041  0.00  0.00    +0.019 C 
ATOM     16  C   UNL     1      -3.617  -5.698  -7.987  0.00  0.00    +0.105 C 
ENDBRANCH  10  11
BRANCH   7  17
ATOM     17  C   UNL     1      -4.912   0.544  -6.495  0.00  0.00    +0.417 C 
ATOM     18  F   UNL     1      -3.863   1.140  -7.204  0.00  0.00    -0.166 F 
ATOM     19  F   UNL     1      -6.134   1.019  -6.983  0.00  0.00    -0.166 F 
ATOM     20  F   UNL     1      -4.797   0.860  -5.138  0.00  0.00    -0.166 F 
ENDBRANCH   7  17
ENDBRANCH   3   5
BRANCH   1  21
ATOM     21  C   UNL     1      -1.582  -4.129  -3.299  0.00  0.00    +0.214 C 
BRANCH  21  33
ATOM     22  C   UNL     1      -0.034   1.546   0.001  0.00  0.00    +0.007 C 
ATOM     23  C   UNL     1      -0.017   0.014   0.000  0.00  0.00    -0.011 C 
ATOM     24  C   UNL     1       0.714  -0.482  -1.250  0.00  0.00    +0.038 C 
ATOM     25  C   UNL     1       0.694  -2.004  -1.286  0.00  0.00    +0.113 C 
ATOM     26  C   UNL     1       1.237  -2.631  -0.017  0.00  0.00    +0.041 C 
ATOM     27  C   UNL     1       0.756  -2.007   1.281  0.00  0.00    -0.032 C 
ATOM     28  C   UNL     1       0.736  -0.484   1.232  0.00  0.00    +0.009 C 
ATOM     29  C   UNL     1       1.730  -2.429   2.403  0.00  0.00    +0.011 C 
ATOM     30  C   UNL     1      -0.630  -2.539   1.656  0.00  0.00    +0.011 C 
ATOM     31  C   UNL     1      -0.682  -2.517  -1.630  0.00  0.00    +0.247 C 
ATOM     32  O   UNL     1      -1.736  -2.264  -1.086  0.00  0.00    -0.273 OA
ATOM     33  N   UNL     1      -0.517  -3.316  -2.707  0.00  0.00    -0.215 N 
ATOM     34  C   UNL     1       0.739  -3.270  -3.163  0.00  0.00    +0.310 C 
ATOM     35  O   UNL     1       1.130  -3.893  -4.131  0.00  0.00    -0.252 OA
ATOM     36  N   UNL     1       1.520  -2.461  -2.426  0.00  0.00    -0.285 N 
ATOM     37  H   UNL     1       2.441  -2.216  -2.595  0.00  0.00    +0.151 HD
ENDBRANCH  21  33
ENDBRANCH   1  21
TORSDOF 5
