REMARK  Name = ZINC61519228
REMARK  4 active torsions:
REMARK  status: ('A' for Active; 'I' for Inactive)
REMARK    1  A    between atoms: C_1  and  C_2
REMARK    2  A    between atoms: C_5  and  C_8
REMARK    3  A    between atoms: C_5  and  N_10
REMARK    4  A    between atoms: C_8  and  O_9
REMARK                            x       y       z     vdW  Elec       q    Type
REMARK                         _______ _______ _______ _____ _____    ______ ____
ROOT
ATOM      1  C   UNL     1      -0.396   1.500  -0.177  0.00  0.00    +0.007 C 
ATOM      2  C   UNL     1      -0.320  -0.027  -0.139  0.00  0.00    -0.014 C 
ATOM      3  C   UNL     1      -1.718  -0.603   0.094  0.00  0.00    +0.005 C 
ATOM      4  C   UNL     1      -1.641  -2.130   0.132  0.00  0.00    +0.028 C 
ATOM      5  C   UNL     1      -0.714  -2.566   1.268  0.00  0.00    +0.058 C 
ATOM      6  C   UNL     1       0.685  -1.991   1.035  0.00  0.00    +0.028 C 
ATOM      7  C   UNL     1       0.608  -0.463   0.997  0.00  0.00    +0.005 C 
ENDROOT
BRANCH   5   8
ATOM      8  N   UNL     1      -1.238  -2.072   2.544  0.00  0.00    -0.306 N 
ATOM      9  C   UNL     1      -2.505  -2.433   2.955  0.00  0.00    +0.221 A 
ATOM     10  N   UNL     1      -3.208  -3.314   2.250  0.00  0.00    -0.184 NA
ATOM     11  C   UNL     1      -4.422  -3.658   2.647  0.00  0.00    +0.228 A 
ATOM     12  N   UNL     1      -4.937  -3.126   3.745  0.00  0.00    -0.187 NA
ATOM     13  C   UNL     1      -4.239  -2.248   4.449  0.00  0.00    +0.228 A 
ATOM     14  N   UNL     1      -3.023  -1.904   4.060  0.00  0.00    -0.184 NA
ATOM     15 CL   UNL     1      -4.919  -1.552   5.887  0.00  0.00    -0.041 Cl
ATOM     16 CL   UNL     1      -5.341  -4.809   1.728  0.00  0.00    -0.041 Cl
ATOM     17  H   UNL     1      -0.695  -1.491   3.099  0.00  0.00    +0.150 HD
ENDBRANCH   5   8
BRANCH   5  18
ATOM     18  C   UNL     1      -0.637  -4.094   1.306  0.00  0.00    +0.181 C 
BRANCH  18  19
ATOM     19  O   UNL     1       0.124  -4.504   2.444  0.00  0.00    -0.393 OA
ATOM     20  H   UNL     1       0.214  -5.463   2.532  0.00  0.00    +0.209 HD
ENDBRANCH  18  19
ENDBRANCH   5  18
TORSDOF 3
