REMARK  Name = ZINC59384901
REMARK  8 active torsions:
REMARK  status: ('A' for Active; 'I' for Inactive)
REMARK    1  A    between atoms: C_1  and  C_2
REMARK    2  A    between atoms: C_3  and  C_17
REMARK    3  A    between atoms: C_4  and  C_10
REMARK    4  A    between atoms: N_19  and  N_20
REMARK    5  A    between atoms: C_21  and  C_22
REMARK    6  A    between atoms: C_25  and  C_28
REMARK    7  A    between atoms: C_28  and  O_30
REMARK    8  A    between atoms: O_30  and  C_31
REMARK                            x       y       z     vdW  Elec       q    Type
REMARK                         _______ _______ _______ _____ _____    ______ ____
ROOT
ATOM      1  C   UNL     1      -0.132   1.530  -0.041  0.00  0.00    +0.061 C 
ATOM      2  C   UNL     1      -0.065   0.025  -0.022  0.00  0.00    +0.017 C 
ATOM      3  C   UNL     1      -1.210  -0.691  -0.025  0.00  0.00    +0.057 C 
ATOM      4  C   UNL     1      -1.097  -2.202  -0.006  0.00  0.00    +0.141 C 
ATOM      5  N   UNL     1       0.261  -2.770   0.015  0.00  0.00    -0.315 N 
ATOM      6  C   UNL     1       1.310  -1.923   0.015  0.00  0.00    +0.135 C 
ATOM      7  S   UNL     1       2.896  -2.569   0.039  0.00  0.00    -0.019 S 
ATOM      8  N   UNL     1       1.153  -0.594  -0.008  0.00  0.00    -0.300 N 
ATOM      9  H   UNL     1       0.398  -3.730   0.028  0.00  0.00    +0.149 HD
ATOM     10  H   UNL     1       1.948  -0.038  -0.010  0.00  0.00    +0.154 HD
ENDROOT
BRANCH   4  11
ATOM     11  C   UNL     1      -1.829  -2.707   1.211  0.00  0.00    -0.004 A 
ATOM     12  C   UNL     1      -1.148  -2.894   2.399  0.00  0.00    +0.007 A 
ATOM     13  C   UNL     1      -1.820  -3.357   3.515  0.00  0.00    +0.000 A 
ATOM     14  C   UNL     1      -3.172  -3.634   3.444  0.00  0.00    +0.001 A 
ATOM     15  C   UNL     1      -3.854  -3.447   2.256  0.00  0.00    +0.020 A 
ATOM     16  C   UNL     1      -3.184  -2.978   1.140  0.00  0.00    +0.046 A 
ATOM     17 CL   UNL     1      -4.041  -2.738  -0.350  0.00  0.00    -0.083 Cl
ENDBRANCH   4  11
BRANCH   3  18
ATOM     18  C   UNL     1      -2.473  -0.052  -0.045  0.00  0.00    +0.263 C 
ATOM     19  O   UNL     1      -3.089   0.048  -1.091  0.00  0.00    -0.269 OA
ATOM     20  N   UNL     1      -2.994   0.447   1.094  0.00  0.00    -0.203 N 
ATOM     21  H   UNL     1      -2.473   0.434   1.912  0.00  0.00    +0.178 HD
BRANCH  20  22
ATOM     22  N   UNL     1      -4.287   0.986   1.095  0.00  0.00    -0.187 NA
ATOM     23  C   UNL     1      -4.826   1.377   2.210  0.00  0.00    +0.138 C 
BRANCH  23  24
ATOM     24  C   UNL     1      -6.224   1.840   2.230  0.00  0.00    -0.005 A 
ATOM     25  C   UNL     1      -6.974   1.852   1.049  0.00  0.00    +0.010 A 
ATOM     26  C   UNL     1      -8.270   2.282   1.067  0.00  0.00    +0.015 A 
ATOM     27  C   UNL     1      -8.848   2.709   2.267  0.00  0.00    +0.059 A 
ATOM     28  C   UNL     1      -8.100   2.696   3.447  0.00  0.00    +0.015 A 
ATOM     29  C   UNL     1      -6.805   2.262   3.431  0.00  0.00    +0.010 A 
BRANCH  27  30
ATOM     30  C   UNL     1     -10.248   3.173   2.286  0.00  0.00    +0.339 C 
ATOM     31  O   UNL     1     -10.899   3.184   1.260  0.00  0.00    -0.245 OA
BRANCH  30  32
ATOM     32  O   UNL     1     -10.806   3.584   3.442  0.00  0.00    -0.464 OA
ATOM     33  C   UNL     1     -12.166   4.020   3.387  0.00  0.00    +0.280 C 
ENDBRANCH  30  32
ENDBRANCH  27  30
ENDBRANCH  23  24
ENDBRANCH  20  22
ENDBRANCH   3  18
TORSDOF 6
