REMARK  Name = ZINC02122437
REMARK  6 active torsions:
REMARK  status: ('A' for Active; 'I' for Inactive)
REMARK    1  A    between atoms: C_4  and  C_7
REMARK    2  A    between atoms: C_7  and  C_9
REMARK    3  A    between atoms: C_7  and  O_41
REMARK    4  A    between atoms: C_9  and  N_10
REMARK    5  A    between atoms: C_30  and  C_32
REMARK    6  A    between atoms: C_36  and  N_38
REMARK                            x       y       z     vdW  Elec       q    Type
REMARK                         _______ _______ _______ _____ _____    ______ ____
ROOT
ATOM      1  N   UNL     1      -0.211   2.447   3.806  0.00  0.00    -0.288 N 
ATOM      2  C   UNL     1      -0.441   3.850   3.505  0.00  0.00    +0.203 C 
ATOM      3  C   UNL     1      -1.059   4.041   2.158  0.00  0.00    +0.234 C 
ATOM      4  O   UNL     1      -1.320   5.173   1.811  0.00  0.00    -0.274 OA
ATOM      5  N   UNL     1      -1.342   3.050   1.310  0.00  0.00    -0.276 N 
ATOM      6  C   UNL     1      -1.002   1.652   1.576  0.00  0.00    +0.167 C 
ATOM      7  C   UNL     1      -0.461   1.456   2.952  0.00  0.00    +0.237 C 
ATOM      8  O   UNL     1      -0.233   0.322   3.317  0.00  0.00    -0.274 OA
ATOM      9  C   UNL     1       0.029   1.179   0.541  0.00  0.00    +0.069 C 
ATOM     10  C   UNL     1      -0.406   1.639  -0.827  0.00  0.00    -0.015 A 
ATOM     11  C   UNL     1       0.040   1.159  -2.119  0.00  0.00    +0.003 A 
ATOM     12  C   UNL     1       0.957   0.174  -2.499  0.00  0.00    +0.010 A 
ATOM     13  C   UNL     1       1.137  -0.018  -3.847  0.00  0.00    +0.001 A 
ATOM     14  C   UNL     1       0.450   0.722  -4.795  0.00  0.00    +0.002 A 
ATOM     15  C   UNL     1      -0.464   1.702  -4.447  0.00  0.00    +0.026 A 
ATOM     16  C   UNL     1      -0.668   1.919  -3.086  0.00  0.00    +0.047 A 
ATOM     17  N   UNL     1      -1.476   2.786  -2.408  0.00  0.00    -0.356 N 
ATOM     18  H   UNL     1      -2.074   3.429  -2.820  0.00  0.00    +0.166 HD
ATOM     19  C   UNL     1      -1.314   2.611  -1.059  0.00  0.00    +0.046 A 
ATOM     20  C   UNL     1      -2.027   3.367   0.039  0.00  0.00    +0.154 C 
ENDROOT
BRANCH  20  21
ATOM     21  C   UNL     1      -1.954   4.848  -0.227  0.00  0.00    -0.019 A 
ATOM     22  C   UNL     1      -0.737   5.441  -0.504  0.00  0.00    +0.006 A 
ATOM     23  C   UNL     1      -0.669   6.800  -0.748  0.00  0.00    +0.003 A 
ATOM     24  C   UNL     1      -1.820   7.566  -0.715  0.00  0.00    +0.033 A 
ATOM     25  C   UNL     1      -3.037   6.973  -0.438  0.00  0.00    +0.127 A 
ATOM     26  C   UNL     1      -3.105   5.613  -0.199  0.00  0.00    +0.038 A 
BRANCH  25  27
ATOM     27  N   UNL     1      -4.269   7.793  -0.403  0.00  0.00    +0.056 N 
ATOM     28  O   UNL     1      -4.210   8.991  -0.617  0.00  0.00    -0.126 OA
ATOM     29  O   UNL     1      -5.342   7.271  -0.159  0.00  0.00    -0.126 OA
ENDBRANCH  25  27
ENDBRANCH  20  21
BRANCH   1  30
ATOM     30  C   UNL     1       0.328   2.103   5.124  0.00  0.00    +0.144 C 
BRANCH  30  31
ATOM     31  C   UNL     1      -0.826   1.875   6.103  0.00  0.00    +0.162 C 
BRANCH  31  35
ATOM     32  C   UNL     1       0.740   1.216  10.022  0.00  0.00    +0.000 A 
ATOM     33  C   UNL     1       0.246   2.459   9.675  0.00  0.00    +0.000 A 
ATOM     34  C   UNL     1      -0.261   2.672   8.407  0.00  0.00    +0.006 A 
ATOM     35  C   UNL     1      -0.273   1.642   7.485  0.00  0.00    -0.018 A 
ATOM     36  C   UNL     1       0.216   0.397   7.834  0.00  0.00    +0.006 A 
ATOM     37  C   UNL     1       0.727   0.185   9.101  0.00  0.00    +0.000 A 
ENDBRANCH  31  35
BRANCH  31  38
ATOM     38  O   UNL     1      -1.579   0.732   5.692  0.00  0.00    -0.386 OA
ATOM     39  H   UNL     1      -1.066  -0.087   5.661  0.00  0.00    +0.210 HD
ENDBRANCH  31  38
ENDBRANCH  30  31
ENDBRANCH   1  30
TORSDOF 6
