REMARK  Name = ZINC51257224
REMARK  6 active torsions:
REMARK  status: ('A' for Active; 'I' for Inactive)
REMARK    1  A    between atoms: C_1  and  C_2
REMARK    2  A    between atoms: C_2  and  C_20
REMARK    3  A    between atoms: N_5  and  C_9
REMARK    4  A    between atoms: C_9  and  C_10
REMARK    5  A    between atoms: C_10  and  C_12
REMARK    6  A    between atoms: C_10  and  O_19
REMARK                            x       y       z     vdW  Elec       q    Type
REMARK                         _______ _______ _______ _____ _____    ______ ____
ROOT
ATOM      1  C   UNL     1       0.073   1.524   0.050  0.00  0.00    +0.047 C 
ATOM      2  C   UNL     1       0.002  -0.004   0.002  0.00  0.00    +0.136 C 
ATOM      3  C   UNL     1      -1.422  -0.478   0.215  0.00  0.00    +0.251 C 
ATOM      4  O   UNL     1      -2.386  -0.238  -0.479  0.00  0.00    -0.272 OA
ATOM      5  N   UNL     1      -1.393  -1.224   1.338  0.00  0.00    -0.221 N 
ATOM      6  C   UNL     1      -0.162  -1.286   1.858  0.00  0.00    +0.310 C 
ATOM      7  O   UNL     1       0.114  -1.900   2.869  0.00  0.00    -0.252 OA
ATOM      8  N   UNL     1       0.737  -0.593   1.135  0.00  0.00    -0.281 N 
ATOM      9  H   UNL     1       1.683  -0.499   1.324  0.00  0.00    +0.152 HD
ENDROOT
BRANCH   2  10
ATOM     10  C   UNL     1       0.545  -0.518  -1.306  0.00  0.00    -0.008 A 
ATOM     11  C   UNL     1       1.602  -1.376  -1.319  0.00  0.00    +0.007 A 
ATOM     12  C   UNL     1       2.118  -1.862  -2.518  0.00  0.00    +0.001 A 
ATOM     13  C   UNL     1       1.580  -1.492  -3.713  0.00  0.00    +0.008 A 
ATOM     14  C   UNL     1       0.488  -0.609  -3.740  0.00  0.00    -0.018 A 
ATOM     15  C   UNL     1      -0.040  -0.119  -2.520  0.00  0.00    -0.012 A 
ATOM     16  C   UNL     1      -1.136   0.760  -2.547  0.00  0.00    +0.009 A 
ATOM     17  C   UNL     1      -1.677   1.125  -3.741  0.00  0.00    +0.001 A 
ATOM     18  C   UNL     1      -1.161   0.639  -4.941  0.00  0.00    +0.001 A 
ATOM     19  C   UNL     1      -0.093  -0.204  -4.954  0.00  0.00    +0.008 A 
ENDBRANCH   2  10
BRANCH   5  20
ATOM     20  C   UNL     1      -2.565  -1.884   1.917  0.00  0.00    +0.154 C 
BRANCH  20  21
ATOM     21  C   UNL     1      -2.700  -3.291   1.331  0.00  0.00    +0.162 C 
BRANCH  21  22
ATOM     22  C   UNL     1      -3.906  -3.970   1.927  0.00  0.00    -0.015 A 
ATOM     23  C   UNL     1      -5.157  -3.769   1.373  0.00  0.00    +0.006 A 
ATOM     24  C   UNL     1      -6.264  -4.391   1.919  0.00  0.00    +0.003 A 
ATOM     25  C   UNL     1      -6.122  -5.216   3.019  0.00  0.00    +0.038 A 
ATOM     26  C   UNL     1      -4.870  -5.418   3.574  0.00  0.00    +0.124 A 
ATOM     27  C   UNL     1      -3.760  -4.799   3.023  0.00  0.00    +0.044 A 
ATOM     28  F   UNL     1      -4.729  -6.224   4.650  0.00  0.00    -0.205 F 
ENDBRANCH  21  22
BRANCH  21  29
ATOM     29  O   UNL     1      -2.856  -3.203  -0.087  0.00  0.00    -0.386 OA
ATOM     30  H   UNL     1      -3.633  -2.701  -0.367  0.00  0.00    +0.210 HD
ENDBRANCH  21  29
ENDBRANCH  20  21
ENDBRANCH   5  20
TORSDOF 5
