REMARK  Name = ZINC11468794
REMARK  12 active torsions:
REMARK  status: ('A' for Active; 'I' for Inactive)
REMARK    1  A    between atoms: C_1  and  C_2
REMARK    2  A    between atoms: C_6  and  N_9
REMARK    3  A    between atoms: C_7  and  C_8
REMARK    4  A    between atoms: C_10  and  C_12
REMARK    5  A    between atoms: C_12  and  N_65
REMARK    6  A    between atoms: C_13  and  C_14
REMARK    7  A    between atoms: C_13  and  N_65
REMARK    8  A    between atoms: C_14  and  O_15
REMARK    9  A    between atoms: O_15  and  C_16
REMARK   10  A    between atoms: C_17  and  C_18
REMARK   11  A    between atoms: C_17  and  N_65
REMARK   12  A    between atoms: C_28  and  C_30
REMARK                            x       y       z     vdW  Elec       q    Type
REMARK                         _______ _______ _______ _____ _____    ______ ____
ROOT
ATOM      1  N   UNL     1      -6.108   2.894  -0.060  0.00  0.00    +0.393 N 
ATOM      2  H   UNL     1      -6.209   2.485  -0.997  0.00  0.00    -0.080 HD
ENDROOT
BRANCH   1   3
ATOM      3  C   UNL     1      -4.910   3.759  -0.041  0.00  0.00    +0.020 C 
BRANCH   3   5
ATOM      4  N   UNL     1      -2.525   3.560  -0.668  0.00  0.00    -0.287 N 
ATOM      5  C   UNL     1      -3.736   2.976  -0.570  0.00  0.00    +0.201 C 
ATOM      6  O   UNL     1      -3.881   1.820  -0.908  0.00  0.00    -0.278 OA
ATOM      7  H   UNL     1      -2.391   4.459  -0.329  0.00  0.00    +0.155 HD
BRANCH   4  13
ATOM      8  C   UNL     1       2.317   2.885  -1.183  0.00  0.00    +0.044 C 
ATOM      9  C   UNL     1       0.896   2.523  -1.528  0.00  0.00    -0.046 A 
ATOM     10  C   UNL     1       0.642   1.507  -2.432  0.00  0.00    +0.004 A 
ATOM     11  C   UNL     1      -0.661   1.171  -2.751  0.00  0.00    +0.002 A 
ATOM     12  C   UNL     1      -1.713   1.853  -2.172  0.00  0.00    +0.023 A 
ATOM     13  C   UNL     1      -1.462   2.870  -1.260  0.00  0.00    +0.036 A 
ATOM     14  C   UNL     1      -0.152   3.205  -0.942  0.00  0.00    -0.026 A 
ATOM     15  C   UNL     1       0.126   4.311   0.043  0.00  0.00    +0.046 C 
ENDBRANCH   4  13
ENDBRANCH   3   5
ENDBRANCH   1   3
BRANCH   1  16
ATOM     16  C   UNL     1      -5.958   1.803   0.926  0.00  0.00    -0.049 C 
BRANCH  16  17
ATOM     17  C   UNL     1      -5.827   2.373   2.340  0.00  0.00    +0.141 C 
BRANCH  17  18
ATOM     18  O   UNL     1      -7.093   2.877   2.770  0.00  0.00    -0.385 OA
ATOM     19  C   UNL     1      -7.081   3.435   4.085  0.00  0.00    +0.193 C 
ENDBRANCH  17  18
ENDBRANCH  16  17
ENDBRANCH   1  16
BRANCH   1  20
ATOM     20  C   UNL     1      -7.313   3.692   0.248  0.00  0.00    +0.020 C 
BRANCH  20  21
ATOM     21  C   UNL     1      -8.534   2.864  -0.055  0.00  0.00    +0.200 C 
ATOM     22  O   UNL     1      -8.413   1.704  -0.389  0.00  0.00    -0.278 OA
ATOM     23  N   UNL     1      -9.762   3.411   0.045  0.00  0.00    -0.291 N 
ATOM     24  C   UNL     1      -9.921   4.816   0.449  0.00  0.00    +0.114 C 
ATOM     25  C   UNL     1     -10.528   5.592  -0.730  0.00  0.00    +0.062 C 
ATOM     26  C   UNL     1     -11.623   4.771  -1.330  0.00  0.00    -0.003 A 
ATOM     27  C   UNL     1     -11.863   3.443  -1.158  0.00  0.00    -0.012 A 
ATOM     28  C   UNL     1     -12.956   2.911  -1.841  0.00  0.00    +0.013 A 
ATOM     29  C   UNL     1     -13.718   3.709  -2.623  0.00  0.00    +0.046 A 
ATOM     30  S   UNL     1     -12.912   5.291  -2.432  0.00  0.00    -0.101 S 
ATOM     31  C   UNL     1     -10.960   2.614  -0.254  0.00  0.00    +0.144 C 
BRANCH  31  32
ATOM     32  C   UNL     1     -11.687   2.286   1.025  0.00  0.00    +0.015 A 
ATOM     33  C   UNL     1     -12.294   1.131   1.389  0.00  0.00    +0.013 A 
ATOM     34  C   UNL     1     -12.905   1.056   2.626  0.00  0.00    +0.008 A 
ATOM     35  C   UNL     1     -12.879   2.140   3.439  0.00  0.00    +0.045 A 
ATOM     36  S   UNL     1     -11.964   3.316   2.456  0.00  0.00    -0.099 S 
ENDBRANCH  31  32
ENDBRANCH  20  21
ENDBRANCH   1  20
TORSDOF 9
