REMARK  Name = ZINC02247726
REMARK  4 active torsions:
REMARK  status: ('A' for Active; 'I' for Inactive)
REMARK    1  A    between atoms: C_1  and  S_2
REMARK    2  A    between atoms: S_2  and  C_3
REMARK    3  A    between atoms: C_6  and  C_29
REMARK    4  A    between atoms: C_17  and  C_19
REMARK                            x       y       z     vdW  Elec       q    Type
REMARK                         _______ _______ _______ _____ _____    ______ ____
ROOT
ATOM      1  C   UNL     1      -1.345  -2.114  -0.278  0.00  0.00    +0.210 A 
ATOM      2  N   UNL     1      -2.243  -3.075  -0.290  0.00  0.00    -0.141 NA
ATOM      3  N   UNL     1      -3.486  -2.467  -0.117  0.00  0.00    -0.220 N 
ATOM      4  C   UNL     1      -4.814  -3.064  -0.044  0.00  0.00    +0.172 C 
ATOM      5  C   UNL     1      -5.873  -1.998  -0.172  0.00  0.00    +0.025 C 
ATOM      6  C   UNL     1      -5.590  -0.697  -0.074  0.00  0.00    +0.050 C 
ATOM      7  C   UNL     1      -6.697   0.279  -0.222  0.00  0.00    +0.038 A 
ATOM      8  C   UNL     1      -6.564   1.597   0.196  0.00  0.00    +0.013 A 
ATOM      9  C   UNL     1      -7.621   2.472   0.035  0.00  0.00    +0.001 A 
ATOM     10  C   UNL     1      -8.805   2.040  -0.538  0.00  0.00    +0.004 A 
ATOM     11  C   UNL     1      -8.945   0.728  -0.955  0.00  0.00    +0.046 A 
ATOM     12  C   UNL     1      -7.896  -0.158  -0.800  0.00  0.00    +0.131 A 
ATOM     13  O   UNL     1      -7.995  -1.454  -1.192  0.00  0.00    -0.479 OA
ATOM     14  C   UNL     1      -7.304  -2.425  -0.407  0.00  0.00    +0.235 C 
ATOM     15  N   UNL     1      -4.290  -0.231   0.154  0.00  0.00    -0.283 N 
ATOM     16  C   UNL     1      -3.253  -1.135  -0.015  0.00  0.00    +0.220 A 
ATOM     17  N   UNL     1      -1.966  -0.938  -0.104  0.00  0.00    -0.187 NA
ATOM     18  H   UNL     1      -4.122   0.687   0.418  0.00  0.00    +0.155 HD
ENDROOT
BRANCH  14  19
ATOM     19  C   UNL     1      -8.001  -2.578   0.920  0.00  0.00    +0.015 A 
ATOM     20  C   UNL     1      -8.384  -1.458   1.634  0.00  0.00    +0.009 A 
ATOM     21  C   UNL     1      -9.023  -1.598   2.851  0.00  0.00    +0.000 A 
ATOM     22  C   UNL     1      -9.281  -2.860   3.356  0.00  0.00    +0.001 A 
ATOM     23  C   UNL     1      -8.899  -3.981   2.643  0.00  0.00    +0.020 A 
ATOM     24  C   UNL     1      -8.264  -3.840   1.422  0.00  0.00    +0.048 A 
ATOM     25 CL   UNL     1      -7.789  -5.248   0.523  0.00  0.00    -0.083 Cl
ENDBRANCH  14  19
BRANCH   4  26
ATOM     26  C   UNL     1      -4.974  -3.766   1.280  0.00  0.00    -0.019 A 
ATOM     27  C   UNL     1      -5.054  -3.030   2.447  0.00  0.00    +0.009 A 
ATOM     28  C   UNL     1      -5.201  -3.672   3.662  0.00  0.00    +0.039 A 
ATOM     29  C   UNL     1      -5.268  -5.054   3.709  0.00  0.00    +0.123 A 
ATOM     30  C   UNL     1      -5.188  -5.791   2.540  0.00  0.00    +0.039 A 
ATOM     31  C   UNL     1      -5.046  -5.146   1.326  0.00  0.00    +0.009 A 
ATOM     32  F   UNL     1      -5.412  -5.683   4.896  0.00  0.00    -0.205 F 
ENDBRANCH   4  26
BRANCH   1  34
ATOM     33  C   UNL     1       1.065  -0.655  -0.346  0.00  0.00    +0.093 C 
ATOM     34  S   UNL     1       0.394  -2.337  -0.456  0.00  0.00    -0.088 S 
ENDBRANCH   1  34
TORSDOF 3
