REMARK  Name = ZINC44658345
REMARK  7 active torsions:
REMARK  status: ('A' for Active; 'I' for Inactive)
REMARK    1  A    between atoms: C_1  and  C_2
REMARK    2  A    between atoms: C_2  and  C_4
REMARK    3  A    between atoms: C_2  and  S_11
REMARK    4  A    between atoms: N_9  and  C_10
REMARK    5  A    between atoms: S_11  and  C_12
REMARK    6  A    between atoms: C_16  and  C_25
REMARK    7  A    between atoms: N_17  and  C_18
REMARK                            x       y       z     vdW  Elec       q    Type
REMARK                         _______ _______ _______ _____ _____    ______ ____
ROOT
ATOM      1  C   UNL     1      -2.200   0.042   1.697  0.00  0.00    +0.242 C 
ATOM      2  N   UNL     1      -1.250  -0.277   2.775  0.00  0.00    -0.237 N 
ATOM      3  N   UNL     1      -0.866   0.944   3.341  0.00  0.00    -0.169 NA
ATOM      4  C   UNL     1      -1.457   1.949   2.749  0.00  0.00    +0.151 C 
ATOM      5  N   UNL     1      -2.303   1.510   1.722  0.00  0.00    -0.254 N 
ATOM      6  H   UNL     1      -0.949  -1.160   3.041  0.00  0.00    +0.171 HD
ENDROOT
BRANCH   4   7
ATOM      7  C   UNL     1      -1.269   3.295   3.098  0.00  0.00    +0.022 C 
ATOM      8  C   UNL     1      -0.527   3.793   4.169  0.00  0.00    +0.006 A 
ATOM      9  C   UNL     1       0.225   3.162   5.183  0.00  0.00    +0.010 A 
ATOM     10  C   UNL     1       0.860   3.914   6.119  0.00  0.00    +0.001 A 
ATOM     11  C   UNL     1       0.788   5.309   6.107  0.00  0.00    +0.002 A 
ATOM     12  C   UNL     1       0.084   5.981   5.163  0.00  0.00    +0.026 A 
ATOM     13  C   UNL     1      -0.605   5.263   4.152  0.00  0.00    +0.043 A 
ATOM     14  N   UNL     1      -1.345   5.673   3.141  0.00  0.00    -0.380 N 
ATOM     15  C   UNL     1      -1.823   4.510   2.388  0.00  0.00    +0.152 C 
ATOM     16  H   UNL     1      -1.540   6.599   2.927  0.00  0.00    +0.160 HD
ENDBRANCH   4   7
BRANCH   5  17
ATOM     17  C   UNL     1      -3.089   2.308   0.886  0.00  0.00    +0.038 A 
ATOM     18  C   UNL     1      -4.473   2.290   1.006  0.00  0.00    +0.025 A 
ATOM     19  C   UNL     1      -5.247   3.079   0.178  0.00  0.00    +0.022 A 
ATOM     20  C   UNL     1      -4.645   3.886  -0.771  0.00  0.00    +0.041 A 
ATOM     21  C   UNL     1      -3.267   3.906  -0.894  0.00  0.00    +0.022 A 
ATOM     22  C   UNL     1      -2.487   3.124  -0.064  0.00  0.00    +0.025 A 
ATOM     23 CL   UNL     1      -5.622   4.876  -1.810  0.00  0.00    -0.084 Cl
ENDBRANCH   5  17
BRANCH   1  24
ATOM     24  S   UNL     1      -1.558  -0.522   0.097  0.00  0.00    -0.105 S 
BRANCH  24  26
ATOM     25  C   UNL     1       0.168   1.593  -0.076  0.00  0.00    +0.029 C 
ATOM     26  C   UNL     1       0.156   0.071   0.079  0.00  0.00    +0.133 C 
BRANCH  26  27
ATOM     27  C   UNL     1       0.892  -0.556  -1.077  0.00  0.00    +0.233 C 
ATOM     28  O   UNL     1       0.279  -0.940  -2.050  0.00  0.00    -0.274 OA
ATOM     29  N   UNL     1       2.232  -0.691  -1.028  0.00  0.00    -0.239 N 
ATOM     30  C   UNL     1       2.891  -1.252  -2.062  0.00  0.00    +0.306 C 
ATOM     31  O   UNL     1       2.276  -1.637  -3.037  0.00  0.00    -0.252 OA
ATOM     32  N   UNL     1       4.231  -1.387  -2.014  0.00  0.00    -0.302 N 
ATOM     33  C   UNL     1       4.947  -1.997  -3.137  0.00  0.00    +0.129 C 
ATOM     34  H   UNL     1       2.723  -0.384  -0.250  0.00  0.00    +0.159 HD
ATOM     35  H   UNL     1       4.722  -1.080  -1.235  0.00  0.00    +0.150 HD
ENDBRANCH  26  27
ENDBRANCH  24  26
ENDBRANCH   1  24
TORSDOF 5
