REMARK  Name = ZINC38847910
REMARK  6 active torsions:
REMARK  status: ('A' for Active; 'I' for Inactive)
REMARK    1  A    between atoms: C_1  and  C_2
REMARK    2  A    between atoms: C_4  and  C_14
REMARK    3  A    between atoms: N_16  and  C_17
REMARK    4  A    between atoms: C_17  and  C_18
REMARK    5  A    between atoms: C_18  and  C_19
REMARK    6  A    between atoms: C_19  and  N_20
REMARK                            x       y       z     vdW  Elec       q    Type
REMARK                         _______ _______ _______ _____ _____    ______ ____
ROOT
ATOM      1  C   UNL     1      -2.248   0.095  -0.952  0.00  0.00    +0.266 C 
ATOM      2  O   UNL     1      -2.777  -0.643  -1.755  0.00  0.00    -0.271 OA
ATOM      3  N   UNL     1      -2.132   1.411  -1.220  0.00  0.00    -0.247 N 
ATOM      4  C   UNL     1      -1.454   2.240  -0.341  0.00  0.00    +0.168 A 
ATOM      5  N   UNL     1      -1.333   3.546  -0.369  0.00  0.00    -0.224 NA
ATOM      6  C   UNL     1      -0.635   4.231   0.563  0.00  0.00    +0.080 A 
ATOM      7  C   UNL     1      -0.428   5.628   0.647  0.00  0.00    +0.030 A 
ATOM      8  C   UNL     1       0.313   6.166   1.667  0.00  0.00    +0.017 A 
ATOM      9  C   UNL     1       0.883   5.367   2.648  0.00  0.00    +0.019 A 
ATOM     10  C   UNL     1       0.700   3.997   2.597  0.00  0.00    +0.032 A 
ATOM     11  C   UNL     1      -0.041   3.450   1.579  0.00  0.00    +0.042 A 
ATOM     12  S   UNL     1      -0.531   1.803   1.126  0.00  0.00    -0.052 S 
ATOM     13 BR   UNL     1       1.900   6.144   4.040  0.00  0.00    -0.050 Br
ENDROOT
BRANCH   1  16
ATOM     14  C   UNL     1      -0.966  -2.547  -0.813  0.00  0.00    +0.056 C 
ATOM     15  C   UNL     1      -1.814  -1.990   0.332  0.00  0.00    +0.220 C 
ATOM     16  C   UNL     1      -1.722  -0.458   0.347  0.00  0.00    +0.299 C 
ATOM     17  O   UNL     1      -2.513   0.028   1.437  0.00  0.00    -0.472 OA
ATOM     18  C   UNL     1      -2.358  -0.601   2.634  0.00  0.00    +0.163 A 
ATOM     19  C   UNL     1      -2.798   0.022   3.792  0.00  0.00    +0.049 A 
ATOM     20  C   UNL     1      -2.650  -0.606   5.015  0.00  0.00    +0.004 A 
ATOM     21  C   UNL     1      -2.065  -1.856   5.086  0.00  0.00    +0.004 A 
ATOM     22  C   UNL     1      -1.623  -2.482   3.936  0.00  0.00    +0.049 A 
ATOM     23  C   UNL     1      -1.766  -1.857   2.706  0.00  0.00    +0.163 A 
ATOM     24  O   UNL     1      -1.320  -2.482   1.583  0.00  0.00    -0.481 OA
ENDBRANCH   1  16
BRANCH   3  25
ATOM     25  C   UNL     1      -2.721   1.964  -2.442  0.00  0.00    +0.117 C 
BRANCH  25  26
ATOM     26  C   UNL     1      -4.157   2.410  -2.159  0.00  0.00    +0.041 C 
BRANCH  26  27
ATOM     27  C   UNL     1      -4.772   2.988  -3.435  0.00  0.00    +0.124 C 
BRANCH  27  28
ATOM     28  N   UNL     1      -6.147   3.416  -3.164  0.00  0.00    -0.338 N 
ATOM     29  C   UNL     1      -7.275   2.649  -3.285  0.00  0.00    +0.104 A 
ATOM     30  C   UNL     1      -8.316   3.430  -2.938  0.00  0.00    +0.101 A 
ATOM     31  N   UNL     1      -7.836   4.641  -2.614  0.00  0.00    -0.352 N 
ATOM     32  C   UNL     1      -6.538   4.638  -2.742  0.00  0.00    +0.173 A 
ATOM     33  H   UNL     1      -8.371   5.397  -2.327  0.00  0.00    +0.166 HD
ENDBRANCH  27  28
ENDBRANCH  26  27
ENDBRANCH  25  26
ENDBRANCH   3  25
TORSDOF 5
