REMARK  Name = ZINC16022896
REMARK  7 active torsions:
REMARK  status: ('A' for Active; 'I' for Inactive)
REMARK    1  A    between atoms: C_1  and  C_2
REMARK    2  A    between atoms: C_5  and  N_8
REMARK    3  A    between atoms: N_8  and  C_9
REMARK    4  A    between atoms: N_8  and  S_10
REMARK    5  A    between atoms: S_10  and  C_13
REMARK    6  A    between atoms: C_17  and  C_19
REMARK    7  A    between atoms: C_29  and  C_31
REMARK                            x       y       z     vdW  Elec       q    Type
REMARK                         _______ _______ _______ _____ _____    ______ ____
ROOT
ATOM      1  C   UNL     1       4.541   3.934   0.088  0.00  0.00    +0.109 A 
ATOM      2  C   UNL     1       4.265   5.259   0.375  0.00  0.00    +0.029 A 
ATOM      3  C   UNL     1       2.983   5.755   0.221  0.00  0.00    +0.003 A 
ATOM      4  C   UNL     1       1.970   4.929  -0.221  0.00  0.00    +0.013 A 
ATOM      5  C   UNL     1       2.241   3.591  -0.512  0.00  0.00    +0.039 A 
ATOM      6  C   UNL     1       3.536   3.096  -0.349  0.00  0.00    +0.042 A 
ENDROOT
BRANCH   5   7
ATOM      7  C   UNL     1       1.161   2.700  -0.985  0.00  0.00    +0.251 C 
ATOM      8  O   UNL     1       1.434   1.655  -1.542  0.00  0.00    -0.270 OA
ATOM      9  N   UNL     1      -0.129   3.050  -0.804  0.00  0.00    -0.264 N 
ATOM     10  C   UNL     1      -1.227   2.235  -1.091  0.00  0.00    +0.040 A 
ATOM     11  C   UNL     1      -1.256   0.936  -1.605  0.00  0.00    +0.024 A 
ATOM     12  C   UNL     1      -2.460   0.300  -1.817  0.00  0.00    +0.002 A 
ATOM     13  C   UNL     1      -3.649   0.943  -1.524  0.00  0.00    +0.000 A 
ATOM     14  C   UNL     1      -3.628   2.228  -1.015  0.00  0.00    +0.005 A 
ATOM     15  C   UNL     1      -2.424   2.870  -0.800  0.00  0.00    -0.024 A 
ATOM     16  C   UNL     1      -2.118   4.250  -0.263  0.00  0.00    +0.059 C 
ATOM     17  C   UNL     1      -0.583   4.337  -0.272  0.00  0.00    +0.083 C 
ATOM     18  C   UNL     1      -0.052   4.542   1.148  0.00  0.00    +0.029 C 
ENDBRANCH   5   7
BRANCH   1  19
ATOM     19  S   UNL     1       6.178   3.314   0.288  0.00  0.00    +0.074 S 
ATOM     20  O   UNL     1       6.229   2.071  -0.400  0.00  0.00    -0.150 OA
ATOM     21  O   UNL     1       7.059   4.387  -0.013  0.00  0.00    -0.150 OA
BRANCH  19  22
ATOM     22  N   UNL     1       6.380   2.972   1.896  0.00  0.00    -0.206 N 
ATOM     23  C   UNL     1       6.727   4.043   2.834  0.00  0.00    +0.157 C 
BRANCH  22  28
ATOM     24  C   UNL     1       5.720  -2.338   3.773  0.00  0.00    +0.044 C 
ATOM     25  C   UNL     1       5.896  -0.927   3.274  0.00  0.00    -0.050 A 
ATOM     26  C   UNL     1       6.723  -0.052   3.954  0.00  0.00    +0.005 A 
ATOM     27  C   UNL     1       6.885   1.242   3.500  0.00  0.00    +0.025 A 
ATOM     28  C   UNL     1       6.218   1.664   2.358  0.00  0.00    +0.051 A 
ATOM     29  C   UNL     1       5.384   0.785   1.679  0.00  0.00    +0.025 A 
ATOM     30  C   UNL     1       5.229  -0.509   2.136  0.00  0.00    +0.005 A 
ENDBRANCH  22  28
ENDBRANCH  19  22
ENDBRANCH   1  19
TORSDOF 4
