REMARK  Name = ZINC43221685
REMARK  10 active torsions:
REMARK  status: ('A' for Active; 'I' for Inactive)
REMARK    1  A    between atoms: C_1  and  C_2
REMARK    2  A    between atoms: C_2  and  C_3
REMARK    3  A    between atoms: C_3  and  C_5
REMARK    4  A    between atoms: C_3  and  C_6
REMARK    5  A    between atoms: C_6  and  C_30
REMARK    6  A    between atoms: C_11  and  C_14
REMARK    7  A    between atoms: C_16  and  O_23
REMARK    8  A    between atoms: C_17  and  O_21
REMARK    9  A    between atoms: O_21  and  C_22
REMARK   10  A    between atoms: O_23  and  C_24
REMARK                            x       y       z     vdW  Elec       q    Type
REMARK                         _______ _______ _______ _____ _____    ______ ____
ROOT
ATOM      1  C   UNL     1       0.757  -2.146  -1.409  0.00  0.00    +0.051 C 
ATOM      2  C   UNL     1       1.367  -2.764  -2.661  0.00  0.00    +0.088 C 
ATOM      3  C   UNL     1       0.544  -4.108  -2.633  0.00  0.00    +0.078 C 
ATOM      4  C   UNL     1      -0.839  -3.658  -2.439  0.00  0.00    -0.026 C 
ATOM      5  N   UNL     1      -0.707  -2.432  -1.568  0.00  0.00    +0.396 N 
ATOM      6  C   UNL     1       1.328  -4.965  -3.489  0.00  0.00    +0.242 C 
ATOM      7  O   UNL     1       0.881  -5.974  -4.250  0.00  0.00    -0.273 OA
ATOM      8  N   UNL     1       2.589  -4.546  -3.367  0.00  0.00    -0.145 NA
ATOM      9  C   UNL     1       2.727  -3.389  -2.641  0.00  0.00    +0.242 C 
ATOM     10  O   UNL     1       3.724  -2.964  -2.095  0.00  0.00    -0.273 OA
ATOM     11  H   UNL     1      -1.124  -2.598  -0.664  0.00  0.00    -0.083 HD
ATOM     12  H   UNL     1      -1.161  -1.652  -2.018  0.00  0.00    -0.083 HD
ENDROOT
BRANCH   4  13
ATOM     13  C   UNL     1      -1.476  -3.327  -3.764  0.00  0.00    -0.056 A 
ATOM     14  C   UNL     1      -2.313  -4.243  -4.375  0.00  0.00    +0.051 A 
ATOM     15  C   UNL     1      -2.899  -3.940  -5.594  0.00  0.00    +0.163 A 
ATOM     16  C   UNL     1      -2.643  -2.714  -6.200  0.00  0.00    +0.175 A 
ATOM     17  C   UNL     1      -1.804  -1.801  -5.583  0.00  0.00    +0.063 A 
ATOM     18  C   UNL     1      -1.226  -2.107  -4.364  0.00  0.00    +0.021 A 
ATOM     19 BR   UNL     1      -1.453  -0.134  -6.403  0.00  0.00    -0.046 Br
BRANCH  16  20
ATOM     20  O   UNL     1      -3.216  -2.413  -7.397  0.00  0.00    -0.490 OA
ATOM     21  C   UNL     1      -4.487  -1.762  -7.362  0.00  0.00    +0.277 C 
ENDBRANCH  16  20
BRANCH  15  22
ATOM     22  O   UNL     1      -3.722  -4.840  -6.196  0.00  0.00    -0.491 OA
ATOM     23  C   UNL     1      -3.938  -6.078  -5.515  0.00  0.00    +0.277 C 
ENDBRANCH  15  22
ENDBRANCH   4  13
BRANCH   1  24
ATOM     24  C   UNL     1       1.297  -2.807  -0.167  0.00  0.00    +0.347 C 
ATOM     25  O   UNL     1       0.543  -3.407   0.581  0.00  0.00    -0.248 OA
ATOM     26  O   UNL     1       2.487  -2.742   0.090  0.00  0.00    -0.248 OA
ENDBRANCH   1  24
BRANCH   1  27
ATOM     27  C   UNL     1       1.012  -0.638  -1.371  0.00  0.00    -0.014 C 
ATOM     28  C   UNL     1       0.377  -0.045  -0.111  0.00  0.00    +0.006 C 
BRANCH  27  30
ATOM     29  C   UNL     1       2.776   1.130  -1.442  0.00  0.00    +0.004 C 
ATOM     30  C   UNL     1       2.519  -0.376  -1.354  0.00  0.00    -0.001 C 
ENDBRANCH  27  30
ENDBRANCH   1  27
TORSDOF 6
