REMARK  Name = ZINC66392412
REMARK  12 active torsions:
REMARK  status: ('A' for Active; 'I' for Inactive)
REMARK    1  A    between atoms: C_1  and  C_2
REMARK    2  A    between atoms: C_2  and  C_4
REMARK    3  A    between atoms: C_2  and  C_24
REMARK    4  A    between atoms: C_4  and  N_5
REMARK    5  A    between atoms: C_6  and  C_8
REMARK    6  A    between atoms: C_8  and  C_10
REMARK    7  A    between atoms: C_8  and  N_11
REMARK    8  A    between atoms: N_11  and  C_12
REMARK    9  A    between atoms: C_15  and  N_18
REMARK   10  A    between atoms: N_18  and  C_19
REMARK   11  A    between atoms: C_20  and  O_22
REMARK   12  A    between atoms: O_22  and  C_23
REMARK                            x       y       z     vdW  Elec       q    Type
REMARK                         _______ _______ _______ _____ _____    ______ ____
ROOT
ATOM      1  C   UNL     1      -0.394  -0.002  -4.905  0.00  0.00    +0.154 C 
ATOM      2  C   UNL     1      -0.467   1.524  -4.992  0.00  0.00    +0.038 C 
ENDROOT
BRANCH   1   4
ATOM      3  N   UNL     1      -0.058  -0.024  -2.455  0.00  0.00    -0.313 N 
ATOM      4  C   UNL     1       0.379  -0.398  -3.674  0.00  0.00    +0.233 C 
ATOM      5  O   UNL     1       1.393  -1.055  -3.779  0.00  0.00    -0.274 OA
ATOM      6  H   UNL     1      -0.869   0.501  -2.371  0.00  0.00    +0.149 HD
BRANCH   3   7
ATOM      7  C   UNL     1       0.693  -0.409  -1.257  0.00  0.00    +0.112 C 
BRANCH   7   9
ATOM      8  C   UNL     1       0.025   1.669  -0.041  0.00  0.00    +0.014 C 
ATOM      9  C   UNL     1      -0.012   0.139  -0.015  0.00  0.00    +0.033 C 
BRANCH   9  10
ATOM     10  C   UNL     1       0.690  -0.359   1.222  0.00  0.00    -0.043 A 
ATOM     11  C   UNL     1       2.021  -0.049   1.434  0.00  0.00    +0.004 A 
ATOM     12  C   UNL     1       2.664  -0.506   2.568  0.00  0.00    +0.000 A 
ATOM     13  C   UNL     1       1.978  -1.273   3.491  0.00  0.00    +0.000 A 
ATOM     14  C   UNL     1       0.648  -1.583   3.279  0.00  0.00    +0.000 A 
ATOM     15  C   UNL     1       0.003  -1.122   2.147  0.00  0.00    +0.004 A 
ENDBRANCH   9  10
ENDBRANCH   7   9
ENDBRANCH   3   7
ENDBRANCH   1   4
BRANCH   1  16
ATOM     16  N   UNL     1       0.281  -0.527  -6.095  0.00  0.00    -0.333 N 
ATOM     17  H   UNL     1       1.234  -0.711  -6.071  0.00  0.00    +0.147 HD
BRANCH  16  18
ATOM     18  C   UNL     1      -0.447  -0.762  -7.266  0.00  0.00    +0.028 A 
ATOM     19  C   UNL     1      -1.809  -0.493  -7.303  0.00  0.00    +0.025 A 
ATOM     20  C   UNL     1      -2.528  -0.725  -8.458  0.00  0.00    +0.025 A 
ATOM     21  C   UNL     1      -1.889  -1.228  -9.584  0.00  0.00    +0.039 A 
ATOM     22  C   UNL     1      -0.528  -1.497  -9.548  0.00  0.00    +0.025 A 
ATOM     23  C   UNL     1       0.193  -1.260  -8.394  0.00  0.00    +0.025 A 
BRANCH  21  24
ATOM     24  N   UNL     1      -2.619  -1.464 -10.757  0.00  0.00    -0.240 N 
ATOM     25  C   UNL     1      -2.373  -0.649 -11.950  0.00  0.00    +0.142 C 
ATOM     26  C   UNL     1      -3.548  -2.440 -10.788  0.00  0.00    +0.407 C 
ATOM     27  O   UNL     1      -3.818  -3.054  -9.775  0.00  0.00    -0.226 OA
BRANCH  26  28
ATOM     28  O   UNL     1      -4.177  -2.735 -11.942  0.00  0.00    -0.453 OA
ATOM     29  C   UNL     1      -5.149  -3.781 -11.902  0.00  0.00    +0.282 C 
ENDBRANCH  26  28
ENDBRANCH  21  24
ENDBRANCH  16  18
ENDBRANCH   1  16
TORSDOF 8
