REMARK  Name = ZINC21177318
REMARK  9 active torsions:
REMARK  status: ('A' for Active; 'I' for Inactive)
REMARK    1  A    between atoms: C_1  and  C_2
REMARK    2  A    between atoms: C_3  and  C_7
REMARK    3  A    between atoms: C_10  and  S_15
REMARK    4  A    between atoms: N_11  and  C_12
REMARK    5  A    between atoms: C_12  and  C_13
REMARK    6  A    between atoms: S_15  and  C_16
REMARK    7  A    between atoms: C_16  and  C_18
REMARK    8  A    between atoms: C_16  and  C_19
REMARK    9  A    between atoms: C_31  and  C_35
REMARK                            x       y       z     vdW  Elec       q    Type
REMARK                         _______ _______ _______ _____ _____    ______ ____
ROOT
ATOM      1  C   UNL     1      -7.236   0.716  -0.622  0.00  0.00    +0.117 C 
ATOM      2  C   UNL     1      -6.724   1.567  -1.787  0.00  0.00    +0.027 C 
ENDROOT
BRANCH   1   3
ATOM      3  C   UNL     1      -8.707   0.447  -0.806  0.00  0.00    +0.124 A 
ATOM      4  N   UNL     1      -9.614   1.256  -0.201  0.00  0.00    -0.309 N 
ATOM      5  H   UNL     1      -9.302   1.997   0.342  0.00  0.00    +0.170 HD
ATOM      6  C   UNL     1     -10.938   1.052  -0.339  0.00  0.00    +0.260 A 
ATOM      7  O   UNL     1     -11.739   1.787   0.210  0.00  0.00    -0.267 OA
ATOM      8  C   UNL     1     -11.388  -0.046  -1.144  0.00  0.00    +0.075 A 
ATOM      9  C   UNL     1     -12.762  -0.456  -1.434  0.00  0.00    -0.023 A 
ATOM     10  C   UNL     1     -12.924  -1.536  -2.227  0.00  0.00    -0.004 A 
ATOM     11  S   UNL     1     -11.279  -2.062  -2.628  0.00  0.00    -0.073 S 
ATOM     12  C   UNL     1     -10.378  -0.826  -1.728  0.00  0.00    +0.116 A 
ATOM     13  N   UNL     1      -9.087  -0.558  -1.549  0.00  0.00    -0.225 NA
ATOM     14  C   UNL     1     -14.216  -2.150  -2.671  0.00  0.00    +0.046 C 
ATOM     15  C   UNL     1     -15.348  -1.150  -2.394  0.00  0.00    -0.009 C 
ATOM     16  C   UNL     1     -15.196  -0.621  -0.965  0.00  0.00    +0.008 C 
ATOM     17  C   UNL     1     -13.971   0.290  -0.876  0.00  0.00    +0.037 C 
ATOM     18  C   UNL     1     -16.700  -1.851  -2.545  0.00  0.00    +0.008 C 
ENDBRANCH   1   3
BRANCH   1  19
ATOM     19  S   UNL     1      -6.334  -0.857  -0.580  0.00  0.00    -0.075 S 
BRANCH  19  23
ATOM     20  C   UNL     1      -2.530  -0.417   0.202  0.00  0.00    +0.168 A 
ATOM     21  N   UNL     1      -2.974   0.818   0.221  0.00  0.00    -0.128 NA
ATOM     22  N   UNL     1      -4.236   0.836  -0.025  0.00  0.00    -0.122 NA
ATOM     23  C   UNL     1      -4.675  -0.387  -0.215  0.00  0.00    +0.193 A 
ATOM     24  N   UNL     1      -3.604  -1.227  -0.083  0.00  0.00    -0.298 N 
BRANCH  20  27
ATOM     25  C   UNL     1      -0.658   0.521   2.536  0.00  0.00    +0.087 C 
ATOM     26  C   UNL     1      -0.312  -0.459   1.444  0.00  0.00    +0.112 A 
ATOM     27  C   UNL     1      -1.137  -0.854   0.438  0.00  0.00    +0.060 A 
ATOM     28  C   UNL     1      -0.359  -1.805  -0.365  0.00  0.00    +0.053 A 
ATOM     29  C   UNL     1       0.845  -1.891   0.225  0.00  0.00    +0.196 A 
ATOM     30  O   UNL     1       0.866  -1.084   1.297  0.00  0.00    -0.467 OA
ENDBRANCH  20  27
BRANCH  24  31
ATOM     31  C   UNL     1      -3.602  -2.686  -0.215  0.00  0.00    +0.152 C 
BRANCH  31  32
ATOM     32  C   UNL     1      -3.752  -3.314   1.146  0.00  0.00    -0.013 C 
ATOM     33  C   UNL     1      -4.718  -4.171   1.370  0.00  0.00    +0.005 C 
ENDBRANCH  31  32
ENDBRANCH  24  31
ENDBRANCH  19  23
ENDBRANCH   1  19
TORSDOF 6
