REMARK  Name = ZINC10059719
REMARK  14 active torsions:
REMARK  status: ('A' for Active; 'I' for Inactive)
REMARK    1  A    between atoms: C_1  and  C_2
REMARK    2  A    between atoms: C_4  and  C_40
REMARK    3  A    between atoms: N_10  and  C_11
REMARK    4  A    between atoms: C_11  and  C_13
REMARK    5  A    between atoms: C_14  and  C_15
REMARK    6  A    between atoms: C_18  and  O_23
REMARK    7  A    between atoms: C_19  and  O_21
REMARK    8  A    between atoms: O_21  and  C_22
REMARK    9  A    between atoms: O_23  and  C_24
REMARK   10  A    between atoms: N_25  and  C_26
REMARK   11  A    between atoms: C_26  and  C_27
REMARK   12  A    between atoms: C_27  and  C_28
REMARK   13  A    between atoms: C_35  and  O_38
REMARK   14  A    between atoms: O_38  and  C_39
REMARK                            x       y       z     vdW  Elec       q    Type
REMARK                         _______ _______ _______ _____ _____    ______ ____
ROOT
ATOM      1  C   UNL     1      10.540  -1.052  -5.636  0.00  0.00    +0.066 C 
ATOM      2  C   UNL     1       9.122  -0.557  -5.763  0.00  0.00    +0.044 A 
ATOM      3  C   UNL     1       8.427  -0.717  -6.952  0.00  0.00    +0.046 A 
ATOM      4  C   UNL     1       7.125  -0.247  -7.026  0.00  0.00    +0.044 A 
ATOM      5  N   UNL     1       6.588   0.335  -5.966  0.00  0.00    -0.217 NA
ATOM      6  C   UNL     1       7.279   0.471  -4.845  0.00  0.00    +0.231 A 
ATOM      7  N   UNL     1       8.527   0.039  -4.743  0.00  0.00    -0.217 NA
ATOM      8  N   UNL     1       6.684   1.087  -3.753  0.00  0.00    -0.297 N 
ATOM      9  C   UNL     1       7.415   1.329  -2.622  0.00  0.00    +0.196 C 
ATOM     10  N   UNL     1       8.713   1.076  -2.606  0.00  0.00    -0.143 NA
ATOM     11  N   UNL     1       6.805   1.833  -1.510  0.00  0.00    -0.357 N 
ATOM     12  C   UNL     1       6.331  -0.399  -8.297  0.00  0.00    +0.066 C 
ATOM     13  H   UNL     1       5.625   1.380  -3.796  0.00  0.00    +0.171 HD
ATOM     14  H   UNL     1       7.406   2.118  -0.634  0.00  0.00    +0.162 HD
ENDROOT
BRANCH  10  15
ATOM     15  C   UNL     1       9.367   0.990  -1.435  0.00  0.00    +0.263 C 
ATOM     16  O   UNL     1       8.744   1.012  -0.386  0.00  0.00    -0.269 OA
BRANCH  15  17
ATOM     17  C   UNL     1      10.828   0.870  -1.419  0.00  0.00    +0.070 C 
ATOM     18  C   UNL     1      11.484   0.783  -0.244  0.00  0.00    +0.013 C 
BRANCH  18  19
ATOM     19  C   UNL     1      12.950   0.663  -0.228  0.00  0.00    -0.021 A 
ATOM     20  C   UNL     1      13.665   0.638  -1.430  0.00  0.00    +0.012 A 
ATOM     21  C   UNL     1      15.038   0.526  -1.411  0.00  0.00    +0.050 A 
ATOM     22  C   UNL     1      15.715   0.437  -0.202  0.00  0.00    +0.162 A 
ATOM     23  C   UNL     1      15.009   0.462   1.000  0.00  0.00    +0.162 A 
ATOM     24  C   UNL     1      13.633   0.579   0.991  0.00  0.00    +0.057 A 
BRANCH  23  25
ATOM     25  O   UNL     1      15.676   0.375   2.182  0.00  0.00    -0.491 OA
ATOM     26  C   UNL     1      14.890   0.407   3.374  0.00  0.00    +0.277 C 
ENDBRANCH  23  25
BRANCH  22  27
ATOM     27  O   UNL     1      17.069   0.327  -0.190  0.00  0.00    -0.491 OA
ATOM     28  C   UNL     1      17.729   0.308  -1.457  0.00  0.00    +0.277 C 
ENDBRANCH  22  27
ENDBRANCH  18  19
ENDBRANCH  15  17
ENDBRANCH  10  15
BRANCH  11  29
ATOM     29  C   UNL     1       5.349   1.993  -1.482  0.00  0.00    +0.120 C 
BRANCH  29  30
ATOM     30  C   UNL     1       4.936   2.682  -0.180  0.00  0.00    +0.058 C 
BRANCH  30  31
ATOM     31  C   UNL     1       3.433   2.740  -0.097  0.00  0.00    -0.021 A 
ATOM     32  C   UNL     1       2.656   3.792  -0.399  0.00  0.00    +0.087 A 
ATOM     33  N   UNL     1       1.341   3.474  -0.202  0.00  0.00    -0.360 N 
ATOM     34  H   UNL     1       0.558   4.221  -0.400  0.00  0.00    +0.165 HD
ATOM     35  C   UNL     1       1.235   2.173   0.243  0.00  0.00    +0.047 A 
ATOM     36  C   UNL     1       2.542   1.657   0.328  0.00  0.00    +0.006 A 
ATOM     37  C   UNL     1       2.747   0.344   0.756  0.00  0.00    +0.056 A 
ATOM     38  C   UNL     1       1.663  -0.441   1.094  0.00  0.00    +0.121 A 
ATOM     39  C   UNL     1       0.371   0.072   1.009  0.00  0.00    +0.047 A 
ATOM     40  C   UNL     1       0.157   1.365   0.588  0.00  0.00    +0.030 A 
BRANCH  38  41
ATOM     41  O   UNL     1       1.857  -1.721   1.511  0.00  0.00    -0.495 OA
ATOM     42  C   UNL     1       0.693  -2.478   1.845  0.00  0.00    +0.277 C 
ENDBRANCH  38  41
ENDBRANCH  30  31
ENDBRANCH  29  30
ENDBRANCH  11  29
TORSDOF 9
