REMARK  Name = ZINC63127295
REMARK  12 active torsions:
REMARK  status: ('A' for Active; 'I' for Inactive)
REMARK    1  A    between atoms: C_1  and  C_2
REMARK    2  A    between atoms: C_2  and  C_3
REMARK    3  A    between atoms: C_7  and  C_34
REMARK    4  A    between atoms: C_8  and  N_9
REMARK    5  A    between atoms: C_10  and  C_12
REMARK    6  A    between atoms: C_12  and  N_13
REMARK    7  A    between atoms: N_13  and  C_14
REMARK    8  A    between atoms: N_13  and  S_25
REMARK    9  A    between atoms: C_14  and  C_15
REMARK   10  A    between atoms: C_15  and  C_16
REMARK   11  A    between atoms: S_25  and  C_28
REMARK   12  A    between atoms: C_34  and  C_35
REMARK                            x       y       z     vdW  Elec       q    Type
REMARK                         _______ _______ _______ _____ _____    ______ ____
ROOT
ATOM      1  N   UNL     1       4.053   4.892  -2.489  0.00  0.00    -0.167 NA
ENDROOT
BRANCH   1   2
ATOM      2  S   UNL     1       4.092   5.740  -1.067  0.00  0.00    +0.061 S 
ATOM      3  O   UNL     1       5.098   6.732  -1.213  0.00  0.00    -0.153 OA
ATOM      4  O   UNL     1       2.745   6.063  -0.750  0.00  0.00    -0.153 OA
BRANCH   2   5
ATOM      5  C   UNL     1       4.653   4.634   0.184  0.00  0.00    +0.105 A 
ATOM      6  C   UNL     1       3.742   3.874   0.894  0.00  0.00    +0.028 A 
ATOM      7  C   UNL     1       4.183   3.006   1.875  0.00  0.00    +0.002 A 
ATOM      8  C   UNL     1       5.534   2.897   2.147  0.00  0.00    +0.000 A 
ATOM      9  C   UNL     1       6.444   3.656   1.436  0.00  0.00    +0.002 A 
ATOM     10  C   UNL     1       6.005   4.521   0.452  0.00  0.00    +0.028 A 
ENDBRANCH   2   5
ENDBRANCH   1   2
BRANCH   1  11
ATOM     11  C   UNL     1       2.799   4.289  -2.948  0.00  0.00    +0.205 C 
BRANCH  11  13
ATOM     12  N   UNL     1       1.674   2.090  -2.816  0.00  0.00    -0.284 N 
ATOM     13  C   UNL     1       2.743   2.849  -2.505  0.00  0.00    +0.233 C 
ATOM     14  O   UNL     1       3.660   2.374  -1.869  0.00  0.00    -0.274 OA
ATOM     15  H   UNL     1       0.980   2.443  -3.396  0.00  0.00    +0.155 HD
BRANCH  12  21
ATOM     16  C   UNL     1       0.708   0.535  -1.240  0.00  0.00    -0.026 A 
ATOM     17  C   UNL     1       0.597  -0.747  -0.740  0.00  0.00    +0.005 A 
ATOM     18  C   UNL     1       1.342  -1.773  -1.292  0.00  0.00    +0.001 A 
ATOM     19  C   UNL     1       2.199  -1.519  -2.348  0.00  0.00    +0.005 A 
ATOM     20  C   UNL     1       2.314  -0.239  -2.853  0.00  0.00    -0.026 A 
ATOM     21  C   UNL     1       1.564   0.793  -2.303  0.00  0.00    +0.040 A 
BRANCH  16  23
ATOM     22  C   UNL     1      -1.393   1.838  -1.439  0.00  0.00    +0.009 C 
ATOM     23  C   UNL     1      -0.103   1.653  -0.637  0.00  0.00    +0.033 C 
ENDBRANCH  16  23
BRANCH  20  24
ATOM     24  C   UNL     1       3.248   0.038  -4.002  0.00  0.00    +0.033 C 
ATOM     25  C   UNL     1       3.956  -1.257  -4.407  0.00  0.00    +0.009 C 
ENDBRANCH  20  24
ENDBRANCH  12  21
ENDBRANCH  11  13
ENDBRANCH   1  11
BRANCH   1  26
ATOM     26  C   UNL     1       5.271   4.746  -3.288  0.00  0.00    +0.114 C 
BRANCH  26  27
ATOM     27  C   UNL     1       5.311   5.835  -4.362  0.00  0.00    +0.050 C 
BRANCH  27  28
ATOM     28  C   UNL     1       6.565   5.684  -5.184  0.00  0.00    -0.040 C 
ATOM     29  C   UNL     1       6.692   5.030  -6.362  0.00  0.00    -0.001 A 
ATOM     30  C   UNL     1       5.737   4.292  -7.197  0.00  0.00    +0.010 A 
ATOM     31  C   UNL     1       6.170   3.733  -8.350  0.00  0.00    +0.001 A 
ATOM     32  C   UNL     1       7.504   3.840  -8.766  0.00  0.00    +0.002 A 
ATOM     33  C   UNL     1       8.439   4.502  -8.053  0.00  0.00    +0.026 A 
ATOM     34  C   UNL     1       8.095   5.129  -6.824  0.00  0.00    +0.043 A 
ATOM     35  N   UNL     1       8.808   5.817  -5.965  0.00  0.00    -0.380 N 
ATOM     36  C   UNL     1       7.935   6.238  -4.863  0.00  0.00    +0.144 C 
ATOM     37  H   UNL     1       9.754   6.018  -6.046  0.00  0.00    +0.160 HD
ENDBRANCH  27  28
ENDBRANCH  26  27
ENDBRANCH   1  26
TORSDOF 10
