REMARK  Name = ZINC63695320
REMARK  5 active torsions:
REMARK  status: ('A' for Active; 'I' for Inactive)
REMARK    1  A    between atoms: C_1  and  C_2
REMARK    2  A    between atoms: C_5  and  C_8
REMARK    3  A    between atoms: C_8  and  N_9
REMARK    4  A    between atoms: C_10  and  C_12
REMARK    5  A    between atoms: N_15  and  C_18
REMARK                            x       y       z     vdW  Elec       q    Type
REMARK                         _______ _______ _______ _____ _____    ______ ____
ROOT
ATOM      1  C   UNL     1       3.137  -6.551  -0.051  0.00  0.00    +0.077 C 
ATOM      2  C   UNL     1       3.845  -6.032  -1.306  0.00  0.00    +0.028 C 
ATOM      3  C   UNL     1       5.274  -6.577  -1.342  0.00  0.00    +0.089 C 
ATOM      4  N   UNL     1       5.240  -8.044  -1.349  0.00  0.00    -0.266 NA
ATOM      5  C   UNL     1       4.608  -8.567  -0.132  0.00  0.00    +0.089 C 
ATOM      6  C   UNL     1       3.159  -8.082  -0.059  0.00  0.00    +0.028 C 
ENDROOT
BRANCH   4   7
ATOM      7  C   UNL     1       6.589  -8.601  -1.523  0.00  0.00    +0.252 C 
ATOM      8  N   UNL     1       7.411  -8.308  -0.343  0.00  0.00    -0.351 N 
ATOM      9  C   UNL     1       7.774  -9.446   0.173  0.00  0.00    +0.061 A 
ATOM     10  C   UNL     1       8.592  -9.796   1.343  0.00  0.00    +0.029 A 
ATOM     11  C   UNL     1       8.804 -11.093   1.642  0.00  0.00    +0.022 A 
ATOM     12  C   UNL     1       8.271 -12.146   0.874  0.00  0.00    +0.043 A 
ATOM     13  C   UNL     1       7.508 -11.934  -0.219  0.00  0.00    +0.047 A 
ATOM     14  C   UNL     1       7.210 -10.559  -0.639  0.00  0.00    +0.063 A 
ATOM     15  N   UNL     1       6.520 -10.064  -1.628  0.00  0.00    -0.351 N 
ATOM     16 CL   UNL     1       8.609 -13.780   1.350  0.00  0.00    -0.083 Cl
ATOM     17  H   UNL     1       7.642  -7.427  -0.009  0.00  0.00    +0.163 HD
ATOM     18  H   UNL     1       6.047 -10.569  -2.308  0.00  0.00    +0.163 HD
ENDBRANCH   4   7
BRANCH   1  20
ATOM     19  N   UNL     1       1.447  -4.746  -0.032  0.00  0.00    -0.311 N 
ATOM     20  C   UNL     1       1.710  -6.067  -0.040  0.00  0.00    +0.216 C 
ATOM     21  O   UNL     1       0.799  -6.867  -0.040  0.00  0.00    -0.276 OA
ATOM     22  H   UNL     1       2.176  -4.106  -0.032  0.00  0.00    +0.149 HD
BRANCH  19  23
ATOM     23  C   UNL     1       0.059  -4.275  -0.021  0.00  0.00    +0.139 C 
BRANCH  23  28
ATOM     24  C   UNL     1      -0.018   1.503   0.010  0.00  0.00    +0.044 C 
ATOM     25  C   UNL     1       0.002  -0.004   0.002  0.00  0.00    -0.050 A 
ATOM     26  C   UNL     1       0.006  -0.689  -1.199  0.00  0.00    +0.003 A 
ATOM     27  C   UNL     1       0.025  -2.071  -1.206  0.00  0.00    +0.005 A 
ATOM     28  C   UNL     1       0.040  -2.768  -0.013  0.00  0.00    -0.030 A 
ATOM     29  C   UNL     1       0.037  -2.084   1.188  0.00  0.00    +0.005 A 
ATOM     30  C   UNL     1       0.023  -0.702   1.195  0.00  0.00    +0.003 A 
ENDBRANCH  23  28
ENDBRANCH  19  23
ENDBRANCH   1  20
TORSDOF 4
