REMARK  Name = ZINC36205981
REMARK  13 active torsions:
REMARK  status: ('A' for Active; 'I' for Inactive)
REMARK    1  A    between atoms: C_1  and  O_2
REMARK    2  A    between atoms: O_2  and  C_3
REMARK    3  A    between atoms: C_6  and  C_11
REMARK    4  A    between atoms: C_8  and  O_9
REMARK    5  A    between atoms: O_9  and  C_10
REMARK    6  A    between atoms: C_20  and  C_22
REMARK    7  A    between atoms: C_22  and  N_23
REMARK    8  A    between atoms: N_23  and  C_24
REMARK    9  A    between atoms: N_23  and  C_35
REMARK   10  A    between atoms: C_24  and  C_25
REMARK   11  A    between atoms: C_25  and  C_27
REMARK   12  A    between atoms: C_25  and  O_34
REMARK   13  A    between atoms: C_27  and  C_28
REMARK                            x       y       z     vdW  Elec       q    Type
REMARK                         _______ _______ _______ _____ _____    ______ ____
ROOT
ATOM      1  C   UNL     1       2.567  -2.702   4.344  0.00  0.00    +0.004 A 
ATOM      2  C   UNL     1       1.999  -3.729   5.019  0.00  0.00    +0.056 A 
ATOM      3  S   UNL     1       3.198  -4.105   6.284  0.00  0.00    -0.076 S 
ATOM      4  C   UNL     1       4.422  -2.886   5.879  0.00  0.00    +0.116 A 
ATOM      5  C   UNL     1       3.875  -2.220   4.770  0.00  0.00    +0.080 A 
ATOM      6  C   UNL     1       4.674  -1.165   4.224  0.00  0.00    +0.260 A 
ATOM      7  O   UNL     1       4.282  -0.525   3.263  0.00  0.00    -0.267 OA
ATOM      8  N   UNL     1       5.865  -0.890   4.788  0.00  0.00    -0.312 N 
ATOM      9  H   UNL     1       6.411  -0.177   4.422  0.00  0.00    +0.170 HD
ATOM     10  C   UNL     1       6.317  -1.592   5.859  0.00  0.00    +0.094 A 
ATOM     11  N   UNL     1       5.607  -2.553   6.385  0.00  0.00    -0.229 NA
ENDROOT
BRANCH   1  15
ATOM     12  C   UNL     1       0.580  -0.921   1.028  0.00  0.00    +0.162 A 
ATOM     13  C   UNL     1       1.089  -0.123   2.041  0.00  0.00    +0.050 A 
ATOM     14  C   UNL     1       1.734  -0.698   3.118  0.00  0.00    +0.012 A 
ATOM     15  C   UNL     1       1.874  -2.083   3.188  0.00  0.00    -0.013 A 
ATOM     16  C   UNL     1       1.362  -2.886   2.169  0.00  0.00    +0.058 A 
ATOM     17  C   UNL     1       0.713  -2.305   1.095  0.00  0.00    +0.162 A 
BRANCH  12  19
ATOM     18  C   UNL     1      -0.154   1.075  -0.037  0.00  0.00    +0.277 C 
ATOM     19  O   UNL     1      -0.054  -0.350  -0.032  0.00  0.00    -0.491 OA
ENDBRANCH  12  19
BRANCH  17  20
ATOM     20  O   UNL     1       0.208  -3.086   0.102  0.00  0.00    -0.491 OA
ATOM     21  C   UNL     1       0.380  -4.498   0.237  0.00  0.00    +0.277 C 
ENDBRANCH  17  20
ENDBRANCH   1  15
BRANCH  10  22
ATOM     22  C   UNL     1       7.657  -1.248   6.457  0.00  0.00    -0.003 C 
BRANCH  22  23
ATOM     23  N   UNL     1       7.988  -2.220   7.508  0.00  0.00    +0.388 N 
ATOM     24  H   UNL     1       7.229  -2.270   8.171  0.00  0.00    -0.081 HD
BRANCH  23  25
ATOM     25  C   UNL     1       9.213  -1.796   8.198  0.00  0.00    -0.068 C 
ATOM     26  C   UNL     1       9.139  -1.604   9.714  0.00  0.00    -0.017 C 
ATOM     27  C   UNL     1       9.238  -0.387   8.793  0.00  0.00    -0.017 C 
ENDBRANCH  23  25
BRANCH  23  28
ATOM     28  C   UNL     1       8.199  -3.542   6.903  0.00  0.00    -0.046 C 
BRANCH  28  29
ATOM     29  C   UNL     1       8.420  -4.578   8.007  0.00  0.00    +0.102 C 
BRANCH  29  30
ATOM     30  O   UNL     1       9.570  -4.217   8.775  0.00  0.00    -0.393 OA
ATOM     31  H   UNL     1      10.387  -4.169   8.261  0.00  0.00    +0.210 HD
ENDBRANCH  29  30
BRANCH  29  32
ATOM     32  C   UNL     1       8.640  -5.955   7.377  0.00  0.00    +0.064 C 
BRANCH  32  33
ATOM     33  C   UNL     1       8.736  -6.995   8.463  0.00  0.00    -0.045 A 
ATOM     34  C   UNL     1       9.963  -7.303   9.019  0.00  0.00    +0.004 A 
ATOM     35  C   UNL     1      10.051  -8.257  10.015  0.00  0.00    +0.000 A 
ATOM     36  C   UNL     1       8.911  -8.902  10.457  0.00  0.00    +0.000 A 
ATOM     37  C   UNL     1       7.683  -8.594   9.902  0.00  0.00    +0.000 A 
ATOM     38  C   UNL     1       7.595  -7.637   8.908  0.00  0.00    +0.004 A 
ENDBRANCH  32  33
ENDBRANCH  29  32
ENDBRANCH  28  29
ENDBRANCH  23  28
ENDBRANCH  22  23
ENDBRANCH  10  22
TORSDOF 11
