REMARK  Name = ZINC40548471
REMARK  8 active torsions:
REMARK  status: ('A' for Active; 'I' for Inactive)
REMARK    1  A    between atoms: C_1  and  C_2
REMARK    2  A    between atoms: C_2  and  C_3
REMARK    3  A    between atoms: C_6  and  C_9
REMARK    4  A    between atoms: C_12  and  C_28
REMARK    5  A    between atoms: N_19  and  C_20
REMARK    6  A    between atoms: C_30  and  C_36
REMARK    7  A    between atoms: C_32  and  C_35
REMARK    8  A    between atoms: C_33  and  O_34
REMARK                            x       y       z     vdW  Elec       q    Type
REMARK                         _______ _______ _______ _____ _____    ______ ____
ROOT
ATOM      1  C   UNL     1      -5.379  -1.998   0.015  0.00  0.00    +0.142 C 
ATOM      2  C   UNL     1      -5.423  -3.445  -0.392  0.00  0.00    +0.035 A 
ATOM      3  C   UNL     1      -5.020  -4.758  -0.126  0.00  0.00    +0.102 A 
ATOM      4  N   UNL     1      -5.544  -5.528  -1.059  0.00  0.00    -0.173 NA
ATOM      5  N   UNL     1      -6.238  -4.832  -1.888  0.00  0.00    -0.272 N 
ATOM      6  H   UNL     1      -6.714  -5.189  -2.654  0.00  0.00    +0.189 HD
ATOM      7  C   UNL     1      -6.205  -3.514  -1.529  0.00  0.00    +0.126 A 
ATOM      8  C   UNL     1      -6.663  -2.161  -1.864  0.00  0.00    +0.266 C 
ATOM      9  O   UNL     1      -7.371  -1.882  -2.812  0.00  0.00    -0.268 OA
ATOM     10  N   UNL     1      -6.189  -1.271  -0.971  0.00  0.00    -0.280 N 
ENDROOT
BRANCH   3  11
ATOM     11  C   UNL     1      -4.161  -5.202   0.999  0.00  0.00    +0.044 A 
ATOM     12  C   UNL     1      -3.783  -4.299   1.989  0.00  0.00    +0.017 A 
ATOM     13  C   UNL     1      -2.983  -4.716   3.034  0.00  0.00    -0.049 A 
ATOM     14  C   UNL     1      -2.555  -6.031   3.102  0.00  0.00    +0.010 A 
ATOM     15  C   UNL     1      -2.924  -6.935   2.124  0.00  0.00    -0.008 A 
ATOM     16  C   UNL     1      -3.732  -6.530   1.073  0.00  0.00    +0.129 A 
ATOM     17  C   UNL     1      -2.454  -8.364   2.204  0.00  0.00    +0.047 C 
ATOM     18  C   UNL     1      -2.574  -3.738   4.105  0.00  0.00    +0.044 C 
BRANCH  16  19
ATOM     19  O   UNL     1      -4.101  -7.420   0.115  0.00  0.00    -0.506 OA
ATOM     20  H   UNL     1      -3.488  -7.471  -0.631  0.00  0.00    +0.292 HD
ENDBRANCH  16  19
ENDBRANCH   3  11
BRANCH  10  21
ATOM     21  C   UNL     1      -6.437   0.173  -0.982  0.00  0.00    +0.100 C 
ATOM     22  C   UNL     1      -5.919   0.770  -2.301  0.00  0.00    +0.047 C 
ATOM     23  C   UNL     1      -6.467   2.220  -2.425  0.00  0.00    +0.168 C 
ATOM     24  S   UNL     1      -8.188   1.983  -1.809  0.00  0.00    -0.029 S 
ATOM     25  O   UNL     1      -9.041   1.717  -2.914  0.00  0.00    -0.174 OA
ATOM     26  O   UNL     1      -8.509   3.041  -0.916  0.00  0.00    -0.174 OA
ATOM     27  C   UNL     1      -7.956   0.434  -0.847  0.00  0.00    +0.188 C 
ENDBRANCH  10  21
BRANCH   1  31
ATOM     28  C   UNL     1      -1.353  -0.572  -0.054  0.00  0.00    -0.048 A 
ATOM     29  C   UNL     1      -1.994  -0.891  -1.236  0.00  0.00    +0.004 A 
ATOM     30  C   UNL     1      -3.296  -1.352  -1.214  0.00  0.00    +0.006 A 
ATOM     31  C   UNL     1      -3.958  -1.496  -0.009  0.00  0.00    -0.022 A 
ATOM     32  C   UNL     1      -3.317  -1.178   1.174  0.00  0.00    +0.006 A 
ATOM     33  C   UNL     1      -2.013  -0.720   1.152  0.00  0.00    +0.004 A 
BRANCH  28  35
ATOM     34  C   UNL     1       1.030  -1.255   0.011  0.00  0.00    +0.009 C 
ATOM     35  C   UNL     1       0.068  -0.069  -0.078  0.00  0.00    +0.032 C 
ENDBRANCH  28  35
ENDBRANCH   1  31
TORSDOF 5
