REMARK  Name = ZINC65265885
REMARK  6 active torsions:
REMARK  status: ('A' for Active; 'I' for Inactive)
REMARK    1  A    between atoms: C_1  and  O_2
REMARK    2  A    between atoms: O_2  and  C_3
REMARK    3  A    between atoms: C_6  and  C_11
REMARK    4  A    between atoms: C_7  and  O_9
REMARK    5  A    between atoms: O_9  and  C_10
REMARK    6  A    between atoms: N_28  and  C_29
REMARK                            x       y       z     vdW  Elec       q    Type
REMARK                         _______ _______ _______ _____ _____    ______ ____
ROOT
ATOM      1  C   UNL     1       2.495  -2.478  -4.366  0.00  0.00    +0.250 C 
ATOM      2  O   UNL     1       2.626  -3.687  -4.388  0.00  0.00    -0.270 OA
ATOM      3  N   UNL     1       2.954  -1.732  -5.390  0.00  0.00    -0.295 N 
ATOM      4  C   UNL     1       2.967  -0.261  -5.440  0.00  0.00    +0.110 C 
ATOM      5  C   UNL     1       3.604   0.148  -6.788  0.00  0.00    +0.050 C 
ATOM      6  C   UNL     1       4.395  -1.109  -7.187  0.00  0.00    +0.091 C 
ATOM      7  C   UNL     1       3.534  -2.255  -6.644  0.00  0.00    +0.137 C 
ATOM      8  C   UNL     1       4.596  -1.202  -8.661  0.00  0.00    +0.095 C 
ATOM      9  N   UNL     1       5.705  -1.894  -9.085  0.00  0.00    -0.303 N 
ATOM     10  C   UNL     1       6.903  -1.206  -9.254  0.00  0.00    +0.037 A 
ATOM     11  C   UNL     1       7.671  -1.418 -10.390  0.00  0.00    +0.023 A 
ATOM     12  C   UNL     1       8.868  -0.749 -10.554  0.00  0.00    +0.002 A 
ATOM     13  C   UNL     1       9.294   0.130  -9.575  0.00  0.00    +0.000 A 
ATOM     14  C   UNL     1       8.528   0.345  -8.449  0.00  0.00    +0.007 A 
ATOM     15  C   UNL     1       7.316  -0.315  -8.272  0.00  0.00    -0.012 A 
ATOM     16  C   UNL     1       6.538   0.016  -7.023  0.00  0.00    +0.119 C 
ATOM     17  N   UNL     1       5.728  -1.113  -6.545  0.00  0.00    -0.299 NA
ATOM     18  N   UNL     1       3.771  -0.660  -9.496  0.00  0.00    -0.372 N 
ATOM     19  H   UNL     1       5.645  -1.098  -5.540  0.00  0.00    +0.123 HD
ATOM     20  H   UNL     1       2.997  -0.177  -9.168  0.00  0.00    +0.161 HD
ATOM     21  H   UNL     1       5.654  -2.846  -9.264  0.00  0.00    +0.153 HD
ENDROOT
BRANCH   1  25
ATOM     22  C   UNL     1       0.587  -0.609  -1.063  0.00  0.00    +0.124 A 
ATOM     23  C   UNL     1       0.272  -0.220  -2.362  0.00  0.00    +0.046 A 
ATOM     24  C   UNL     1       0.887  -0.823  -3.434  0.00  0.00    +0.020 A 
ATOM     25  C   UNL     1       1.834  -1.830  -3.221  0.00  0.00    +0.079 A 
ATOM     26  C   UNL     1       2.151  -2.221  -1.911  0.00  0.00    +0.136 A 
ATOM     27  C   UNL     1       1.529  -1.603  -0.840  0.00  0.00    +0.092 A 
BRANCH  22  29
ATOM     28  C   UNL     1      -0.984   1.006  -0.310  0.00  0.00    +0.277 C 
ATOM     29  O   UNL     1      -0.025  -0.009  -0.011  0.00  0.00    -0.495 OA
ENDBRANCH  22  29
BRANCH  26  30
ATOM     30  O   UNL     1       3.068  -3.197  -1.695  0.00  0.00    -0.494 OA
ATOM     31  C   UNL     1       3.340  -3.542  -0.335  0.00  0.00    +0.277 C 
ENDBRANCH  26  30
ENDBRANCH   1  25
BRANCH  18  32
ATOM     32  C   UNL     1       4.007  -0.776 -10.938  0.00  0.00    +0.080 C 
ATOM     33  C   UNL     1       4.912   0.377 -11.419  0.00  0.00    +0.024 C 
ATOM     34  C   UNL     1       4.351   0.742 -12.816  0.00  0.00    +0.002 C 
ATOM     35  C   UNL     1       2.822   0.591 -12.620  0.00  0.00    +0.002 C 
ATOM     36  C   UNL     1       2.678  -0.640 -11.701  0.00  0.00    +0.024 C 
ENDBRANCH  18  32
TORSDOF 4
