REMARK  Name = ZINC08808330
REMARK  6 active torsions:
REMARK  status: ('A' for Active; 'I' for Inactive)
REMARK    1  A    between atoms: C_1  and  C_2
REMARK    2  A    between atoms: C_8  and  N_10
REMARK    3  A    between atoms: C_14  and  C_16
REMARK    4  A    between atoms: C_16  and  S_17
REMARK    5  A    between atoms: S_17  and  C_18
REMARK    6  A    between atoms: N_26  and  C_27
REMARK                            x       y       z     vdW  Elec       q    Type
REMARK                         _______ _______ _______ _____ _____    ______ ____
ROOT
ATOM      1  N   UNL     1      -7.647   5.945   0.106  0.00  0.00    -0.296 N 
ATOM      2  C   UNL     1      -6.326   6.212   0.095  0.00  0.00    +0.306 C 
ATOM      3  O   UNL     1      -5.939   7.364   0.097  0.00  0.00    -0.252 OA
ATOM      4  N   UNL     1      -5.434   5.201   0.081  0.00  0.00    -0.239 N 
ATOM      5  C   UNL     1      -4.113   5.468   0.070  0.00  0.00    +0.231 C 
ATOM      6  O   UNL     1      -3.727   6.617   0.072  0.00  0.00    -0.274 OA
ATOM      7  H   UNL     1      -7.956   5.026   0.105  0.00  0.00    +0.151 HD
ATOM      8  H   UNL     1      -5.744   4.282   0.080  0.00  0.00    +0.159 HD
ENDROOT
BRANCH   1  15
ATOM      9  C   UNL     1      -9.671   6.085   2.173  0.00  0.00    +0.009 C 
ATOM     10  C   UNL     1      -9.928   6.558   0.741  0.00  0.00    +0.006 C 
ATOM     11  C   UNL     1     -10.485   5.398  -0.087  0.00  0.00    +0.005 C 
ATOM     12  C   UNL     1     -10.741   5.871  -1.519  0.00  0.00    +0.000 C 
ATOM     13  C   UNL     1      -9.429   6.356  -2.139  0.00  0.00    +0.002 C 
ATOM     14  C   UNL     1      -8.873   7.516  -1.311  0.00  0.00    +0.022 C 
ATOM     15  C   UNL     1      -8.616   7.044   0.121  0.00  0.00    +0.077 C 
ENDBRANCH   1  15
BRANCH   5  16
ATOM     16  C   UNL     1      -3.116   4.338   0.055  0.00  0.00    +0.173 C 
BRANCH  16  17
ATOM     17  S   UNL     1      -1.438   5.014   0.042  0.00  0.00    -0.078 S 
BRANCH  17  18
ATOM     18  C   UNL     1      -0.505   3.519   0.026  0.00  0.00    +0.170 A 
ATOM     19  N   UNL     1      -1.017   2.313   0.019  0.00  0.00    -0.222 NA
ATOM     20  C   UNL     1      -0.017   1.393   0.010  0.00  0.00    +0.090 A 
ATOM     21  C   UNL     1       0.002  -0.004   0.002  0.00  0.00    +0.030 A 
ATOM     22  C   UNL     1       1.206  -0.671  -0.013  0.00  0.00    +0.002 A 
ATOM     23  C   UNL     1       2.401   0.033  -0.021  0.00  0.00    +0.002 A 
ATOM     24  C   UNL     1       2.400   1.412  -0.013  0.00  0.00    +0.028 A 
ATOM     25  C   UNL     1       1.196   2.101   0.002  0.00  0.00    +0.069 A 
ATOM     26  N   UNL     1       0.859   3.445   0.012  0.00  0.00    -0.322 N 
ATOM     27  C   UNL     1       1.791   4.575   0.009  0.00  0.00    +0.151 C 
ENDBRANCH  17  18
ENDBRANCH  16  17
ENDBRANCH   5  16
TORSDOF 4
