REMARK  Name = ZINC09209450
REMARK  8 active torsions:
REMARK  status: ('A' for Active; 'I' for Inactive)
REMARK    1  A    between atoms: C_1  and  C_2
REMARK    2  A    between atoms: C_2  and  C_3
REMARK    3  A    between atoms: C_3  and  C_4
REMARK    4  A    between atoms: C_11  and  N_33
REMARK    5  A    between atoms: C_12  and  C_31
REMARK    6  A    between atoms: N_20  and  C_23
REMARK    7  A    between atoms: C_23  and  C_24
REMARK    8  A    between atoms: C_27  and  C_30
REMARK                            x       y       z     vdW  Elec       q    Type
REMARK                         _______ _______ _______ _____ _____    ______ ____
ROOT
ATOM      1  C   UNL     1      -1.675  -1.962   0.218  0.00  0.00    +0.071 A 
ATOM      2  C   UNL     1      -1.587  -2.874  -0.824  0.00  0.00    +0.061 A 
ATOM      3  C   UNL     1      -1.626  -4.134  -0.289  0.00  0.00    +0.223 A 
ATOM      4  N   UNL     1      -1.736  -4.005   1.042  0.00  0.00    -0.246 N 
ATOM      5  H   UNL     1      -1.786  -4.731   1.684  0.00  0.00    +0.192 HD
ATOM      6  N   UNL     1      -1.759  -2.634   1.342  0.00  0.00    -0.176 NA
ATOM      7  O   UNL     1      -1.559  -5.253  -1.052  0.00  0.00    -0.423 OA
ATOM      8  C   UNL     1      -1.185  -5.119  -2.340  0.00  0.00    +0.201 C 
ATOM      9  C   UNL     1      -1.119  -3.929  -2.983  0.00  0.00    +0.110 C 
ATOM     10  C   UNL     1      -1.468  -2.634  -2.303  0.00  0.00    +0.145 C 
ATOM     11  C   UNL     1      -2.725  -2.047  -2.861  0.00  0.00    -0.001 A 
ATOM     12  C   UNL     1      -4.016  -2.526  -2.909  0.00  0.00    +0.007 A 
ATOM     13  C   UNL     1      -4.970  -1.712  -3.509  0.00  0.00    +0.000 A 
ATOM     14  C   UNL     1      -4.635  -0.479  -4.033  0.00  0.00    +0.002 A 
ATOM     15  C   UNL     1      -3.339   0.009  -3.990  0.00  0.00    +0.024 A 
ATOM     16  C   UNL     1      -2.372  -0.799  -3.390  0.00  0.00    +0.041 A 
ATOM     17  N   UNL     1      -1.019  -0.567  -3.212  0.00  0.00    -0.265 N 
ATOM     18  C   UNL     1      -0.407  -1.593  -2.583  0.00  0.00    +0.241 C 
ATOM     19  O   UNL     1       0.769  -1.666  -2.297  0.00  0.00    -0.274 OA
ENDROOT
BRANCH   8  20
ATOM     20  N   UNL     1      -0.850  -6.252  -3.039  0.00  0.00    -0.328 N 
ATOM     21  H   UNL     1      -0.887  -7.119  -2.604  0.00  0.00    +0.145 HD
ATOM     22  H   UNL     1      -0.577  -6.187  -3.967  0.00  0.00    +0.145 HD
ENDBRANCH   8  20
BRANCH   9  23
ATOM     23  C   UNL     1      -0.706  -3.904  -4.354  0.00  0.00    +0.102 C 
ATOM     24  N   UNL     1      -0.377  -3.883  -5.441  0.00  0.00    -0.191 NA
ENDBRANCH   9  23
BRANCH   1  25
ATOM     25  C   UNL     1      -1.667  -0.461   0.083  0.00  0.00    +0.057 C 
BRANCH  25  27
ATOM     26  C   UNL     1      -0.264   1.594   0.304  0.00  0.00    +0.004 C 
ATOM     27  C   UNL     1      -0.248   0.064   0.309  0.00  0.00    +0.003 C 
ENDBRANCH  25  27
ENDBRANCH   1  25
BRANCH  17  28
ATOM     28  C   UNL     1      -0.332   0.649  -3.654  0.00  0.00    +0.148 C 
BRANCH  28  29
ATOM     29  C   UNL     1       0.204   0.445  -5.048  0.00  0.00    -0.030 A 
ATOM     30  C   UNL     1       1.453  -0.118  -5.232  0.00  0.00    +0.005 A 
ATOM     31  C   UNL     1       1.945  -0.305  -6.511  0.00  0.00    +0.003 A 
ATOM     32  C   UNL     1       1.187   0.069  -7.604  0.00  0.00    -0.050 A 
ATOM     33  C   UNL     1      -0.062   0.630  -7.420  0.00  0.00    +0.003 A 
ATOM     34  C   UNL     1      -0.556   0.814  -6.142  0.00  0.00    +0.005 A 
ATOM     35  C   UNL     1       1.724  -0.135  -8.998  0.00  0.00    +0.044 C 
ENDBRANCH  28  29
ENDBRANCH  17  28
TORSDOF 6
