REMARK  Name = ZINC13526834
REMARK  10 active torsions:
REMARK  status: ('A' for Active; 'I' for Inactive)
REMARK    1  A    between atoms: C_1  and  C_2
REMARK    2  A    between atoms: C_2  and  C_4
REMARK    3  A    between atoms: C_2  and  O_10
REMARK    4  A    between atoms: O_10  and  C_11
REMARK    5  A    between atoms: C_11  and  C_13
REMARK    6  A    between atoms: C_24  and  C_34
REMARK    7  A    between atoms: C_28  and  C_29
REMARK    8  A    between atoms: C_34  and  C_35
REMARK    9  A    between atoms: C_34  and  C_36
REMARK   10  A    between atoms: C_34  and  C_37
REMARK                            x       y       z     vdW  Elec       q    Type
REMARK                         _______ _______ _______ _____ _____    ______ ____
ROOT
ATOM      1  C   UNL     1      -3.643  -1.069  -2.120  0.00  0.00    +0.073 A 
ATOM      2  C   UNL     1      -4.801  -0.214  -1.857  0.00  0.00    +0.015 A 
ATOM      3  C   UNL     1      -4.703   1.181  -1.890  0.00  0.00    +0.011 A 
ATOM      4  C   UNL     1      -5.808   1.941  -1.640  0.00  0.00    +0.001 A 
ATOM      5  C   UNL     1      -7.034   1.345  -1.353  0.00  0.00    +0.002 A 
ATOM      6  C   UNL     1      -7.164  -0.010  -1.313  0.00  0.00    +0.028 A 
ATOM      7  C   UNL     1      -6.046  -0.826  -1.566  0.00  0.00    +0.072 A 
ATOM      8  N   UNL     1      -6.141  -2.155  -1.532  0.00  0.00    -0.247 NA
ATOM      9  C   UNL     1      -5.109  -2.951  -1.765  0.00  0.00    +0.072 A 
ATOM     10  C   UNL     1      -3.834  -2.443  -2.076  0.00  0.00    -0.007 A 
ATOM     11  C   UNL     1      -2.667  -3.347  -2.362  0.00  0.00    +0.042 C 
ATOM     12  C   UNL     1      -2.879  -4.733  -1.758  0.00  0.00    +0.003 C 
ATOM     13  C   UNL     1      -4.216  -5.301  -2.251  0.00  0.00    +0.041 C 
ATOM     14  C   UNL     1      -5.313  -4.412  -1.699  0.00  0.00    -0.020 C 
ATOM     15  C   UNL     1      -6.444  -4.937  -1.181  0.00  0.00    +0.020 C 
ENDROOT
BRANCH  15  16
ATOM     16  C   UNL     1      -6.718  -6.367  -1.321  0.00  0.00    +0.013 A 
ATOM     17  C   UNL     1      -7.732  -7.123  -0.751  0.00  0.00    +0.015 A 
ATOM     18  C   UNL     1      -7.783  -8.466  -1.036  0.00  0.00    +0.008 A 
ATOM     19  C   UNL     1      -6.847  -9.008  -1.860  0.00  0.00    +0.046 A 
ATOM     20  S   UNL     1      -5.840  -7.594  -2.276  0.00  0.00    -0.097 S 
ENDBRANCH  15  16
BRANCH  12  21
ATOM     21  C   UNL     1      -1.739  -5.658  -2.189  0.00  0.00    -0.034 C 
ATOM     22  C   UNL     1      -0.407  -5.088  -1.700  0.00  0.00    +0.011 C 
ATOM     23  C   UNL     1      -1.953  -7.047  -1.584  0.00  0.00    +0.011 C 
ATOM     24  C   UNL     1      -1.719  -5.765  -3.716  0.00  0.00    +0.011 C 
ENDBRANCH  12  21
BRANCH   1  25
ATOM     25  C   UNL     1      -2.318  -0.490  -2.428  0.00  0.00    +0.341 C 
ATOM     26  O   UNL     1      -2.012  -0.252  -3.579  0.00  0.00    -0.245 OA
BRANCH  25  27
ATOM     27  O   UNL     1      -1.451  -0.226  -1.432  0.00  0.00    -0.449 OA
BRANCH  27  29
ATOM     28  C   UNL     1      -0.288   1.859  -1.806  0.00  0.00    +0.062 C 
ATOM     29  C   UNL     1      -0.189   0.333  -1.802  0.00  0.00    +0.259 C 
BRANCH  29  30
ATOM     30  C   UNL     1       0.862  -0.099  -0.811  0.00  0.00    +0.261 C 
ATOM     31  O   UNL     1       0.545  -0.739   0.169  0.00  0.00    -0.271 OA
ATOM     32  N   UNL     1       2.154   0.226  -1.014  0.00  0.00    -0.237 N 
ATOM     33  C   UNL     1       3.094  -0.161  -0.129  0.00  0.00    +0.303 C 
ATOM     34  O   UNL     1       2.775  -0.802   0.854  0.00  0.00    -0.253 OA
ATOM     35  N   UNL     1       4.386   0.164  -0.332  0.00  0.00    -0.313 N 
ATOM     36  H   UNL     1       2.408   0.738  -1.798  0.00  0.00    +0.159 HD
ATOM     37  H   UNL     1       4.639   0.676  -1.116  0.00  0.00    +0.146 HD
ATOM     38  H   UNL     1       5.062  -0.114   0.305  0.00  0.00    +0.146 HD
ENDBRANCH  29  30
ENDBRANCH  27  29
ENDBRANCH  25  27
ENDBRANCH   1  25
TORSDOF 6
