REMARK  Name = ZINC12038092
REMARK  9 active torsions:
REMARK  status: ('A' for Active; 'I' for Inactive)
REMARK    1  A    between atoms: C_1  and  C_2
REMARK    2  A    between atoms: C_2  and  C_3
REMARK    3  A    between atoms: C_3  and  C_22
REMARK    4  A    between atoms: N_6  and  C_10
REMARK    5  A    between atoms: C_10  and  C_11
REMARK    6  A    between atoms: C_27  and  C_28
REMARK    7  A    between atoms: C_27  and  N_71
REMARK    8  A    between atoms: C_28  and  C_36
REMARK    9  A    between atoms: C_29  and  C_30
REMARK                            x       y       z     vdW  Elec       q    Type
REMARK                         _______ _______ _______ _____ _____    ______ ____
ROOT
ATOM      1  C   UNL     1       0.588  -1.128  -3.363  0.00  0.00    +0.115 C 
ATOM      2  C   UNL     1       0.387  -2.628  -3.277  0.00  0.00    +0.247 C 
ATOM      3  O   UNL     1       1.111  -3.433  -2.732  0.00  0.00    -0.273 OA
ATOM      4  N   UNL     1      -0.763  -2.879  -3.932  0.00  0.00    -0.221 N 
ATOM      5  C   UNL     1      -1.312  -1.759  -4.415  0.00  0.00    +0.309 C 
ATOM      6  O   UNL     1      -2.352  -1.732  -5.043  0.00  0.00    -0.252 OA
ATOM      7  N   UNL     1      -0.582  -0.665  -4.129  0.00  0.00    -0.285 N 
ATOM      8  H   UNL     1      -0.787   0.250  -4.378  0.00  0.00    +0.151 HD
ENDROOT
BRANCH   1   9
ATOM      9  C   UNL     1       0.598  -0.505  -1.966  0.00  0.00    +0.018 C 
ATOM     10  C   UNL     1      -0.683  -0.894  -1.223  0.00  0.00    -0.013 C 
ATOM     11  C   UNL     1      -0.695  -0.220   0.151  0.00  0.00    -0.078 C 
ATOM     12  C   UNL     1       0.616   1.639  -0.686  0.00  0.00    -0.078 C 
ATOM     13  C   UNL     1       0.667   1.020  -2.085  0.00  0.00    -0.013 C 
ATOM     14  N   UNL     1      -0.652   1.246  -0.034  0.00  0.00    +0.382 N 
ATOM     15  H   UNL     1      -1.436   1.530  -0.632  0.00  0.00    -0.081 HD
BRANCH  14  16
ATOM     16  C   UNL     1      -0.777   1.924   1.274  0.00  0.00    -0.048 C 
BRANCH  16  17
ATOM     17  C   UNL     1      -0.377   3.369   1.123  0.00  0.00    -0.089 C 
ATOM     18  C   UNL     1      -1.296   4.287   0.860  0.00  0.00    +0.005 C 
ATOM     19  C   UNL     1       1.068   3.770   1.273  0.00  0.00    +0.037 C 
BRANCH  18  20
ATOM     20  C   UNL     1      -0.930   5.719   0.860  0.00  0.00    -0.025 A 
ATOM     21  C   UNL     1      -0.033   6.213   1.808  0.00  0.00    +0.008 A 
ATOM     22  C   UNL     1       0.308   7.550   1.800  0.00  0.00    +0.001 A 
ATOM     23  C   UNL     1      -0.247   8.403   0.862  0.00  0.00    +0.000 A 
ATOM     24  C   UNL     1      -1.141   7.920  -0.077  0.00  0.00    +0.001 A 
ATOM     25  C   UNL     1      -1.486   6.584  -0.083  0.00  0.00    +0.008 A 
ENDBRANCH  18  20
ENDBRANCH  16  17
ENDBRANCH  14  16
ENDBRANCH   1   9
BRANCH   1  27
ATOM     26  C   UNL     1       1.796  -1.324  -5.541  0.00  0.00    +0.006 C 
ATOM     27  C   UNL     1       1.883  -0.797  -4.108  0.00  0.00    +0.032 C 
ENDBRANCH   1  27
BRANCH   4  28
ATOM     28  C   UNL     1      -1.342  -4.215  -4.095  0.00  0.00    +0.166 C 
BRANCH  28  29
ATOM     29  C   UNL     1      -0.807  -4.849  -5.381  0.00  0.00    +0.229 C 
ATOM     30  C   UNL     1      -1.492  -6.202  -5.615  0.00  0.00    +0.275 C 
ATOM     31  O   UNL     1      -0.960  -6.772  -6.816  0.00  0.00    -0.485 OA
ATOM     32  C   UNL     1       0.394  -6.744  -6.958  0.00  0.00    +0.162 A 
ATOM     33  C   UNL     1       0.998  -7.576  -7.890  0.00  0.00    +0.049 A 
ATOM     34  C   UNL     1       2.370  -7.557  -8.047  0.00  0.00    +0.004 A 
ATOM     35  C   UNL     1       3.145  -6.710  -7.277  0.00  0.00    +0.004 A 
ATOM     36  C   UNL     1       2.550  -5.879  -6.347  0.00  0.00    +0.049 A 
ATOM     37  C   UNL     1       1.173  -5.894  -6.183  0.00  0.00    +0.163 A 
ATOM     38  O   UNL     1       0.602  -5.075  -5.258  0.00  0.00    -0.480 OA
ENDBRANCH  28  29
ENDBRANCH   4  28
TORSDOF 7
