REMARK  Name = ZINC00844222
REMARK  10 active torsions:
REMARK  status: ('A' for Active; 'I' for Inactive)
REMARK    1  A    between atoms: C_1  and  C_2
REMARK    2  A    between atoms: C_2  and  O_3
REMARK    3  A    between atoms: O_3  and  C_4
REMARK    4  A    between atoms: C_6  and  C_12
REMARK    5  A    between atoms: C_9  and  O_10
REMARK    6  A    between atoms: C_22  and  C_34
REMARK    7  A    between atoms: C_23  and  C_24
REMARK    8  A    between atoms: C_24  and  O_26
REMARK    9  A    between atoms: O_26  and  C_27
REMARK   10  A    between atoms: C_27  and  C_28
REMARK                            x       y       z     vdW  Elec       q    Type
REMARK                         _______ _______ _______ _____ _____    ______ ____
ROOT
ATOM      1  C   UNL     1       0.410  -1.490   4.004  0.00  0.00    +0.092 C 
ATOM      2  C   UNL     1       0.573  -2.272   5.281  0.00  0.00    +0.024 C 
ATOM      3  C   UNL     1       0.248  -3.581   5.336  0.00  0.00    +0.015 C 
ATOM      4  C   UNL     1       0.393  -4.364   6.617  0.00  0.00    +0.051 C 
ATOM      5  C   UNL     1       1.554  -3.798   7.437  0.00  0.00    +0.014 C 
ATOM      6  C   UNL     1       1.275  -2.318   7.718  0.00  0.00    +0.080 C 
ATOM      7  C   UNL     1       1.073  -1.601   6.411  0.00  0.00    +0.162 C 
ATOM      8  O   UNL     1       1.347  -0.420   6.330  0.00  0.00    -0.292 OA
ATOM      9  N   UNL     1      -0.224  -4.227   4.225  0.00  0.00    -0.321 N 
ATOM     10  C   UNL     1      -0.021  -3.706   2.977  0.00  0.00    +0.016 C 
ATOM     11  C   UNL     1       0.283  -2.406   2.822  0.00  0.00    +0.065 C 
ATOM     12  C   UNL     1      -0.140  -4.596   1.767  0.00  0.00    +0.061 C 
ATOM     13  H   UNL     1      -0.773  -5.174   4.331  0.00  0.00    +0.152 HD
ENDROOT
BRANCH   1  16
ATOM     14  C   UNL     1      -1.869   1.521   4.125  0.00  0.00    +0.163 A 
ATOM     15  C   UNL     1      -0.730   0.737   4.033  0.00  0.00    +0.054 A 
ATOM     16  C   UNL     1      -0.830  -0.640   4.105  0.00  0.00    -0.030 A 
ATOM     17  C   UNL     1      -2.066  -1.238   4.264  0.00  0.00    +0.023 A 
ATOM     18  C   UNL     1      -3.207  -0.462   4.363  0.00  0.00    +0.063 A 
ATOM     19  C   UNL     1      -3.112   0.919   4.291  0.00  0.00    +0.173 A 
ATOM     20 BR   UNL     1      -4.894  -1.284   4.588  0.00  0.00    -0.046 Br
BRANCH  19  21
ATOM     21  O   UNL     1      -4.233   1.685   4.381  0.00  0.00    -0.503 OA
ATOM     22  H   UNL     1      -5.216   1.208   4.512  0.00  0.00    +0.292 HD
ENDBRANCH  19  21
BRANCH  14  23
ATOM     23  O   UNL     1      -1.772   2.876   4.054  0.00  0.00    -0.489 OA
BRANCH  23  25
ATOM     24  C   UNL     1      -0.553   4.950   3.825  0.00  0.00    +0.048 C 
ATOM     25  C   UNL     1      -0.463   3.424   3.883  0.00  0.00    +0.226 C 
ENDBRANCH  23  25
ENDBRANCH  14  23
ENDBRANCH   1  16
BRANCH  11  26
ATOM     26  C   UNL     1       0.495  -1.893   1.521  0.00  0.00    +0.338 C 
ATOM     27  O   UNL     1       0.522  -2.648   0.567  0.00  0.00    -0.245 OA
BRANCH  26  28
ATOM     28  O   UNL     1       0.667  -0.568   1.338  0.00  0.00    -0.457 OA
BRANCH  28  29
ATOM     29  C   UNL     1       0.876  -0.119  -0.003  0.00  0.00    +0.268 C 
BRANCH  29  30
ATOM     30  C   UNL     1       1.047   1.378  -0.011  0.00  0.00    -0.010 A 
ATOM     31  C   UNL     1      -0.056   2.199  -0.159  0.00  0.00    +0.007 A 
ATOM     32  C   UNL     1       0.101   3.572  -0.162  0.00  0.00    +0.000 A 
ATOM     33  C   UNL     1       1.360   4.125  -0.026  0.00  0.00    +0.000 A 
ATOM     34  C   UNL     1       2.463   3.304   0.117  0.00  0.00    +0.000 A 
ATOM     35  C   UNL     1       2.307   1.931   0.124  0.00  0.00    +0.007 A 
ENDBRANCH  29  30
ENDBRANCH  28  29
ENDBRANCH  26  28
ENDBRANCH  11  26
TORSDOF 8
