REMARK  Name = ZINC14478403
REMARK  5 active torsions:
REMARK  status: ('A' for Active; 'I' for Inactive)
REMARK    1  A    between atoms: C_1  and  C_2
REMARK    2  A    between atoms: C_2  and  C_3
REMARK    3  A    between atoms: N_5  and  C_6
REMARK    4  A    between atoms: C_19  and  C_22
REMARK    5  A    between atoms: C_27  and  N_28
REMARK                            x       y       z     vdW  Elec       q    Type
REMARK                         _______ _______ _______ _____ _____    ______ ____
ROOT
ATOM      1  C   UNL     1       2.439   1.438  -0.105  0.00  0.00    +0.034 A 
ATOM      2  C   UNL     1       2.475   0.054  -0.211  0.00  0.00    +0.025 A 
ATOM      3  C   UNL     1       3.678  -0.615  -0.123  0.00  0.00    +0.025 A 
ATOM      4  C   UNL     1       4.861   0.087   0.076  0.00  0.00    +0.031 A 
ATOM      5  C   UNL     1       4.819   1.481   0.191  0.00  0.00    -0.018 A 
ATOM      6  C   UNL     1       3.617   2.147   0.089  0.00  0.00    +0.029 A 
ATOM      7  C   UNL     1       6.098   2.186   0.425  0.00  0.00    +0.049 C 
ATOM      8  C   UNL     1       6.330   3.607   0.024  0.00  0.00    -0.023 C 
ATOM      9  C   UNL     1       7.606   3.764  -0.309  0.00  0.00    -0.030 C 
ATOM     10  C   UNL     1       8.351   2.436  -0.166  0.00  0.00    +0.033 C 
ATOM     11  C   UNL     1       7.213   1.422  -0.349  0.00  0.00    +0.029 C 
ATOM     12  C   UNL     1       7.356   0.086   0.359  0.00  0.00    +0.107 C 
ATOM     13  N   UNL     1       6.072  -0.617   0.143  0.00  0.00    -0.336 N 
ATOM     14  H   UNL     1       6.068  -1.582   0.046  0.00  0.00    +0.147 HD
ENDROOT
BRANCH  12  15
ATOM     15  C   UNL     1       8.490  -0.703  -0.242  0.00  0.00    +0.003 A 
ATOM     16  C   UNL     1       9.065  -0.292  -1.430  0.00  0.00    +0.008 A 
ATOM     17  C   UNL     1      10.108  -1.014  -1.979  0.00  0.00    +0.000 A 
ATOM     18  C   UNL     1      10.570  -2.153  -1.345  0.00  0.00    +0.002 A 
ATOM     19  C   UNL     1       9.991  -2.567  -0.160  0.00  0.00    +0.033 A 
ATOM     20  C   UNL     1       8.951  -1.842   0.391  0.00  0.00    +0.131 A 
BRANCH  20  21
ATOM     21  N   UNL     1       8.331  -2.285   1.660  0.00  0.00    +0.057 N 
ATOM     22  O   UNL     1       8.669  -3.340   2.167  0.00  0.00    -0.126 OA
ATOM     23  O   UNL     1       7.483  -1.596   2.197  0.00  0.00    -0.126 OA
ENDBRANCH  20  21
ENDBRANCH  12  15
BRANCH   1  26
ATOM     24  C   UNL     1       0.096   1.561   0.299  0.00  0.00    +0.217 C 
ATOM     25  O   UNL     1       0.127   0.437   0.754  0.00  0.00    -0.275 OA
ATOM     26  N   UNL     1       1.217   2.118  -0.199  0.00  0.00    -0.285 N 
ATOM     27  H   UNL     1       1.179   2.989  -0.624  0.00  0.00    +0.155 HD
BRANCH  24  29
ATOM     28  C   UNL     1      -2.309   1.477   0.899  0.00  0.00    +0.013 C 
ATOM     29  C   UNL     1      -1.199   2.333   0.286  0.00  0.00    +0.093 C 
ENDBRANCH  24  29
ENDBRANCH   1  26
TORSDOF 4
