REMARK  Name = ZINC63373384
REMARK  6 active torsions:
REMARK  status: ('A' for Active; 'I' for Inactive)
REMARK    1  A    between atoms: C_1  and  C_2
REMARK    2  A    between atoms: C_13  and  C_32
REMARK    3  A    between atoms: N_20  and  C_23
REMARK    4  A    between atoms: C_23  and  C_24
REMARK    5  A    between atoms: C_24  and  C_25
REMARK    6  A    between atoms: C_25  and  C_26
REMARK                            x       y       z     vdW  Elec       q    Type
REMARK                         _______ _______ _______ _____ _____    ______ ____
ROOT
ATOM      1  C   UNL     1      -0.019   1.526   0.010  0.00  0.00    +0.044 C 
ATOM      2  C   UNL     1       0.002  -0.004   0.002  0.00  0.00    +0.135 C 
ATOM      3  C   UNL     1       0.771  -0.482  -1.235  0.00  0.00    +0.139 C 
ATOM      4  C   UNL     1       2.228  -0.097  -1.013  0.00  0.00    -0.027 C 
ATOM      5  C   UNL     1       2.586   0.634  -2.062  0.00  0.00    -0.000 A 
ATOM      6  C   UNL     1       3.877   1.225  -2.450  0.00  0.00    +0.010 A 
ATOM      7  C   UNL     1       3.886   1.940  -3.606  0.00  0.00    +0.001 A 
ATOM      8  C   UNL     1       2.753   2.124  -4.405  0.00  0.00    +0.002 A 
ATOM      9  C   UNL     1       1.528   1.613  -4.128  0.00  0.00    +0.026 A 
ATOM     10  C   UNL     1       1.393   0.838  -2.940  0.00  0.00    +0.043 A 
ATOM     11  N   UNL     1       0.339   0.210  -2.450  0.00  0.00    -0.375 N 
ATOM     12  C   UNL     1       2.979  -0.467   0.242  0.00  0.00    +0.065 C 
ATOM     13  C   UNL     1       2.101  -0.031   1.428  0.00  0.00    +0.121 C 
ATOM     14  N   UNL     1       0.713  -0.474   1.192  0.00  0.00    -0.283 N 
ATOM     15  C   UNL     1       0.152  -1.296   2.087  0.00  0.00    +0.234 C 
ATOM     16  O   UNL     1       0.833  -1.652   3.026  0.00  0.00    -0.274 OA
ATOM     17  C   UNL     1      -1.249  -1.805   2.016  0.00  0.00    +0.203 C 
ATOM     18  N   UNL     1      -1.959  -1.297   0.854  0.00  0.00    -0.291 N 
ATOM     19  C   UNL     1      -1.402  -0.506  -0.060  0.00  0.00    +0.242 C 
ATOM     20  O   UNL     1      -2.087  -0.157  -0.999  0.00  0.00    -0.273 OA
ATOM     21  H   UNL     1      -0.560   0.206  -2.816  0.00  0.00    +0.160 HD
ENDROOT
BRANCH  12  22
ATOM     22  C   UNL     1       3.206  -1.956   0.286  0.00  0.00    -0.039 A 
ATOM     23  C   UNL     1       2.127  -2.820   0.279  0.00  0.00    +0.006 A 
ATOM     24  C   UNL     1       2.336  -4.186   0.320  0.00  0.00    +0.020 A 
ATOM     25  C   UNL     1       3.624  -4.688   0.368  0.00  0.00    +0.041 A 
ATOM     26  C   UNL     1       4.703  -3.823   0.375  0.00  0.00    +0.020 A 
ATOM     27  C   UNL     1       4.494  -2.457   0.329  0.00  0.00    +0.006 A 
ATOM     28 CL   UNL     1       3.886  -6.404   0.419  0.00  0.00    -0.084 Cl
ENDBRANCH  12  22
BRANCH  18  29
ATOM     29  C   UNL     1      -3.357  -1.694   0.669  0.00  0.00    +0.108 C 
BRANCH  29  30
ATOM     30  C   UNL     1      -4.270  -0.683   1.366  0.00  0.00    +0.024 C 
BRANCH  30  31
ATOM     31  C   UNL     1      -5.730  -1.097   1.173  0.00  0.00    +0.036 C 
BRANCH  31  32
ATOM     32  C   UNL     1      -6.630  -0.102   1.860  0.00  0.00    -0.047 A 
ATOM     33  C   UNL     1      -6.987  -0.291   3.182  0.00  0.00    +0.003 A 
ATOM     34  C   UNL     1      -7.812   0.621   3.812  0.00  0.00    +0.000 A 
ATOM     35  C   UNL     1      -8.279   1.723   3.121  0.00  0.00    +0.000 A 
ATOM     36  C   UNL     1      -7.921   1.913   1.799  0.00  0.00    +0.000 A 
ATOM     37  C   UNL     1      -7.093   1.002   1.170  0.00  0.00    +0.003 A 
ENDBRANCH  31  32
ENDBRANCH  30  31
ENDBRANCH  29  30
ENDBRANCH  18  29
TORSDOF 5
