REMARK  Name = ZINC08569125
REMARK  10 active torsions:
REMARK  status: ('A' for Active; 'I' for Inactive)
REMARK    1  A    between atoms: C_1  and  C_2
REMARK    2  A    between atoms: C_2  and  O_3
REMARK    3  A    between atoms: O_3  and  C_4
REMARK    4  A    between atoms: C_4  and  C_6
REMARK    5  A    between atoms: C_6  and  O_7
REMARK    6  A    between atoms: O_7  and  C_8
REMARK    7  A    between atoms: C_11  and  C_14
REMARK    8  A    between atoms: C_17  and  C_28
REMARK    9  A    between atoms: C_23  and  N_27
REMARK   10  A    between atoms: C_24  and  C_25
REMARK                            x       y       z     vdW  Elec       q    Type
REMARK                         _______ _______ _______ _____ _____    ______ ____
ROOT
ATOM      1  C   UNL     1       1.289   3.515   0.004  0.00  0.00    +0.101 C 
ATOM      2  C   UNL     1      -0.068   4.094   0.317  0.00  0.00    +0.049 A 
ATOM      3  C   UNL     1      -0.409   5.351   0.636  0.00  0.00    +0.041 A 
ATOM      4  N   UNL     1      -1.749   5.377   0.825  0.00  0.00    -0.278 N 
ATOM      5  H   UNL     1      -2.291   6.180   1.073  0.00  0.00    +0.189 HD
ATOM      6  N   UNL     1      -2.244   4.081   0.614  0.00  0.00    -0.135 NA
ATOM      7  C   UNL     1      -1.241   3.308   0.310  0.00  0.00    +0.245 A 
ATOM      8  O   UNL     1      -1.218   1.979   0.019  0.00  0.00    -0.421 OA
ATOM      9  C   UNL     1      -0.017   1.368   0.010  0.00  0.00    +0.201 C 
ATOM     10  C   UNL     1       1.169   2.012   0.002  0.00  0.00    +0.098 C 
ATOM     11  C   UNL     1       0.529   6.524   0.760  0.00  0.00    +0.065 C 
ENDROOT
BRANCH   1  15
ATOM     12  C   UNL     1       2.581   4.865  -3.839  0.00  0.00    +0.121 A 
ATOM     13  C   UNL     1       3.347   5.134  -2.715  0.00  0.00    +0.046 A 
ATOM     14  C   UNL     1       2.927   4.697  -1.473  0.00  0.00    +0.008 A 
ATOM     15  C   UNL     1       1.744   3.992  -1.351  0.00  0.00    -0.034 A 
ATOM     16  C   UNL     1       0.982   3.717  -2.471  0.00  0.00    +0.008 A 
ATOM     17  C   UNL     1       1.394   4.158  -3.714  0.00  0.00    +0.046 A 
BRANCH  12  18
ATOM     18  O   UNL     1       2.992   5.294  -5.062  0.00  0.00    -0.481 OA
BRANCH  18  19
ATOM     19  C   UNL     1       2.153   4.981  -6.175  0.00  0.00    +0.349 C 
BRANCH  19  20
ATOM     20  C   UNL     1       2.765   5.532  -7.436  0.00  0.00    +0.345 C 
ATOM     21  O   UNL     1       3.813   6.132  -7.387  0.00  0.00    -0.247 OA
BRANCH  20  22
ATOM     22  O   UNL     1       2.147   5.358  -8.615  0.00  0.00    -0.463 OA
BRANCH  22  24
ATOM     23  C   UNL     1       1.948   5.619 -11.028  0.00  0.00    +0.048 C 
ATOM     24  C   UNL     1       2.795   5.916  -9.789  0.00  0.00    +0.229 C 
ENDBRANCH  22  24
ENDBRANCH  20  22
ENDBRANCH  19  20
ENDBRANCH  18  19
ENDBRANCH  12  18
ENDBRANCH   1  15
BRANCH   9  25
ATOM     25  N   UNL     1       0.002  -0.004   0.002  0.00  0.00    -0.328 N 
ATOM     26  H   UNL     1       0.849  -0.478  -0.009  0.00  0.00    +0.145 HD
ATOM     27  H   UNL     1      -0.831  -0.500   0.007  0.00  0.00    +0.145 HD
ENDBRANCH   9  25
BRANCH  10  28
ATOM     28  C   UNL     1       2.370   1.232  -0.009  0.00  0.00    +0.101 C 
ATOM     29  N   UNL     1       3.322   0.613  -0.017  0.00  0.00    -0.191 NA
ENDBRANCH  10  28
TORSDOF 8
