REMARK  Name = ZINC09173753
REMARK  10 active torsions:
REMARK  status: ('A' for Active; 'I' for Inactive)
REMARK    1  A    between atoms: C_1  and  C_2
REMARK    2  A    between atoms: C_2  and  C_3
REMARK    3  A    between atoms: C_2  and  C_4
REMARK    4  A    between atoms: C_4  and  O_5
REMARK    5  A    between atoms: O_5  and  C_6
REMARK    6  A    between atoms: C_9  and  S_12
REMARK    7  A    between atoms: S_12  and  N_15
REMARK    8  A    between atoms: N_15  and  C_16
REMARK    9  A    between atoms: C_25  and  C_28
REMARK   10  A    between atoms: C_25  and  C_29
REMARK                            x       y       z     vdW  Elec       q    Type
REMARK                         _______ _______ _______ _____ _____    ______ ____
ROOT
ATOM      1  N   UNL     1       0.205  -3.693   1.030  0.00  0.00    -0.216 N 
ATOM      2  H   UNL     1      -0.445  -4.212   0.532  0.00  0.00    +0.174 HD
ENDROOT
BRANCH   1   3
ATOM      3  C   UNL     1       0.255  -2.303   0.879  0.00  0.00    +0.050 A 
ATOM      4  C   UNL     1       0.332  -1.485   1.998  0.00  0.00    +0.028 A 
ATOM      5  C   UNL     1       0.384  -0.111   1.853  0.00  0.00    +0.049 A 
ATOM      6  C   UNL     1       0.360   0.453   0.589  0.00  0.00    +0.142 A 
ATOM      7  C   UNL     1       0.279  -0.365  -0.536  0.00  0.00    +0.077 A 
ATOM      8  C   UNL     1       0.228  -1.742  -0.391  0.00  0.00    +0.051 A 
ATOM      9  N   UNL     1       0.243   0.219  -1.810  0.00  0.00    -0.282 N 
ATOM     10  C   UNL     1       1.152   1.167  -2.129  0.00  0.00    +0.226 C 
ATOM     11  O   UNL     1       1.095   1.728  -3.203  0.00  0.00    -0.275 OA
ATOM     12  C   UNL     1       2.235   1.524  -1.145  0.00  0.00    +0.076 C 
ATOM     13  C   UNL     1       1.654   2.358  -0.005  0.00  0.00    +0.244 C 
ATOM     14  O   UNL     1       0.417   1.804   0.437  0.00  0.00    -0.489 OA
ATOM     15  C   UNL     1       2.846   0.242  -0.576  0.00  0.00    +0.024 C 
ATOM     16  C   UNL     1       3.322   2.332  -1.857  0.00  0.00    +0.024 C 
ATOM     17  H   UNL     1      -0.427  -0.055  -2.456  0.00  0.00    +0.155 HD
ENDBRANCH   1   3
BRANCH   1  18
ATOM     18  S   UNL     1       1.256  -4.452   2.061  0.00  0.00    +0.072 S 
ATOM     19  O   UNL     1       1.144  -3.791   3.314  0.00  0.00    -0.150 OA
ATOM     20  O   UNL     1       1.032  -5.848   1.914  0.00  0.00    -0.150 OA
BRANCH  18  24
ATOM     21  C   UNL     1       5.443  -3.643   0.539  0.00  0.00    +0.121 A 
ATOM     22  C   UNL     1       4.897  -2.840   1.530  0.00  0.00    +0.047 A 
ATOM     23  C   UNL     1       3.619  -3.089   1.992  0.00  0.00    +0.032 A 
ATOM     24  C   UNL     1       2.885  -4.137   1.469  0.00  0.00    +0.109 A 
ATOM     25  C   UNL     1       3.429  -4.942   0.485  0.00  0.00    +0.032 A 
ATOM     26  C   UNL     1       4.705  -4.694   0.015  0.00  0.00    +0.047 A 
BRANCH  21  27
ATOM     27  O   UNL     1       6.700  -3.400   0.082  0.00  0.00    -0.492 OA
BRANCH  27  28
ATOM     28  C   UNL     1       7.198  -4.267  -0.939  0.00  0.00    +0.232 C 
BRANCH  28  30
ATOM     29  C   UNL     1       9.550  -4.044  -0.128  0.00  0.00    +0.010 C 
ATOM     30  C   UNL     1       8.616  -3.841  -1.323  0.00  0.00    +0.020 C 
ATOM     31  C   UNL     1       9.102  -4.689  -2.500  0.00  0.00    +0.010 C 
ENDBRANCH  28  30
ENDBRANCH  27  28
ENDBRANCH  21  27
ENDBRANCH  18  24
ENDBRANCH   1  18
TORSDOF 6
