REMARK  Name = ZINC20735348
REMARK  4 active torsions:
REMARK  status: ('A' for Active; 'I' for Inactive)
REMARK    1  A    between atoms: C_7  and  C_11
REMARK    2  A    between atoms: C_11  and  C_13
REMARK    3  A    between atoms: C_11  and  N_16
REMARK    4  A    between atoms: C_19  and  C_22
REMARK                            x       y       z     vdW  Elec       q    Type
REMARK                         _______ _______ _______ _____ _____    ______ ____
ROOT
ATOM      1  N   UNL     1       0.981   3.547   0.053  0.00  0.00    +0.392 N 
ATOM      2  C   UNL     1       0.253   3.889   1.282  0.00  0.00    -0.077 C 
ATOM      3  C   UNL     1       0.089   5.408   1.372  0.00  0.00    -0.009 C 
ATOM      4  C   UNL     1      -0.680   5.907   0.145  0.00  0.00    +0.038 C 
ATOM      5  C   UNL     1       0.074   5.495  -1.122  0.00  0.00    -0.009 C 
ATOM      6  C   UNL     1       0.239   3.974  -1.140  0.00  0.00    -0.077 C 
ATOM      7  H   UNL     1       1.937   4.091   0.066  0.00  0.00    -0.080 HD
ENDROOT
BRANCH   4   8
ATOM      8  C   UNL     1      -0.795   7.409   0.198  0.00  0.00    +0.094 A 
ATOM      9  C   UNL     1      -2.038   8.183   0.229  0.00  0.00    +0.045 A 
ATOM     10  C   UNL     1      -3.392   7.836   0.222  0.00  0.00    +0.016 A 
ATOM     11  C   UNL     1      -4.344   8.815   0.257  0.00  0.00    +0.039 A 
ATOM     12  C   UNL     1      -3.977  10.155   0.303  0.00  0.00    +0.127 A 
ATOM     13  C   UNL     1      -2.645  10.517   0.311  0.00  0.00    +0.088 A 
ATOM     14  C   UNL     1      -1.663   9.536   0.274  0.00  0.00    +0.170 A 
ATOM     15  O   UNL     1      -0.315   9.573   0.271  0.00  0.00    -0.354 OA
ATOM     16  N   UNL     1       0.190   8.254   0.229  0.00  0.00    -0.082 NA
ATOM     17  F   UNL     1      -4.932  11.110   0.339  0.00  0.00    -0.205 F 
ENDBRANCH   4   8
BRANCH   1  18
ATOM     18  C   UNL     1       1.279   2.109   0.001  0.00  0.00    +0.080 C 
BRANCH  18  25
ATOM     19  C   UNL     1       1.898  -1.714  -2.640  0.00  0.00    +0.001 A 
ATOM     20  C   UNL     1       2.806  -1.517  -3.671  0.00  0.00    +0.002 A 
ATOM     21  C   UNL     1       3.417  -0.296  -3.845  0.00  0.00    +0.026 A 
ATOM     22  C   UNL     1       3.133   0.750  -2.973  0.00  0.00    +0.047 A 
ATOM     23  C   UNL     1       2.214   0.545  -1.928  0.00  0.00    +0.002 A 
ATOM     24  C   UNL     1       1.600  -0.699  -1.774  0.00  0.00    +0.010 A 
ATOM     25  C   UNL     1       2.134   1.817  -1.205  0.00  0.00    -0.025 A 
ATOM     26  C   UNL     1       2.970   2.670  -1.817  0.00  0.00    +0.086 A 
ATOM     27  N   UNL     1       3.576   2.050  -2.876  0.00  0.00    -0.360 N 
ATOM     28  H   UNL     1       4.312   2.436  -3.596  0.00  0.00    +0.165 HD
ENDBRANCH  18  25
BRANCH  18  29
ATOM     29  C   UNL     1       2.017   1.704   1.251  0.00  0.00    +0.347 C 
ATOM     30  O   UNL     1       2.715   2.505   1.827  0.00  0.00    -0.248 OA
ATOM     31  O   UNL     1       1.895   0.455   1.727  0.00  0.00    -0.248 OA
ENDBRANCH  18  29
ENDBRANCH   1  18
TORSDOF 4
