REMARK  Name = ZINC14227155
REMARK  8 active torsions:
REMARK  status: ('A' for Active; 'I' for Inactive)
REMARK    1  A    between atoms: C_1  and  C_2
REMARK    2  A    between atoms: C_2  and  C_3
REMARK    3  A    between atoms: C_3  and  C_4
REMARK    4  A    between atoms: C_4  and  N_5
REMARK    5  A    between atoms: C_6  and  N_25
REMARK    6  A    between atoms: C_7  and  N_14
REMARK    7  A    between atoms: N_14  and  C_15
REMARK    8  A    between atoms: C_16  and  C_18
REMARK                            x       y       z     vdW  Elec       q    Type
REMARK                         _______ _______ _______ _____ _____    ______ ____
ROOT
ATOM      1  N   UNL     1      -2.112  -4.096  -0.013  0.00  0.00    -0.280 N 
ATOM      2  C   UNL     1      -2.227  -2.731   0.116  0.00  0.00    +0.127 A 
ATOM      3  C   UNL     1      -1.086  -1.954   0.093  0.00  0.00    +0.140 A 
ATOM      4  C   UNL     1       0.163  -2.586  -0.052  0.00  0.00    +0.277 A 
ATOM      5  O   UNL     1       1.187  -1.924  -0.071  0.00  0.00    -0.266 OA
ATOM      6  N   UNL     1       0.220  -3.927  -0.169  0.00  0.00    -0.273 N 
ATOM      7  H   UNL     1       1.107  -4.377  -0.272  0.00  0.00    +0.173 HD
ATOM      8  C   UNL     1      -0.902  -4.667  -0.149  0.00  0.00    +0.331 A 
ATOM      9  O   UNL     1      -0.822  -5.876  -0.257  0.00  0.00    -0.246 OA
ENDROOT
BRANCH   3  10
ATOM     10  N   UNL     1      -1.171  -0.552   0.217  0.00  0.00    -0.263 N 
ATOM     11  C   UNL     1      -1.831   0.041   1.383  0.00  0.00    +0.139 C 
ATOM     12  C   UNL     1      -0.645   0.242  -0.736  0.00  0.00    +0.251 C 
ATOM     13  O   UNL     1      -0.631   1.449  -0.583  0.00  0.00    -0.270 OA
BRANCH  12  14
ATOM     14  C   UNL     1      -0.084  -0.353  -1.967  0.00  0.00    +0.038 A 
ATOM     15  C   UNL     1       0.849   0.356  -2.727  0.00  0.00    +0.013 A 
ATOM     16  C   UNL     1       1.369  -0.205  -3.874  0.00  0.00    +0.002 A 
ATOM     17  C   UNL     1       0.968  -1.468  -4.274  0.00  0.00    +0.014 A 
ATOM     18  C   UNL     1       0.044  -2.176  -3.526  0.00  0.00    +0.014 A 
ATOM     19  C   UNL     1      -0.481  -1.628  -2.373  0.00  0.00    +0.027 A 
ATOM     20  I   UNL     1      -0.554  -4.087  -4.141  0.00  0.00    -0.044 I 
ENDBRANCH  12  14
ENDBRANCH   3  10
BRANCH   2  21
ATOM     21  N   UNL     1      -3.463  -2.148   0.261  0.00  0.00    -0.343 N 
ATOM     22  H   UNL     1      -3.555  -1.184   0.193  0.00  0.00    +0.144 HD
ATOM     23  H   UNL     1      -4.242  -2.699   0.432  0.00  0.00    +0.144 HD
ENDBRANCH   2  21
BRANCH   1  24
ATOM     24  C   UNL     1      -3.315  -4.932   0.003  0.00  0.00    +0.128 C 
BRANCH  24  25
ATOM     25  C   UNL     1      -3.630  -5.344   1.443  0.00  0.00    +0.021 C 
BRANCH  25  27
ATOM     26  C   UNL     1      -5.200  -6.630   2.900  0.00  0.00    +0.004 C 
ATOM     27  C   UNL     1      -4.886  -6.218   1.460  0.00  0.00    -0.002 C 
ENDBRANCH  25  27
ENDBRANCH  24  25
ENDBRANCH   1  24
TORSDOF 6
