REMARK  Name = ZINC16097066
REMARK  6 active torsions:
REMARK  status: ('A' for Active; 'I' for Inactive)
REMARK    1  A    between atoms: C_4  and  N_7
REMARK    2  A    between atoms: N_7  and  S_8
REMARK    3  A    between atoms: S_8  and  C_11
REMARK    4  A    between atoms: C_14  and  N_17
REMARK    5  A    between atoms: N_17  and  S_18
REMARK    6  A    between atoms: S_18  and  C_21
REMARK                            x       y       z     vdW  Elec       q    Type
REMARK                         _______ _______ _______ _____ _____    ______ ____
ROOT
ATOM      1  C   UNL     1       2.101  -1.749   3.355  0.00  0.00    +0.109 A 
ATOM      2  C   UNL     1       0.906  -2.035   2.720  0.00  0.00    +0.030 A 
ATOM      3  C   UNL     1       0.427  -1.194   1.735  0.00  0.00    +0.026 A 
ATOM      4  C   UNL     1       1.145  -0.058   1.384  0.00  0.00    +0.048 A 
ATOM      5  C   UNL     1       2.347   0.224   2.020  0.00  0.00    +0.026 A 
ATOM      6  C   UNL     1       2.818  -0.619   3.007  0.00  0.00    +0.030 A 
ENDROOT
BRANCH   1   7
ATOM      7  S   UNL     1       2.709  -2.825   4.610  0.00  0.00    +0.072 S 
ATOM      8  O   UNL     1       3.668  -2.083   5.352  0.00  0.00    -0.150 OA
ATOM      9  O   UNL     1       1.573  -3.424   5.218  0.00  0.00    -0.150 OA
BRANCH   7  10
ATOM     10  N   UNL     1       3.537  -4.043   3.852  0.00  0.00    -0.216 N 
ATOM     11  H   UNL     1       3.225  -4.958   3.922  0.00  0.00    +0.174 HD
BRANCH  10  15
ATOM     12  C   UNL     1       6.957  -3.174   1.642  0.00  0.00    +0.000 A 
ATOM     13  C   UNL     1       7.005  -3.151   3.024  0.00  0.00    +0.002 A 
ATOM     14  C   UNL     1       5.872  -3.438   3.760  0.00  0.00    +0.024 A 
ATOM     15  C   UNL     1       4.684  -3.751   3.110  0.00  0.00    +0.048 A 
ATOM     16  C   UNL     1       4.642  -3.778   1.722  0.00  0.00    +0.024 A 
ATOM     17  C   UNL     1       5.777  -3.484   0.992  0.00  0.00    +0.002 A 
ENDBRANCH  10  15
ENDBRANCH   7  10
ENDBRANCH   1   7
BRANCH   4  18
ATOM     18  N   UNL     1       0.663   0.795   0.388  0.00  0.00    -0.216 N 
ATOM     19  H   UNL     1       1.075   0.797  -0.490  0.00  0.00    +0.174 HD
BRANCH  18  20
ATOM     20  S   UNL     1      -0.612   1.802   0.707  0.00  0.00    +0.072 S 
ATOM     21  O   UNL     1      -0.834   2.562  -0.473  0.00  0.00    -0.150 OA
ATOM     22  O   UNL     1      -1.625   1.000   1.298  0.00  0.00    -0.150 OA
BRANCH  20  23
ATOM     23  C   UNL     1      -0.083   2.937   1.946  0.00  0.00    +0.110 A 
ATOM     24  C   UNL     1      -0.180   2.596   3.282  0.00  0.00    +0.032 A 
ATOM     25  C   UNL     1       0.240   3.483   4.255  0.00  0.00    +0.042 A 
ATOM     26  C   UNL     1       0.748   4.719   3.892  0.00  0.00    +0.142 A 
ATOM     27  C   UNL     1       0.841   5.062   2.553  0.00  0.00    +0.078 A 
ATOM     28  C   UNL     1       0.425   4.170   1.581  0.00  0.00    +0.051 A 
ATOM     29 CL   UNL     1       1.479   6.610   2.095  0.00  0.00    -0.081 Cl
ATOM     30  F   UNL     1       1.154   5.589   4.843  0.00  0.00    -0.204 F 
ENDBRANCH  20  23
ENDBRANCH  18  20
ENDBRANCH   4  18
TORSDOF 6
