REMARK  Name = ZINC30987358
REMARK  11 active torsions:
REMARK  status: ('A' for Active; 'I' for Inactive)
REMARK    1  A    between atoms: C_1  and  C_2
REMARK    2  A    between atoms: C_2  and  C_4
REMARK    3  A    between atoms: C_2  and  N_14
REMARK    4  A    between atoms: C_4  and  C_5
REMARK    5  A    between atoms: C_5  and  C_6
REMARK    6  A    between atoms: C_5  and  C_7
REMARK    7  A    between atoms: C_5  and  C_8
REMARK    8  A    between atoms: C_15  and  C_17
REMARK    9  A    between atoms: N_20  and  C_23
REMARK   10  A    between atoms: C_23  and  C_24
REMARK   11  A    between atoms: C_26  and  C_29
REMARK                            x       y       z     vdW  Elec       q    Type
REMARK                         _______ _______ _______ _____ _____    ______ ____
ROOT
ATOM      1  C   UNL     1       7.072  -2.282   3.212  0.00  0.00    +0.071 C 
ATOM      2  C   UNL     1       7.169  -1.296   4.380  0.00  0.00    -0.006 C 
ATOM      3  C   UNL     1       7.255  -2.075   5.694  0.00  0.00    -0.077 C 
ATOM      4  N   UNL     1       8.433  -2.951   5.670  0.00  0.00    +0.386 N 
ATOM      5  C   UNL     1       8.340  -3.938   4.586  0.00  0.00    -0.077 C 
ATOM      6  C   UNL     1       8.287  -3.213   3.239  0.00  0.00    -0.006 C 
ATOM      7  H   UNL     1       9.314  -2.322   5.475  0.00  0.00    -0.081 HD
ENDROOT
BRANCH   1   9
ATOM      8  N   UNL     1       6.061  -0.637   1.666  0.00  0.00    -0.312 N 
ATOM      9  C   UNL     1       7.048  -1.522   1.911  0.00  0.00    +0.216 C 
ATOM     10  O   UNL     1       7.917  -1.706   1.085  0.00  0.00    -0.276 OA
ATOM     11  H   UNL     1       5.273  -0.470   2.415  0.00  0.00    +0.149 HD
BRANCH   8  13
ATOM     12  C   UNL     1       6.923   1.345   0.520  0.00  0.00    +0.028 C 
ATOM     13  C   UNL     1       6.038   0.102   0.401  0.00  0.00    +0.071 C 
BRANCH  13  14
ATOM     14  C   UNL     1       4.603   0.526   0.085  0.00  0.00    +0.033 C 
BRANCH  14  15
ATOM     15  C   UNL     1       3.750  -0.716  -0.181  0.00  0.00    -0.008 C 
ATOM     16  C   UNL     1       3.633  -1.538   1.104  0.00  0.00    +0.016 C 
ATOM     17  C   UNL     1       4.410  -1.564  -1.270  0.00  0.00    +0.016 C 
BRANCH  15  18
ATOM     18  C   UNL     1       2.376  -0.295  -0.635  0.00  0.00    -0.042 A 
ATOM     19  C   UNL     1       1.425  -1.252  -0.937  0.00  0.00    +0.004 A 
ATOM     20  C   UNL     1       0.165  -0.866  -1.353  0.00  0.00    +0.000 A 
ATOM     21  C   UNL     1      -0.144   0.477  -1.469  0.00  0.00    +0.000 A 
ATOM     22  C   UNL     1       0.808   1.433  -1.167  0.00  0.00    +0.000 A 
ATOM     23  C   UNL     1       2.068   1.047  -0.751  0.00  0.00    +0.004 A 
ENDBRANCH  15  18
ENDBRANCH  14  15
ENDBRANCH  13  14
ENDBRANCH   8  13
ENDBRANCH   1   9
BRANCH   4  24
ATOM     24  C   UNL     1       8.625  -3.612   6.968  0.00  0.00    +0.022 C 
BRANCH  24  25
ATOM     25  C   UNL     1       8.961  -2.579   8.012  0.00  0.00    +0.211 A 
ATOM     26  N   UNL     1       8.108  -1.927   8.764  0.00  0.00    -0.193 NA
ATOM     27  C   UNL     1       8.858  -1.115   9.543  0.00  0.00    +0.202 A 
ATOM     28  N   UNL     1      10.110  -1.320   9.222  0.00  0.00    -0.056 NA
ATOM     29  O   UNL     1      10.184  -2.160   8.350  0.00  0.00    -0.340 OA
BRANCH  27  30
ATOM     30  C   UNL     1       8.356  -0.169  10.570  0.00  0.00    +0.023 A 
ATOM     31  C   UNL     1       6.987  -0.051  10.801  0.00  0.00    +0.013 A 
ATOM     32  C   UNL     1       6.524   0.826  11.761  0.00  0.00    +0.021 A 
ATOM     33  C   UNL     1       7.418   1.597  12.485  0.00  0.00    +0.041 A 
ATOM     34  C   UNL     1       8.778   1.487  12.255  0.00  0.00    +0.021 A 
ATOM     35  C   UNL     1       9.251   0.609  11.301  0.00  0.00    +0.013 A 
ATOM     36 CL   UNL     1       6.830   2.704  13.685  0.00  0.00    -0.084 Cl
ENDBRANCH  27  30
ENDBRANCH  24  25
ENDBRANCH   4  24
TORSDOF 8
