REMARK  Name = ZINC43424726
REMARK  6 active torsions:
REMARK  status: ('A' for Active; 'I' for Inactive)
REMARK    1  A    between atoms: C_1  and  C_2
REMARK    2  A    between atoms: C_2  and  C_3
REMARK    3  A    between atoms: C_2  and  O_4
REMARK    4  A    between atoms: O_4  and  C_5
REMARK    5  A    between atoms: C_6  and  N_23
REMARK    6  A    between atoms: C_9  and  N_11
REMARK                            x       y       z     vdW  Elec       q    Type
REMARK                         _______ _______ _______ _____ _____    ______ ____
ROOT
ATOM      1  C   UNL     1      -2.491  -2.030  -1.982  0.00  0.00    +0.238 A 
ATOM      2  C   UNL     1      -2.867  -2.230  -0.656  0.00  0.00    +0.087 A 
ATOM      3  C   UNL     1      -2.130  -3.105   0.133  0.00  0.00    +0.031 A 
ATOM      4  C   UNL     1      -1.042  -3.750  -0.434  0.00  0.00    +0.046 A 
ATOM      5  C   UNL     1      -0.724  -3.504  -1.763  0.00  0.00    +0.126 A 
ATOM      6  N   UNL     1      -1.450  -2.667  -2.491  0.00  0.00    -0.196 NA
ENDROOT
BRANCH   5   7
ATOM      7  N   UNL     1       0.368  -4.148  -2.340  0.00  0.00    -0.307 N 
ATOM      8  C   UNL     1       1.720  -3.562  -2.288  0.00  0.00    +0.135 C 
ATOM      9  C   UNL     1       2.314  -3.562  -3.700  0.00  0.00    +0.179 C 
ATOM     10  O   UNL     1       2.200  -4.868  -4.275  0.00  0.00    -0.373 OA
ATOM     11  C   UNL     1       0.853  -5.311  -4.416  0.00  0.00    +0.139 C 
ATOM     12  C   UNL     1       0.222  -5.441  -3.020  0.00  0.00    +0.104 C 
ATOM     13  C   UNL     1      -1.252  -5.812  -3.173  0.00  0.00    +0.025 C 
ATOM     14  C   UNL     1      -1.350  -7.165  -3.885  0.00  0.00    +0.002 C 
ATOM     15  C   UNL     1      -0.688  -7.081  -5.260  0.00  0.00    +0.003 C 
ATOM     16  C   UNL     1       0.784  -6.672  -5.105  0.00  0.00    +0.033 C 
ENDBRANCH   5   7
BRANCH   2  17
ATOM     17  N   UNL     1      -3.976  -1.555  -0.122  0.00  0.00    -0.354 N 
ATOM     18  H   UNL     1      -4.486  -0.945  -0.678  0.00  0.00    +0.142 HD
ATOM     19  H   UNL     1      -4.233  -1.698   0.802  0.00  0.00    +0.142 HD
ENDBRANCH   2  17
BRANCH   1  20
ATOM     20  O   UNL     1      -3.204  -1.178  -2.762  0.00  0.00    -0.472 OA
BRANCH  20  22
ATOM     21  C   UNL     1      -3.977  -0.698  -5.002  0.00  0.00    +0.051 C 
ATOM     22  C   UNL     1      -2.772  -1.021  -4.115  0.00  0.00    +0.169 C 
ATOM     23  C   UNL     1      -1.758   0.121  -4.197  0.00  0.00    +0.051 C 
ENDBRANCH  20  22
ENDBRANCH   1  20
TORSDOF 4
