REMARK  Name = ZINC20332393
REMARK  10 active torsions:
REMARK  status: ('A' for Active; 'I' for Inactive)
REMARK    1  A    between atoms: C_1  and  C_2
REMARK    2  A    between atoms: C_2  and  C_32
REMARK    3  A    between atoms: C_6  and  N_24
REMARK    4  A    between atoms: C_13  and  N_17
REMARK    5  A    between atoms: N_17  and  C_18
REMARK    6  A    between atoms: C_18  and  C_19
REMARK    7  A    between atoms: C_19  and  C_20
REMARK    8  A    between atoms: C_20  and  N_21
REMARK    9  A    between atoms: N_21  and  C_22
REMARK   10  A    between atoms: N_21  and  C_23
REMARK                            x       y       z     vdW  Elec       q    Type
REMARK                         _______ _______ _______ _____ _____    ______ ____
ROOT
ATOM      1  C   UNL     1       1.156   3.646  -0.433  0.00  0.00    +0.023 C 
ATOM      2  C   UNL     1       1.305   2.145  -0.179  0.00  0.00    +0.015 C 
ATOM      3  C   UNL     1      -0.069   1.494  -0.104  0.00  0.00    +0.053 C 
ATOM      4  C   UNL     1      -0.024  -0.005  -0.056  0.00  0.00    -0.027 A 
ATOM      5  C   UNL     1       0.979  -0.812  -0.465  0.00  0.00    +0.006 A 
ATOM      6  C   UNL     1       0.830  -2.210  -0.374  0.00  0.00    +0.127 A 
ATOM      7  N   UNL     1      -0.262  -2.757   0.123  0.00  0.00    -0.225 NA
ATOM      8  C   UNL     1      -1.251  -2.002   0.550  0.00  0.00    +0.113 A 
ATOM      9  C   UNL     1      -1.201  -0.604   0.491  0.00  0.00    +0.037 A 
ATOM     10  C   UNL     1      -2.389   0.107   1.000  0.00  0.00    +0.093 A 
ATOM     11  C   UNL     1      -3.423  -0.702   1.490  0.00  0.00    +0.080 A 
ATOM     12  S   UNL     1      -2.834  -2.359   1.274  0.00  0.00    -0.064 S 
ATOM     13  C   UNL     1      -4.587  -0.142   1.996  0.00  0.00    +0.136 A 
ATOM     14  N   UNL     1      -4.698   1.186   2.004  0.00  0.00    -0.220 NA
ATOM     15  C   UNL     1      -3.716   1.934   1.537  0.00  0.00    +0.224 A 
ATOM     16  N   UNL     1      -2.604   1.441   1.052  0.00  0.00    -0.234 NA
ATOM     17  C   UNL     1       2.311  -0.354  -1.010  0.00  0.00    +0.108 C 
ATOM     18  S   UNL     1       2.204   1.370  -1.562  0.00  0.00    -0.149 S 
ATOM     19  C   UNL     1       2.064   1.910   1.129  0.00  0.00    +0.023 C 
ENDROOT
BRANCH   6  20
ATOM     20  N   UNL     1       1.858  -3.030  -0.817  0.00  0.00    -0.311 N 
ATOM     21  C   UNL     1       1.408  -3.889  -1.923  0.00  0.00    +0.134 C 
ATOM     22  C   UNL     1       2.585  -4.732  -2.420  0.00  0.00    +0.178 C 
ATOM     23  O   UNL     1       3.116  -5.489  -1.329  0.00  0.00    -0.377 OA
ATOM     24  C   UNL     1       3.566  -4.684  -0.235  0.00  0.00    +0.178 C 
ATOM     25  C   UNL     1       2.398  -3.841   0.284  0.00  0.00    +0.134 C 
ENDBRANCH   6  20
BRANCH  13  26
ATOM     26  N   UNL     1      -5.608  -0.944   2.483  0.00  0.00    -0.328 N 
ATOM     27  H   UNL     1      -5.501  -2.039   2.470  0.00  0.00    +0.147 HD
BRANCH  26  28
ATOM     28  C   UNL     1      -6.829  -0.334   3.013  0.00  0.00    +0.101 C 
BRANCH  28  29
ATOM     29  C   UNL     1      -7.787  -1.432   3.481  0.00  0.00    +0.000 C 
BRANCH  29  30
ATOM     30  C   UNL     1      -9.062  -0.794   4.035  0.00  0.00    -0.078 C 
BRANCH  30  31
ATOM     31  N   UNL     1      -9.982  -1.848   4.484  0.00  0.00    +0.376 N 
ATOM     32  C   UNL     1     -11.109  -1.279   5.234  0.00  0.00    -0.097 C 
ATOM     33  C   UNL     1     -10.457  -2.651   3.349  0.00  0.00    -0.097 C 
ATOM     34  H   UNL     1      -9.427  -2.515   5.160  0.00  0.00    -0.083 HD
ENDBRANCH  30  31
ENDBRANCH  29  30
ENDBRANCH  28  29
ENDBRANCH  26  28
ENDBRANCH  13  26
TORSDOF 6
