REMARK  Name = ZINC63666692
REMARK  8 active torsions:
REMARK  status: ('A' for Active; 'I' for Inactive)
REMARK    1  A    between atoms: C_1  and  O_2
REMARK    2  A    between atoms: O_2  and  C_3
REMARK    3  A    between atoms: C_9  and  C_12
REMARK    4  A    between atoms: C_12  and  C_13
REMARK    5  A    between atoms: C_13  and  N_14
REMARK    6  A    between atoms: C_15  and  C_17
REMARK    7  A    between atoms: C_22  and  N_23
REMARK    8  A    between atoms: C_24  and  C_26
REMARK                            x       y       z     vdW  Elec       q    Type
REMARK                         _______ _______ _______ _____ _____    ______ ____
ROOT
ATOM      1  N   UNL     1      -0.758  -6.810   1.428  0.00  0.00    -0.311 N 
ATOM      2  C   UNL     1      -0.407  -7.397   2.590  0.00  0.00    +0.246 C 
ATOM      3  O   UNL     1      -0.850  -6.977   3.642  0.00  0.00    -0.270 OA
ATOM      4  H   UNL     1      -0.405  -7.145   0.589  0.00  0.00    +0.149 HD
ENDROOT
BRANCH   2   5
ATOM      5  C   UNL     1       0.513  -8.550   2.585  0.00  0.00    +0.058 A 
ATOM      6  C   UNL     1       0.946  -9.098   1.375  0.00  0.00    +0.015 A 
ATOM      7  C   UNL     1       1.806 -10.175   1.377  0.00  0.00    +0.001 A 
ATOM      8  C   UNL     1       2.244 -10.719   2.574  0.00  0.00    +0.002 A 
ATOM      9  C   UNL     1       1.824 -10.188   3.777  0.00  0.00    +0.024 A 
ATOM     10  C   UNL     1       0.963  -9.099   3.795  0.00  0.00    +0.046 A 
BRANCH  10  11
ATOM     11  N   UNL     1       0.544  -8.558   5.007  0.00  0.00    -0.278 N 
ATOM     12  C   UNL     1       1.384  -8.534   6.060  0.00  0.00    +0.283 C 
ATOM     13  O   UNL     1       2.540  -8.896   5.926  0.00  0.00    -0.266 OA
ATOM     14  H   UNL     1      -0.353  -8.199   5.093  0.00  0.00    +0.155 HD
BRANCH  12  15
ATOM     15  C   UNL     1       0.924  -8.088   7.322  0.00  0.00    +0.188 C 
ATOM     16  C   UNL     1      -0.329  -7.610   7.384  0.00  0.00    +0.091 C 
ATOM     17  S   UNL     1      -0.977  -6.997   8.909  0.00  0.00    -0.126 S 
ATOM     18  C   UNL     1       0.238  -7.607  10.121  0.00  0.00    +0.115 C 
ATOM     19  C   UNL     1       1.634  -7.374   9.520  0.00  0.00    +0.240 C 
ATOM     20  O   UNL     1       1.780  -8.186   8.358  0.00  0.00    -0.486 OA
ENDBRANCH  12  15
ENDBRANCH  10  11
ENDBRANCH   2   5
BRANCH   1  21
ATOM     21  C   UNL     1      -1.672  -5.665   1.433  0.00  0.00    +0.109 C 
BRANCH  21  22
ATOM     22  C   UNL     1      -1.904  -5.191  -0.003  0.00  0.00    +0.052 C 
BRANCH  22  29
ATOM     23  C   UNL     1      -1.186  -0.655  -0.020  0.00  0.00    +0.121 A 
ATOM     24  C   UNL     1      -2.358   0.121  -0.013  0.00  0.00    +0.047 A 
ATOM     25  C   UNL     1      -3.592  -0.427  -0.001  0.00  0.00    +0.029 A 
ATOM     26  C   UNL     1      -3.741  -1.885   0.004  0.00  0.00    +0.043 A 
ATOM     27  N   UNL     1      -4.799  -2.658   0.015  0.00  0.00    -0.380 N 
ATOM     28  C   UNL     1      -4.356  -4.057   0.015  0.00  0.00    +0.144 C 
ATOM     29  C   UNL     1      -2.844  -4.013   0.002  0.00  0.00    -0.040 C 
ATOM     30  C   UNL     1      -2.507  -2.704  -0.005  0.00  0.00    +0.002 A 
ATOM     31  C   UNL     1      -1.215  -2.009  -0.022  0.00  0.00    +0.055 A 
ATOM     32  H   UNL     1      -5.720  -2.356   0.023  0.00  0.00    +0.160 HD
BRANCH  23  34
ATOM     33  C   UNL     1       0.002   1.405  -0.030  0.00  0.00    +0.277 C 
ATOM     34  O   UNL     1       0.018  -0.024  -0.032  0.00  0.00    -0.495 OA
ENDBRANCH  23  34
ENDBRANCH  22  29
ENDBRANCH  21  22
ENDBRANCH   1  21
TORSDOF 7
