REMARK  Name = ZINC13590168
REMARK  12 active torsions:
REMARK  status: ('A' for Active; 'I' for Inactive)
REMARK    1  A    between atoms: C_1  and  C_2
REMARK    2  A    between atoms: C_2  and  C_3
REMARK    3  A    between atoms: C_2  and  C_4
REMARK    4  A    between atoms: C_2  and  C_5
REMARK    5  A    between atoms: C_8  and  C_11
REMARK    6  A    between atoms: C_14  and  C_16
REMARK    7  A    between atoms: N_18  and  N_19
REMARK    8  A    between atoms: C_20  and  C_21
REMARK    9  A    between atoms: C_23  and  O_30
REMARK   10  A    between atoms: C_24  and  O_28
REMARK   11  A    between atoms: O_28  and  C_29
REMARK   12  A    between atoms: O_30  and  C_31
REMARK                            x       y       z     vdW  Elec       q    Type
REMARK                         _______ _______ _______ _____ _____    ______ ____
ROOT
ATOM      1  C   UNL     1       7.209   3.831  -0.348  0.00  0.00    +0.236 C 
ATOM      2  O   UNL     1       8.218   3.186  -0.544  0.00  0.00    -0.274 OA
ATOM      3  N   UNL     1       6.037   3.200  -0.137  0.00  0.00    -0.207 N 
ATOM      4  H   UNL     1       5.230   3.716   0.019  0.00  0.00    +0.177 HD
ENDROOT
BRANCH   1   7
ATOM      5  C   UNL     1       8.627   5.992  -0.587  0.00  0.00    +0.032 C 
ATOM      6  C   UNL     1       8.011   6.010   0.813  0.00  0.00    +0.022 C 
ATOM      7  C   UNL     1       7.267   5.337  -0.342  0.00  0.00    +0.085 C 
BRANCH   5  11
ATOM      8  C   UNL     1      11.970   3.415  -1.241  0.00  0.00    -0.042 A 
ATOM      9  C   UNL     1      11.596   4.322  -2.215  0.00  0.00    +0.004 A 
ATOM     10  C   UNL     1      10.514   5.155  -2.003  0.00  0.00    +0.004 A 
ATOM     11  C   UNL     1       9.806   5.083  -0.818  0.00  0.00    -0.044 A 
ATOM     12  C   UNL     1      10.185   4.180   0.158  0.00  0.00    +0.004 A 
ATOM     13  C   UNL     1      11.263   3.343  -0.055  0.00  0.00    +0.004 A 
BRANCH   8  15
ATOM     14  C   UNL     1      14.407   3.347  -1.697  0.00  0.00    +0.015 C 
ATOM     15  C   UNL     1      13.149   2.505  -1.472  0.00  0.00    -0.013 C 
ATOM     16  C   UNL     1      13.348   1.608  -0.249  0.00  0.00    +0.015 C 
ATOM     17  C   UNL     1      12.890   1.637  -2.705  0.00  0.00    +0.015 C 
ENDBRANCH   8  15
ENDBRANCH   5  11
ENDBRANCH   1   7
BRANCH   3  18
ATOM     18  N   UNL     1       5.983   1.800  -0.144  0.00  0.00    -0.188 NA
ATOM     19  C   UNL     1       4.837   1.195  -0.068  0.00  0.00    +0.138 C 
BRANCH  19  20
ATOM     20  C   UNL     1       3.613   1.872  -0.530  0.00  0.00    -0.001 A 
ATOM     21  C   UNL     1       2.358   1.373  -0.171  0.00  0.00    +0.059 A 
ATOM     22  C   UNL     1       1.212   2.009  -0.612  0.00  0.00    +0.163 A 
ATOM     23  C   UNL     1       1.310   3.152  -1.403  0.00  0.00    +0.175 A 
ATOM     24  C   UNL     1       2.556   3.651  -1.756  0.00  0.00    +0.064 A 
ATOM     25  C   UNL     1       3.704   3.018  -1.324  0.00  0.00    +0.028 A 
ATOM     26 BR   UNL     1       2.682   5.202  -2.830  0.00  0.00    -0.046 Br
BRANCH  23  27
ATOM     27  O   UNL     1       0.183   3.779  -1.831  0.00  0.00    -0.490 OA
ATOM     28  C   UNL     1      -0.350   4.803  -0.989  0.00  0.00    +0.277 C 
ENDBRANCH  23  27
BRANCH  22  29
ATOM     29  O   UNL     1      -0.010   1.523  -0.269  0.00  0.00    -0.491 OA
ATOM     30  C   UNL     1      -0.036   0.348   0.544  0.00  0.00    +0.277 C 
ENDBRANCH  22  29
ENDBRANCH  19  20
ENDBRANCH   3  18
TORSDOF 7
