REMARK  Name = ZINC42946539
REMARK  8 active torsions:
REMARK  status: ('A' for Active; 'I' for Inactive)
REMARK    1  A    between atoms: C_4  and  C_7
REMARK    2  A    between atoms: C_7  and  C_9
REMARK    3  A    between atoms: C_7  and  N_14
REMARK    4  A    between atoms: N_17  and  C_18
REMARK    5  A    between atoms: C_18  and  C_19
REMARK    6  A    between atoms: C_19  and  C_20
REMARK    7  A    between atoms: C_23  and  S_26
REMARK    8  A    between atoms: S_26  and  N_29
REMARK                            x       y       z     vdW  Elec       q    Type
REMARK                         _______ _______ _______ _____ _____    ______ ____
ROOT
ATOM      1  N   UNL     1       3.611  -1.865  -0.930  0.00  0.00    -0.286 N 
ATOM      2  C   UNL     1       4.721  -2.370  -1.504  0.00  0.00    +0.300 C 
ATOM      3  O   UNL     1       5.805  -1.866  -1.281  0.00  0.00    -0.253 OA
ATOM      4  N   UNL     1       4.629  -3.435  -2.325  0.00  0.00    -0.299 N 
ATOM      5  H   UNL     1       2.747  -2.267  -1.108  0.00  0.00    +0.151 HD
ATOM      6  H   UNL     1       3.765  -3.837  -2.503  0.00  0.00    +0.150 HD
ENDROOT
BRANCH   1   7
ATOM      7  C   UNL     1       3.711  -0.707  -0.038  0.00  0.00    +0.171 C 
BRANCH   7  11
ATOM      8  C   UNL     1      -0.017   1.378   0.010  0.00  0.00    +0.000 A 
ATOM      9  C   UNL     1       1.171   2.086   0.002  0.00  0.00    +0.000 A 
ATOM     10  C   UNL     1       2.377   1.411  -0.013  0.00  0.00    +0.006 A 
ATOM     11  C   UNL     1       2.396   0.029  -0.020  0.00  0.00    -0.020 A 
ATOM     12  C   UNL     1       1.208  -0.679  -0.012  0.00  0.00    +0.006 A 
ATOM     13  C   UNL     1       0.002  -0.004   0.002  0.00  0.00    +0.000 A 
ENDBRANCH   7  11
BRANCH   7  14
ATOM     14  C   UNL     1       4.044  -1.175   1.356  0.00  0.00    +0.129 A 
ATOM     15  C   UNL     1       4.893  -0.570   2.207  0.00  0.00    +0.047 A 
ATOM     16  C   UNL     1       4.904  -1.342   3.391  0.00  0.00    +0.041 A 
ATOM     17  C   UNL     1       4.061  -2.372   3.193  0.00  0.00    +0.195 A 
ATOM     18  O   UNL     1       3.539  -2.262   1.961  0.00  0.00    -0.466 OA
ENDBRANCH   7  14
ENDBRANCH   1   7
BRANCH   4  19
ATOM     19  C   UNL     1       5.835  -3.985  -2.949  0.00  0.00    +0.110 C 
BRANCH  19  20
ATOM     20  C   UNL     1       5.456  -5.180  -3.826  0.00  0.00    +0.054 C 
BRANCH  20  21
ATOM     21  C   UNL     1       6.697  -5.746  -4.468  0.00  0.00    -0.046 A 
ATOM     22  C   UNL     1       7.120  -5.268  -5.694  0.00  0.00    +0.005 A 
ATOM     23  C   UNL     1       8.259  -5.787  -6.282  0.00  0.00    +0.029 A 
ATOM     24  C   UNL     1       8.973  -6.784  -5.645  0.00  0.00    +0.105 A 
ATOM     25  C   UNL     1       8.550  -7.261  -4.418  0.00  0.00    +0.029 A 
ATOM     26  C   UNL     1       7.415  -6.739  -3.828  0.00  0.00    +0.005 A 
BRANCH  24  27
ATOM     27  S   UNL     1      10.423  -7.446  -6.396  0.00  0.00    +0.056 S 
ATOM     28  O   UNL     1      10.604  -8.746  -5.853  0.00  0.00    -0.153 OA
ATOM     29  O   UNL     1      10.300  -7.214  -7.792  0.00  0.00    -0.153 OA
BRANCH  27  30
ATOM     30  N   UNL     1      11.704  -6.534  -5.875  0.00  0.00    -0.204 NA
ATOM     31  H   UNL     1      11.557  -5.793  -5.267  0.00  0.00    +0.144 HD
ATOM     32  H   UNL     1      12.602  -6.741  -6.179  0.00  0.00    +0.144 HD
ENDBRANCH  27  30
ENDBRANCH  24  27
ENDBRANCH  20  21
ENDBRANCH  19  20
ENDBRANCH   4  19
TORSDOF 8
