REMARK  Name = ZINC12883100
REMARK  7 active torsions:
REMARK  status: ('A' for Active; 'I' for Inactive)
REMARK    1  A    between atoms: C_1  and  C_2
REMARK    2  A    between atoms: C_18  and  C_20
REMARK    3  A    between atoms: C_20  and  N_76
REMARK    4  A    between atoms: C_24  and  C_26
REMARK    5  A    between atoms: C_26  and  C_27
REMARK    6  A    between atoms: C_26  and  C_33
REMARK    7  A    between atoms: C_26  and  O_39
REMARK                            x       y       z     vdW  Elec       q    Type
REMARK                         _______ _______ _______ _____ _____    ______ ____
ROOT
ATOM      1  C   UNL     1      -2.751  -3.811   4.281  0.00  0.00    -0.078 C 
ATOM      2  C   UNL     1      -1.876  -4.712   5.171  0.00  0.00    -0.020 C 
ATOM      3  C   UNL     1      -2.239  -4.320   6.622  0.00  0.00    -0.014 C 
ATOM      4  C   UNL     1      -2.827  -2.896   6.460  0.00  0.00    -0.027 C 
ATOM      5  N   UNL     1      -3.565  -3.004   5.191  0.00  0.00    +0.384 N 
ATOM      6  H   UNL     1      -4.467  -3.467   5.353  0.00  0.00    -0.081 HD
ENDROOT
BRANCH   5   7
ATOM      7  C   UNL     1      -3.807  -1.648   4.613  0.00  0.00    -0.063 C 
BRANCH   7  22
ATOM      8  C   UNL     1      -5.003  -1.956  -1.467  0.00  0.00    +0.011 C 
ATOM      9  C   UNL     1      -4.955  -1.011  -0.265  0.00  0.00    -0.023 C 
ATOM     10  C   UNL     1      -5.174   0.423  -0.741  0.00  0.00    +0.007 C 
ATOM     11  C   UNL     1      -4.140   0.750  -1.837  0.00  0.00    +0.003 C 
ATOM     12  C   UNL     1      -2.728   0.672  -1.250  0.00  0.00    +0.037 C 
ATOM     13  C   UNL     1      -2.519  -0.706  -0.620  0.00  0.00    +0.096 C 
ATOM     14  C   UNL     1      -3.579  -1.116   0.409  0.00  0.00    +0.030 C 
ATOM     15  C   UNL     1      -3.552  -0.130   1.579  0.00  0.00    +0.014 C 
ATOM     16  C   UNL     1      -4.642  -0.408   2.580  0.00  0.00    +0.042 C 
ATOM     17  C   UNL     1      -6.048  -0.511   1.955  0.00  0.00    +0.181 C 
ATOM     18  C   UNL     1      -6.032  -1.410   0.732  0.00  0.00    +0.052 C 
ATOM     19  O   UNL     1      -6.768  -1.258   3.008  0.00  0.00    -0.461 OA
ATOM     20  C   UNL     1      -5.943  -2.237   3.439  0.00  0.00    +0.309 C 
ATOM     21  O   UNL     1      -6.292  -3.301   3.893  0.00  0.00    -0.251 OA
ATOM     22  C   UNL     1      -4.503  -1.783   3.257  0.00  0.00    +0.088 C 
ATOM     23  C   UNL     1      -1.087  -1.187  -0.400  0.00  0.00    +0.196 C 
ATOM     24  O   UNL     1      -1.932  -1.730  -1.418  0.00  0.00    -0.368 OA
ENDBRANCH   7  22
ENDBRANCH   5   7
BRANCH   4  25
ATOM     25  C   UNL     1      -3.767  -2.564   7.620  0.00  0.00    +0.104 C 
BRANCH  25  26
ATOM     26  C   UNL     1      -2.991  -2.566   8.912  0.00  0.00    -0.013 A 
ATOM     27  C   UNL     1      -1.651  -2.229   8.913  0.00  0.00    +0.007 A 
ATOM     28  C   UNL     1      -0.940  -2.227  10.099  0.00  0.00    +0.000 A 
ATOM     29  C   UNL     1      -1.567  -2.571  11.282  0.00  0.00    +0.000 A 
ATOM     30  C   UNL     1      -2.906  -2.912  11.280  0.00  0.00    +0.000 A 
ATOM     31  C   UNL     1      -3.618  -2.910  10.095  0.00  0.00    +0.007 A 
ENDBRANCH  25  26
BRANCH  25  32
ATOM     32  C   UNL     1      -4.375  -1.202   7.401  0.00  0.00    -0.013 A 
ATOM     33  C   UNL     1      -3.563  -0.123   7.104  0.00  0.00    +0.007 A 
ATOM     34  C   UNL     1      -4.121   1.125   6.899  0.00  0.00    +0.000 A 
ATOM     35  C   UNL     1      -5.489   1.296   7.000  0.00  0.00    +0.000 A 
ATOM     36  C   UNL     1      -6.300   0.218   7.302  0.00  0.00    +0.000 A 
ATOM     37  C   UNL     1      -5.742  -1.031   7.503  0.00  0.00    +0.007 A 
ENDBRANCH  25  32
BRANCH  25  38
ATOM     38  O   UNL     1      -4.806  -3.543   7.687  0.00  0.00    -0.381 OA
ATOM     39  H   UNL     1      -4.487  -4.446   7.827  0.00  0.00    +0.211 HD
ENDBRANCH  25  38
ENDBRANCH   4  25
TORSDOF 6
