REMARK  Name = ZINC51989200
REMARK  3 active torsions:
REMARK  status: ('A' for Active; 'I' for Inactive)
REMARK    1  A    between atoms: C_6  and  C_7
REMARK    2  A    between atoms: N_9  and  C_10
REMARK    3  A    between atoms: C_16  and  O_18
REMARK                            x       y       z     vdW  Elec       q    Type
REMARK                         _______ _______ _______ _____ _____    ______ ____
ROOT
ATOM      1  C   UNL     1      -1.169  -0.887   0.009  0.00  0.00    +0.261 C 
ATOM      2  O   UNL     1      -2.289  -0.411   0.022  0.00  0.00    -0.269 OA
ATOM      3  N   UNL     1      -1.005  -2.224  -0.000  0.00  0.00    -0.305 N 
ATOM      4  H   UNL     1      -0.112  -2.603  -0.011  0.00  0.00    +0.149 HD
ENDROOT
BRANCH   1  10
ATOM      5  C   UNL     1      -0.017   1.375   0.010  0.00  0.00    +0.052 A 
ATOM      6  C   UNL     1       1.315   1.804  -0.001  0.00  0.00    +0.059 A 
ATOM      7  C   UNL     1       2.106   0.704  -0.014  0.00  0.00    +0.103 A 
ATOM      8  N   UNL     1       1.320  -0.401  -0.013  0.00  0.00    -0.356 N 
ATOM      9  H   UNL     1       1.634  -1.319  -0.020  0.00  0.00    +0.166 HD
ATOM     10  C   UNL     1       0.002  -0.004   0.002  0.00  0.00    +0.103 A 
ATOM     11 CL   UNL     1       1.857   3.453   0.002  0.00  0.00    -0.082 Cl
ENDBRANCH   1  10
BRANCH   3  12
ATOM     12  C   UNL     1      -2.175  -3.106   0.006  0.00  0.00    +0.102 C 
ATOM     13  C   UNL     1      -2.672  -3.305  -1.427  0.00  0.00    +0.025 C 
ATOM     14  C   UNL     1      -3.893  -4.226  -1.421  0.00  0.00    +0.002 C 
ATOM     15  C   UNL     1      -3.508  -5.580  -0.822  0.00  0.00    +0.003 C 
ATOM     16  C   UNL     1      -3.011  -5.381   0.612  0.00  0.00    +0.033 C 
ATOM     17  C   UNL     1      -1.790  -4.460   0.605  0.00  0.00    +0.135 C 
BRANCH  17  18
ATOM     18  O   UNL     1      -0.752  -5.051  -0.181  0.00  0.00    -0.390 OA
ATOM     19  H   UNL     1      -0.458  -5.914   0.141  0.00  0.00    +0.210 HD
ENDBRANCH  17  18
ENDBRANCH   3  12
TORSDOF 3
