REMARK  Name = ZINC39354333
REMARK  8 active torsions:
REMARK  status: ('A' for Active; 'I' for Inactive)
REMARK    1  A    between atoms: C_1  and  C_2
REMARK    2  A    between atoms: C_2  and  N_3
REMARK    3  A    between atoms: C_4  and  C_24
REMARK    4  A    between atoms: C_8  and  S_10
REMARK    5  A    between atoms: S_10  and  C_11
REMARK    6  A    between atoms: C_11  and  C_12
REMARK    7  A    between atoms: C_24  and  O_25
REMARK    8  A    between atoms: O_25  and  C_26
REMARK                            x       y       z     vdW  Elec       q    Type
REMARK                         _______ _______ _______ _____ _____    ______ ____
ROOT
ATOM      1  N   UNL     1       0.713  -0.491   1.192  0.00  0.00    -0.259 NA
ATOM      2  C   UNL     1       0.591  -1.962   1.319  0.00  0.00    +0.178 C 
ATOM      3  N   UNL     1       1.854  -2.484   0.734  0.00  0.00    -0.234 NA
ATOM      4  N   UNL     1       2.856  -1.503   1.179  0.00  0.00    -0.229 NA
ATOM      5  C   UNL     1       2.159  -0.200   1.102  0.00  0.00    +0.200 C 
ATOM      6  H   UNL     1       1.800  -2.515  -0.273  0.00  0.00    +0.142 HD
ATOM      7  H   UNL     1       3.666  -1.516   0.577  0.00  0.00    +0.143 HD
ENDROOT
BRANCH   1   9
ATOM      8  C   UNL     1      -0.019   1.526   0.010  0.00  0.00    +0.020 C 
ATOM      9  C   UNL     1       0.002  -0.004   0.002  0.00  0.00    +0.085 C 
ENDBRANCH   1   9
BRANCH   5  10
ATOM     10  S   UNL     1       2.667   0.861   2.483  0.00  0.00    -0.117 S 
BRANCH  10  11
ATOM     11  C   UNL     1       2.265  -0.117   3.957  0.00  0.00    +0.146 C 
BRANCH  11  12
ATOM     12  C   UNL     1       2.642   0.659   5.193  0.00  0.00    +0.120 A 
ATOM     13  N   UNL     1       2.422   0.087   6.405  0.00  0.00    -0.310 N 
ATOM     14  H   UNL     1       2.030  -0.799   6.455  0.00  0.00    +0.170 HD
ATOM     15  C   UNL     1       2.744   0.742   7.545  0.00  0.00    +0.259 A 
ATOM     16  O   UNL     1       2.552   0.242   8.638  0.00  0.00    -0.267 OA
ATOM     17  C   UNL     1       3.334   2.083   7.411  0.00  0.00    +0.065 A 
ATOM     18  C   UNL     1       3.701   2.841   8.522  0.00  0.00    +0.015 A 
ATOM     19  C   UNL     1       4.250   4.091   8.339  0.00  0.00    +0.001 A 
ATOM     20  C   UNL     1       4.440   4.599   7.060  0.00  0.00    +0.002 A 
ATOM     21  C   UNL     1       4.084   3.866   5.950  0.00  0.00    +0.028 A 
ATOM     22  C   UNL     1       3.526   2.596   6.110  0.00  0.00    +0.078 A 
ATOM     23  N   UNL     1       3.167   1.837   5.044  0.00  0.00    -0.233 NA
ENDBRANCH  11  12
ENDBRANCH  10  11
ENDBRANCH   5  10
BRANCH   2  24
ATOM     24  C   UNL     1      -0.618  -2.469   0.529  0.00  0.00    +0.265 C 
BRANCH  24  25
ATOM     25  O   UNL     1      -0.461  -2.133  -0.851  0.00  0.00    -0.489 OA
BRANCH  25  26
ATOM     26  C   UNL     1      -1.454  -2.514  -1.696  0.00  0.00    +0.121 A 
ATOM     27  C   UNL     1      -2.562  -3.192  -1.208  0.00  0.00    +0.046 A 
ATOM     28  C   UNL     1      -3.563  -3.577  -2.074  0.00  0.00    +0.007 A 
ATOM     29  C   UNL     1      -3.475  -3.290  -3.431  0.00  0.00    -0.044 A 
ATOM     30  C   UNL     1      -2.379  -2.612  -3.916  0.00  0.00    -0.041 A 
ATOM     31  C   UNL     1      -1.370  -2.222  -3.046  0.00  0.00    +0.049 A 
ATOM     32  C   UNL     1      -2.226  -2.254  -5.371  0.00  0.00    +0.035 C 
ATOM     33  C   UNL     1      -3.165  -3.096  -6.233  0.00  0.00    +0.005 C 
ATOM     34  C   UNL     1      -4.578  -2.997  -5.648  0.00  0.00    +0.005 C 
ATOM     35  C   UNL     1      -4.603  -3.748  -4.318  0.00  0.00    +0.035 C 
ENDBRANCH  25  26
ENDBRANCH  24  25
ENDBRANCH   2  24
TORSDOF 7
