REMARK  Name = ZINC15776892
REMARK  2 active torsions:
REMARK  status: ('A' for Active; 'I' for Inactive)
REMARK    1  A    between atoms: C_6  and  N_7
REMARK    2  A    between atoms: N_11  and  N_12
REMARK                            x       y       z     vdW  Elec       q    Type
REMARK                         _______ _______ _______ _____ _____    ______ ____
ROOT
ATOM      1  N   UNL     1       3.515  -2.599   0.052  0.00  0.00    -0.203 N 
ATOM      2  C   UNL     1       4.034  -3.882   0.145  0.00  0.00    +0.256 A 
ATOM      3  N   UNL     1       3.206  -4.913   0.241  0.00  0.00    -0.192 NA
ATOM      4  C   UNL     1       3.704  -6.141   0.330  0.00  0.00    +0.163 A 
ATOM      5  C   UNL     1       5.106  -6.298   0.317  0.00  0.00    +0.138 A 
ATOM      6  C   UNL     1       5.363  -7.744   0.427  0.00  0.00    +0.030 A 
ATOM      7  C   UNL     1       6.523  -8.514   0.468  0.00  0.00    +0.027 A 
ATOM      8  C   UNL     1       6.432  -9.885   0.579  0.00  0.00    +0.019 A 
ATOM      9  C   UNL     1       5.191 -10.499   0.650  0.00  0.00    +0.017 A 
ATOM     10  C   UNL     1       4.035  -9.749   0.610  0.00  0.00    +0.027 A 
ATOM     11  C   UNL     1       4.106  -8.364   0.499  0.00  0.00    +0.050 A 
ATOM     12  N   UNL     1       3.129  -7.383   0.439  0.00  0.00    -0.338 N 
ATOM     13  H   UNL     1       2.174  -7.550   0.469  0.00  0.00    +0.167 HD
ATOM     14 BR   UNL     1       8.006 -10.932   0.634  0.00  0.00    -0.050 Br
ATOM     15  N   UNL     1       5.880  -5.226   0.218  0.00  0.00    -0.142 NA
ATOM     16  N   UNL     1       5.351  -4.054   0.130  0.00  0.00    -0.111 NA
ATOM     17  H   UNL     1       2.555  -2.462   0.062  0.00  0.00    +0.178 HD
ENDROOT
BRANCH   1  25
ATOM     18  C   UNL     1       0.055   1.396   0.675  0.00  0.00    +0.034 A 
ATOM     19  C   UNL     1       1.203   2.109   0.394  0.00  0.00    +0.026 A 
ATOM     20  C   UNL     1       2.404   1.441   0.181  0.00  0.00    +0.043 A 
ATOM     21  C   UNL     1       2.428   0.042   0.255  0.00  0.00    +0.030 A 
ATOM     22  C   UNL     1       1.266  -0.666   0.537  0.00  0.00    +0.044 A 
ATOM     23  C   UNL     1       0.083   0.014   0.747  0.00  0.00    +0.127 A 
ATOM     24  C   UNL     1       3.825  -0.367  -0.015  0.00  0.00    +0.153 C 
ATOM     25  N   UNL     1       4.309  -1.587  -0.047  0.00  0.00    -0.174 NA
ATOM     26  C   UNL     1       4.555   0.894  -0.239  0.00  0.00    +0.269 C 
ATOM     27  O   UNL     1       5.741   1.000  -0.493  0.00  0.00    -0.268 OA
ATOM     28  N   UNL     1       3.681   1.906  -0.113  0.00  0.00    -0.280 N 
ATOM     29  H   UNL     1       3.911   2.843  -0.214  0.00  0.00    +0.155 HD
BRANCH  23  30
ATOM     30  N   UNL     1      -1.158  -0.736   1.049  0.00  0.00    +0.056 N 
ATOM     31  O   UNL     1      -2.194  -0.141   1.233  0.00  0.00    -0.126 OA
ATOM     32  O   UNL     1      -1.134  -1.943   1.112  0.00  0.00    -0.126 OA
ENDBRANCH  23  30
ENDBRANCH   1  25
TORSDOF 2
