REMARK  Name = ZINC27828013
REMARK  8 active torsions:
REMARK  status: ('A' for Active; 'I' for Inactive)
REMARK    1  A    between atoms: C_1  and  C_2
REMARK    2  A    between atoms: C_2  and  C_3
REMARK    3  A    between atoms: C_2  and  C_4
REMARK    4  A    between atoms: C_11  and  C_13
REMARK    5  A    between atoms: C_17  and  N_19
REMARK    6  A    between atoms: N_19  and  C_20
REMARK    7  A    between atoms: C_20  and  N_22
REMARK    8  A    between atoms: C_23  and  C_25
REMARK                            x       y       z     vdW  Elec       q    Type
REMARK                         _______ _______ _______ _____ _____    ______ ____
ROOT
ATOM      1  C   UNL     1       2.368   0.088  -0.445  0.00  0.00    +0.039 A 
ATOM      2  C   UNL     1       2.385   1.422  -0.034  0.00  0.00    +0.015 A 
ATOM      3  C   UNL     1       1.220   2.030   0.386  0.00  0.00    +0.022 A 
ATOM      4  C   UNL     1       0.031   1.322   0.400  0.00  0.00    +0.062 A 
ATOM      5  C   UNL     1       0.004  -0.008  -0.007  0.00  0.00    +0.052 A 
ATOM      6  C   UNL     1       1.170  -0.627  -0.430  0.00  0.00    +0.038 A 
ATOM      7 CL   UNL     1      -1.432   2.097   0.922  0.00  0.00    -0.082 Cl
ENDROOT
BRANCH   1  15
ATOM      8  C   UNL     1       7.726  -1.939  -2.134  0.00  0.00    -0.043 A 
ATOM      9  C   UNL     1       7.033  -3.118  -2.363  0.00  0.00    +0.007 A 
ATOM     10  C   UNL     1       5.677  -3.192  -2.119  0.00  0.00    +0.049 A 
ATOM     11  C   UNL     1       5.000  -2.082  -1.640  0.00  0.00    +0.156 A 
ATOM     12  C   UNL     1       5.697  -0.886  -1.406  0.00  0.00    +0.110 A 
ATOM     13  C   UNL     1       7.070  -0.826  -1.658  0.00  0.00    +0.035 A 
ATOM     14  N   UNL     1       4.788   0.012  -0.947  0.00  0.00    -0.209 NA
ATOM     15  C   UNL     1       3.615  -0.566  -0.894  0.00  0.00    +0.228 A 
ATOM     16  O   UNL     1       3.712  -1.844  -1.305  0.00  0.00    -0.435 OA
BRANCH   8  18
ATOM     17  C   UNL     1       9.930  -2.908  -1.539  0.00  0.00    +0.012 C 
ATOM     18  C   UNL     1       9.207  -1.875  -2.406  0.00  0.00    +0.013 C 
ATOM     19  C   UNL     1       9.467  -2.179  -3.883  0.00  0.00    +0.012 C 
ENDBRANCH   8  18
ENDBRANCH   1  15
BRANCH   5  20
ATOM     20  N   UNL     1      -1.200  -0.720   0.010  0.00  0.00    -0.295 N 
ATOM     21  H   UNL     1      -2.120  -0.255  -0.374  0.00  0.00    +0.154 HD
BRANCH  20  22
ATOM     22  C   UNL     1      -1.233  -1.976   0.497  0.00  0.00    +0.141 C 
ATOM     23  S   UNL     1       0.164  -2.650   1.223  0.00  0.00    -0.018 S 
BRANCH  22  24
ATOM     24  N   UNL     1      -2.365  -2.703   0.413  0.00  0.00    -0.261 N 
ATOM     25  C   UNL     1      -2.398  -3.959   0.901  0.00  0.00    +0.285 C 
ATOM     26  O   UNL     1      -1.405  -4.437   1.417  0.00  0.00    -0.266 OA
ATOM     27  H   UNL     1      -3.263  -2.270  -0.053  0.00  0.00    +0.157 HD
BRANCH  25  28
ATOM     28  C   UNL     1      -3.630  -4.748   0.809  0.00  0.00    +0.189 A 
ATOM     29  C   UNL     1      -3.799  -6.027   1.261  0.00  0.00    +0.054 A 
ATOM     30  C   UNL     1      -5.124  -6.385   0.968  0.00  0.00    +0.042 A 
ATOM     31  C   UNL     1      -5.698  -5.324   0.359  0.00  0.00    +0.196 A 
ATOM     32  O   UNL     1      -4.796  -4.338   0.270  0.00  0.00    -0.458 OA
ENDBRANCH  25  28
ENDBRANCH  22  24
ENDBRANCH  20  22
ENDBRANCH   5  20
TORSDOF 6
