REMARK  Name = ZINC27324521
REMARK  9 active torsions:
REMARK  status: ('A' for Active; 'I' for Inactive)
REMARK    1  A    between atoms: C_1  and  C_2
REMARK    2  A    between atoms: C_2  and  C_40
REMARK    3  A    between atoms: C_7  and  C_22
REMARK    4  A    between atoms: C_8  and  C_10
REMARK    5  A    between atoms: C_8  and  O_21
REMARK    6  A    between atoms: C_10  and  N_11
REMARK    7  A    between atoms: C_12  and  C_14
REMARK    8  A    between atoms: C_22  and  S_23
REMARK    9  A    between atoms: S_23  and  N_26
REMARK                            x       y       z     vdW  Elec       q    Type
REMARK                         _______ _______ _______ _____ _____    ______ ____
ROOT
ATOM      1  C   UNL     1      -0.261   3.027   1.934  0.00  0.00    +0.012 C 
ATOM      2  C   UNL     1       0.862   3.803   1.244  0.00  0.00    -0.022 C 
ATOM      3  C   UNL     1       2.282   3.310   1.695  0.00  0.00    -0.002 C 
ATOM      4  C   UNL     1       3.187   4.066   0.674  0.00  0.00    +0.005 C 
ATOM      5  C   UNL     1       2.349   4.124  -0.623  0.00  0.00    +0.012 C 
ATOM      6  C   UNL     1       1.016   3.397  -0.265  0.00  0.00    +0.027 C 
ATOM      7  C   UNL     1       1.416   1.897  -0.120  0.00  0.00    +0.089 C 
ATOM      8  C   UNL     1       2.254   1.839   1.177  0.00  0.00    +0.041 C 
ATOM      9  C   UNL     1       0.697   5.314   1.417  0.00  0.00    +0.012 C 
ENDROOT
BRANCH   7  10
ATOM     10  O   UNL     1       0.250   1.080   0.003  0.00  0.00    -0.386 OA
ATOM     11  H   UNL     1       0.351  -0.009   0.114  0.00  0.00    +0.210 HD
ENDBRANCH   7  10
BRANCH   7  12
ATOM     12  C   UNL     1       2.256   1.449  -1.318  0.00  0.00    +0.139 C 
BRANCH  12  13
ATOM     13  N   UNL     1       2.607   0.034  -1.166  0.00  0.00    -0.312 N 
ATOM     14  C   UNL     1       3.349  -0.581  -2.108  0.00  0.00    +0.214 C 
ATOM     15  O   UNL     1       3.726   0.037  -3.082  0.00  0.00    -0.276 OA
ATOM     16  H   UNL     1       2.265  -0.525  -0.283  0.00  0.00    +0.149 HD
BRANCH  14  17
ATOM     17  C   UNL     1       3.710  -2.035  -1.952  0.00  0.00    +0.058 C 
ATOM     18  C   UNL     1       4.547  -2.486  -3.152  0.00  0.00    +0.009 C 
ATOM     19  C   UNL     1       4.858  -3.979  -3.016  0.00  0.00    -0.018 C 
ATOM     20  C   UNL     1       3.547  -4.762  -2.915  0.00  0.00    -0.083 C 
ATOM     21  N   UNL     1       2.784  -4.294  -1.751  0.00  0.00    +0.380 N 
ATOM     22  C   UNL     1       2.433  -2.874  -1.882  0.00  0.00    -0.070 C 
ATOM     23  H   UNL     1       1.857  -4.879  -1.662  0.00  0.00    -0.086 HD
ATOM     24  H   UNL     1       3.388  -4.423  -0.841  0.00  0.00    -0.086 HD
ENDBRANCH  14  17
ENDBRANCH  12  13
ENDBRANCH   7  12
BRANCH   6  25
ATOM     25  C   UNL     1      -0.172   3.687  -1.184  0.00  0.00    +0.195 C 
BRANCH  25  26
ATOM     26  S   UNL     1       0.134   2.956  -2.816  0.00  0.00    +0.032 S 
ATOM     27  O   UNL     1       1.349   3.456  -3.356  0.00  0.00    -0.158 OA
ATOM     28  O   UNL     1      -0.123   1.559  -2.782  0.00  0.00    -0.158 OA
BRANCH  26  29
ATOM     29  N   UNL     1      -1.051   3.581  -3.790  0.00  0.00    -0.181 NA
ATOM     30  C   UNL     1      -2.337   2.888  -3.941  0.00  0.00    +0.110 C 
ATOM     31  C   UNL     1      -2.610   2.664  -5.428  0.00  0.00    +0.033 C 
ATOM     32  C   UNL     1      -2.514   3.998  -6.168  0.00  0.00    +0.017 C 
ATOM     33  C   UNL     1      -1.115   4.592  -6.011  0.00  0.00    +0.033 C 
ATOM     34  C   UNL     1      -0.831   4.834  -4.524  0.00  0.00    +0.110 C 
ATOM     35  C   UNL     1      -3.549   4.959  -5.639  0.00  0.00    -0.015 C 
ATOM     36  C   UNL     1      -4.358   5.282  -6.635  0.00  0.00    +0.005 C 
ATOM     37  C   UNL     1      -3.963   4.599  -7.881  0.00  0.00    -0.021 A 
ATOM     38  C   UNL     1      -2.840   3.808  -7.627  0.00  0.00    -0.030 A 
ATOM     39  C   UNL     1      -2.270   3.064  -8.633  0.00  0.00    +0.005 A 
ATOM     40  C   UNL     1      -2.810   3.095  -9.908  0.00  0.00    +0.000 A 
ATOM     41  C   UNL     1      -3.923   3.874 -10.171  0.00  0.00    +0.001 A 
ATOM     42  C   UNL     1      -4.502   4.624  -9.169  0.00  0.00    +0.008 A 
ENDBRANCH  26  29
ENDBRANCH  25  26
ENDBRANCH   6  25
TORSDOF 7
