REMARK  Name = ZINC66408307
REMARK  5 active torsions:
REMARK  status: ('A' for Active; 'I' for Inactive)
REMARK    1  A    between atoms: C_1  and  C_2
REMARK    2  A    between atoms: C_11  and  C_12
REMARK    3  A    between atoms: C_12  and  C_14
REMARK    4  A    between atoms: C_14  and  C_27
REMARK    5  A    between atoms: C_15  and  C_16
REMARK                            x       y       z     vdW  Elec       q    Type
REMARK                         _______ _______ _______ _____ _____    ______ ____
ROOT
ATOM      1  C   UNL     1      -0.021  -6.755  -0.234  0.00  0.00    +0.100 C 
ATOM      2  C   UNL     1       0.234  -7.737  -1.167  0.00  0.00    +0.034 C 
ENDROOT
BRANCH   2   3
ATOM      3  C   UNL     1       0.358  -7.387  -2.583  0.00  0.00    +0.022 A 
ATOM      4  C   UNL     1       0.905  -6.151  -2.963  0.00  0.00    +0.012 A 
ATOM      5  C   UNL     1       1.018  -5.829  -4.296  0.00  0.00    +0.004 A 
ATOM      6  C   UNL     1       0.595  -6.718  -5.273  0.00  0.00    +0.049 A 
ATOM      7  C   UNL     1       0.054  -7.940  -4.915  0.00  0.00    +0.162 A 
ATOM      8  C   UNL     1      -0.062  -8.285  -3.576  0.00  0.00    +0.169 A 
ATOM      9  O   UNL     1      -0.587  -9.494  -3.234  0.00  0.00    -0.488 OA
ATOM     10  C   UNL     1      -1.978  -9.671  -3.511  0.00  0.00    +0.232 C 
ATOM     11  C   UNL     1      -2.189 -10.112  -4.951  0.00  0.00    +0.082 C 
ATOM     12  C   UNL     1      -1.760  -9.050  -5.950  0.00  0.00    +0.232 C 
ATOM     13  O   UNL     1      -0.363  -8.817  -5.874  0.00  0.00    -0.488 OA
ENDBRANCH   2   3
BRANCH   1  14
ATOM     14  C   UNL     1      -0.311  -5.381  -0.673  0.00  0.00    +0.205 C 
ATOM     15  O   UNL     1      -1.294  -5.154  -1.356  0.00  0.00    -0.286 OA
BRANCH  14  26
ATOM     16  C   UNL     1       1.043   1.318  -1.340  0.00  0.00    +0.044 C 
ATOM     17  C   UNL     1       0.851  -0.160  -1.114  0.00  0.00    -0.048 A 
ATOM     18  C   UNL     1      -0.205  -0.818  -1.728  0.00  0.00    +0.004 A 
ATOM     19  C   UNL     1      -0.392  -2.168  -1.530  0.00  0.00    +0.011 A 
ATOM     20  C   UNL     1       0.486  -2.873  -0.709  0.00  0.00    +0.011 A 
ATOM     21  C   UNL     1       1.555  -2.209  -0.087  0.00  0.00    +0.047 A 
ATOM     22  C   UNL     1       1.730  -0.846  -0.304  0.00  0.00    +0.029 A 
ATOM     23  N   UNL     1       2.248  -3.143   0.654  0.00  0.00    -0.360 N 
ATOM     24  H   UNL     1       3.036  -2.954   1.187  0.00  0.00    +0.165 HD
ATOM     25  C   UNL     1       1.673  -4.364   0.533  0.00  0.00    +0.095 A 
ATOM     26  C   UNL     1       0.585  -4.282  -0.287  0.00  0.00    +0.048 A 
ENDBRANCH  14  26
ENDBRANCH   1  14
BRANCH   1  27
ATOM     27  C   UNL     1      -0.003  -7.072   1.162  0.00  0.00    +0.103 C 
ATOM     28  N   UNL     1       0.012  -7.324   2.270  0.00  0.00    -0.191 NA
ENDBRANCH   1  27
TORSDOF 4
