REMARK  Name = ZINC04361155
REMARK  4 active torsions:
REMARK  status: ('A' for Active; 'I' for Inactive)
REMARK    1  A    between atoms: C_1  and  C_2
REMARK    2  A    between atoms: C_6  and  N_9
REMARK    3  A    between atoms: C_7  and  C_8
REMARK    4  A    between atoms: N_14  and  C_18
REMARK                            x       y       z     vdW  Elec       q    Type
REMARK                         _______ _______ _______ _____ _____    ______ ____
ROOT
ATOM      1  N   UNL     1       2.424   1.127  -0.018  0.00  0.00    -0.283 N 
ATOM      2  C   UNL     1       2.405  -0.181   0.076  0.00  0.00    +0.225 A 
ATOM      3  N   UNL     1       3.573  -0.935   0.029  0.00  0.00    -0.182 NA
ATOM      4  C   UNL     1       3.604  -2.026   0.896  0.00  0.00    +0.203 A 
ATOM      5  N   UNL     1       4.689  -2.368   1.530  0.00  0.00    -0.328 N 
ATOM      6  N   UNL     1       2.416  -2.729   1.048  0.00  0.00    -0.258 N 
ATOM      7  C   UNL     1       1.250  -2.133   0.729  0.00  0.00    +0.190 A 
ATOM      8  S   UNL     1      -0.220  -2.977   0.969  0.00  0.00    -0.010 S 
ATOM      9  N   UNL     1       1.221  -0.882   0.232  0.00  0.00    -0.189 NA
ATOM     10  H   UNL     1       4.680  -3.234   2.207  0.00  0.00    +0.145 HD
ATOM     11  H   UNL     1       3.369   1.650  -0.224  0.00  0.00    +0.155 HD
ATOM     12  H   UNL     1       5.614  -1.789   1.388  0.00  0.00    +0.145 HD
ENDROOT
BRANCH   1  18
ATOM     13  C   UNL     1      -1.455   3.356  -2.009  0.00  0.00    +0.044 C 
ATOM     14  C   UNL     1      -0.646   2.944  -0.806  0.00  0.00    -0.046 A 
ATOM     15  C   UNL     1      -1.073   3.289   0.464  0.00  0.00    +0.004 A 
ATOM     16  C   UNL     1      -0.340   2.909   1.574  0.00  0.00    +0.002 A 
ATOM     17  C   UNL     1       0.830   2.193   1.420  0.00  0.00    +0.023 A 
ATOM     18  C   UNL     1       1.266   1.842   0.142  0.00  0.00    +0.037 A 
ATOM     19  C   UNL     1       0.518   2.223  -0.974  0.00  0.00    -0.026 A 
ATOM     20  C   UNL     1       0.982   1.849  -2.358  0.00  0.00    +0.046 C 
ENDBRANCH   1  18
BRANCH   6  21
ATOM     21  C   UNL     1       2.429  -4.048   1.527  0.00  0.00    +0.087 A 
ATOM     22  C   UNL     1       1.563  -4.427   2.543  0.00  0.00    +0.032 A 
ATOM     23  C   UNL     1       1.574  -5.727   3.010  0.00  0.00    +0.040 A 
ATOM     24  C   UNL     1       2.455  -6.650   2.474  0.00  0.00    +0.126 A 
ATOM     25  C   UNL     1       3.324  -6.274   1.463  0.00  0.00    +0.078 A 
ATOM     26  C   UNL     1       3.314  -4.975   0.989  0.00  0.00    +0.150 A 
ATOM     27  F   UNL     1       4.162  -4.608   0.003  0.00  0.00    -0.203 F 
ATOM     28  F   UNL     1       2.467  -7.919   2.936  0.00  0.00    -0.205 F 
ENDBRANCH   6  21
TORSDOF 2
