REMARK  Name = ZINC12495289
REMARK  11 active torsions:
REMARK  status: ('A' for Active; 'I' for Inactive)
REMARK    1  A    between atoms: C_1  and  C_2
REMARK    2  A    between atoms: C_2  and  C_4
REMARK    3  A    between atoms: C_2  and  S_16
REMARK    4  A    between atoms: N_6  and  C_7
REMARK    5  A    between atoms: C_10  and  C_13
REMARK    6  A    between atoms: C_13  and  C_15
REMARK    7  A    between atoms: S_16  and  C_17
REMARK    8  A    between atoms: C_20  and  C_28
REMARK    9  A    between atoms: N_21  and  C_22
REMARK   10  A    between atoms: C_22  and  C_23
REMARK   11  A    between atoms: C_31  and  O_34
REMARK                            x       y       z     vdW  Elec       q    Type
REMARK                         _______ _______ _______ _____ _____    ______ ____
ROOT
ATOM      1  C   UNL     1      -1.400   3.645  -2.028  0.00  0.00    +0.193 A 
ATOM      2  N   UNL     1      -1.825   3.410  -3.249  0.00  0.00    -0.122 NA
ATOM      3  N   UNL     1      -2.434   2.279  -3.294  0.00  0.00    -0.128 NA
ATOM      4  C   UNL     1      -2.429   1.720  -2.106  0.00  0.00    +0.165 A 
ATOM      5  N   UNL     1      -1.764   2.576  -1.259  0.00  0.00    -0.295 N 
ENDROOT
BRANCH   4   6
ATOM      6  C   UNL     1      -3.027   0.417  -1.746  0.00  0.00    +0.020 A 
ATOM      7  C   UNL     1      -3.988  -0.165  -2.574  0.00  0.00    +0.015 A 
ATOM      8  C   UNL     1      -4.540  -1.383  -2.237  0.00  0.00    +0.046 A 
ATOM      9  C   UNL     1      -4.148  -2.026  -1.070  0.00  0.00    +0.117 A 
ATOM     10  C   UNL     1      -3.196  -1.448  -0.240  0.00  0.00    +0.046 A 
ATOM     11  C   UNL     1      -2.636  -0.233  -0.573  0.00  0.00    +0.015 A 
BRANCH   9  12
ATOM     12  O   UNL     1      -4.697  -3.224  -0.739  0.00  0.00    -0.507 OA
ATOM     13  H   UNL     1      -5.496  -3.154  -0.199  0.00  0.00    +0.292 HD
ENDBRANCH   9  12
ENDBRANCH   4   6
BRANCH   1  14
ATOM     14  S   UNL     1      -0.519   5.072  -1.485  0.00  0.00    -0.073 S 
BRANCH  14  16
ATOM     15  C   UNL     1      -1.837   6.399  -3.476  0.00  0.00    +0.029 C 
ATOM     16  C   UNL     1      -0.428   5.995  -3.039  0.00  0.00    +0.137 C 
BRANCH  16  17
ATOM     17  C   UNL     1       0.410   7.231  -2.840  0.00  0.00    +0.230 C 
ATOM     18  O   UNL     1       0.594   7.666  -1.723  0.00  0.00    -0.274 OA
ATOM     19  N   UNL     1       0.955   7.855  -3.904  0.00  0.00    -0.285 N 
ATOM     20  H   UNL     1       0.753   7.548  -4.802  0.00  0.00    +0.155 HD
BRANCH  19  21
ATOM     21  C   UNL     1       1.808   8.939  -3.714  0.00  0.00    +0.033 A 
ATOM     22  C   UNL     1       2.897   9.122  -4.562  0.00  0.00    +0.024 A 
ATOM     23  C   UNL     1       3.737  10.191  -4.382  0.00  0.00    +0.013 A 
ATOM     24  C   UNL     1       3.504  11.093  -3.336  0.00  0.00    +0.017 A 
ATOM     25  C   UNL     1       2.410  10.902  -2.482  0.00  0.00    +0.013 A 
ATOM     26  C   UNL     1       1.573   9.834  -2.673  0.00  0.00    +0.024 A 
BRANCH  24  27
ATOM     27  C   UNL     1       4.404  12.236  -3.136  0.00  0.00    +0.160 C 
ATOM     28  O   UNL     1       4.200  13.017  -2.230  0.00  0.00    -0.292 OA
ATOM     29  C   UNL     1       5.580  12.440  -4.056  0.00  0.00    +0.091 C 
ENDBRANCH  24  27
ENDBRANCH  19  21
ENDBRANCH  16  17
ENDBRANCH  14  16
ENDBRANCH   1  14
BRANCH   5  30
ATOM     30  C   UNL     1      -1.506   2.385   0.170  0.00  0.00    +0.200 C 
BRANCH  30  31
ATOM     31  C   UNL     1      -0.132   1.797   0.358  0.00  0.00    +0.125 A 
ATOM     32  C   UNL     1       1.009   2.495   0.509  0.00  0.00    +0.046 A 
ATOM     33  C   UNL     1       2.051   1.550   0.648  0.00  0.00    +0.041 A 
ATOM     34  C   UNL     1       1.486   0.332   0.573  0.00  0.00    +0.195 A 
ATOM     35  O   UNL     1       0.164   0.488   0.398  0.00  0.00    -0.466 OA
ENDBRANCH  30  31
ENDBRANCH   5  30
TORSDOF 9
