REMARK  Name = ZINC08737961
REMARK  3 active torsions:
REMARK  status: ('A' for Active; 'I' for Inactive)
REMARK    1  A    between atoms: C_10  and  N_11
REMARK    2  A    between atoms: C_26  and  C_32
REMARK    3  A    between atoms: C_32  and  C_34
REMARK                            x       y       z     vdW  Elec       q    Type
REMARK                         _______ _______ _______ _____ _____    ______ ____
ROOT
ATOM      1  N   UNL     1       2.982  -2.094  -1.638  0.00  0.00    -0.209 N 
ATOM      2  C   UNL     1       2.058  -1.306  -1.011  0.00  0.00    +0.232 C 
ATOM      3  O   UNL     1       1.063  -1.671  -0.422  0.00  0.00    -0.274 OA
ATOM      4  C   UNL     1       2.532   0.112  -1.203  0.00  0.00    +0.113 C 
ATOM      5  C   UNL     1       2.504   1.083  -0.017  0.00  0.00    +0.100 C 
ATOM      6  C   UNL     1       1.168   1.780   0.001  0.00  0.00    -0.021 A 
ATOM      7  C   UNL     1      -0.013   1.076   0.008  0.00  0.00    +0.006 A 
ATOM      8  C   UNL     1      -1.221   1.753   0.017  0.00  0.00    +0.000 A 
ATOM      9  C   UNL     1      -1.246   3.136   0.030  0.00  0.00    +0.001 A 
ATOM     10  C   UNL     1      -0.067   3.854   0.024  0.00  0.00    +0.008 A 
ATOM     11  C   UNL     1       1.154   3.179   0.009  0.00  0.00    -0.019 A 
ATOM     12  C   UNL     1       2.426   3.922   0.006  0.00  0.00    +0.022 C 
ATOM     13  C   UNL     1       3.594   3.302  -0.162  0.00  0.00    +0.054 C 
ATOM     14  C   UNL     1       4.744   1.043  -0.865  0.00  0.00    +0.141 C 
ATOM     15  C   UNL     1       4.070  -0.244  -1.081  0.00  0.00    +0.116 C 
ATOM     16  C   UNL     1       4.138  -1.413  -1.933  0.00  0.00    +0.232 C 
ATOM     17  O   UNL     1       5.008  -1.719  -2.719  0.00  0.00    -0.274 OA
ATOM     18  N   UNL     1       3.730   1.794  -0.001  0.00  0.00    -0.384 NA
ATOM     19  H   UNL     1       4.081   1.688   0.958  0.00  0.00    +0.127 HD
ENDROOT
BRANCH   1  29
ATOM     20  C   UNL     1       3.758  -6.484   0.732  0.00  0.00    +0.001 A 
ATOM     21  C   UNL     1       3.983  -5.152   1.071  0.00  0.00    +0.001 A 
ATOM     22  C   UNL     1       3.666  -4.146   0.209  0.00  0.00    +0.010 A 
ATOM     23  C   UNL     1       3.105  -4.454  -1.040  0.00  0.00    +0.004 A 
ATOM     24  C   UNL     1       2.876  -5.808  -1.386  0.00  0.00    -0.016 A 
ATOM     25  C   UNL     1       3.216  -6.819  -0.470  0.00  0.00    +0.008 A 
ATOM     26  C   UNL     1       2.314  -6.117  -2.636  0.00  0.00    +0.008 A 
ATOM     27  C   UNL     1       1.994  -5.118  -3.503  0.00  0.00    +0.002 A 
ATOM     28  C   UNL     1       2.210  -3.783  -3.172  0.00  0.00    +0.024 A 
ATOM     29  C   UNL     1       2.764  -3.439  -1.959  0.00  0.00    +0.052 A 
ENDBRANCH   1  29
BRANCH  14  30
ATOM     30  C   UNL     1       5.296   1.569  -2.165  0.00  0.00    +0.183 C 
ATOM     31  O   UNL     1       4.712   2.449  -2.760  0.00  0.00    -0.290 OA
BRANCH  30  32
ATOM     32  C   UNL     1       6.545   1.014  -2.711  0.00  0.00    +0.019 A 
ATOM     33  C   UNL     1       7.224   0.003  -2.024  0.00  0.00    +0.013 A 
ATOM     34  C   UNL     1       8.390  -0.516  -2.545  0.00  0.00    +0.020 A 
ATOM     35  C   UNL     1       8.896  -0.030  -3.740  0.00  0.00    +0.041 A 
ATOM     36  C   UNL     1       8.231   0.976  -4.423  0.00  0.00    +0.020 A 
ATOM     37  C   UNL     1       7.061   1.500  -3.918  0.00  0.00    +0.013 A 
ATOM     38 CL   UNL     1      10.368  -0.684  -4.385  0.00  0.00    -0.084 Cl
ENDBRANCH  30  32
ENDBRANCH  14  30
TORSDOF 3
