REMARK  Name = ZINC12445143
REMARK  8 active torsions:
REMARK  status: ('A' for Active; 'I' for Inactive)
REMARK    1  A    between atoms: C_1  and  C_2
REMARK    2  A    between atoms: C_4  and  O_29
REMARK    3  A    between atoms: C_5  and  C_28
REMARK    4  A    between atoms: C_6  and  O_27
REMARK    5  A    between atoms: C_7  and  C_8
REMARK    6  A    between atoms: N_9  and  N_10
REMARK    7  A    between atoms: C_11  and  C_13
REMARK    8  A    between atoms: C_15  and  C_21
REMARK                            x       y       z     vdW  Elec       q    Type
REMARK                         _______ _______ _______ _____ _____    ______ ____
ROOT
ATOM      1  N   UNL     1       1.022   2.840   2.258  0.00  0.00    -0.206 N 
ATOM      2  C   UNL     1       1.772   2.016   1.500  0.00  0.00    +0.245 C 
ATOM      3  O   UNL     1       2.784   1.526   1.956  0.00  0.00    -0.273 OA
ATOM      4  H   UNL     1       0.213   3.232   1.894  0.00  0.00    +0.177 HD
ENDROOT
BRANCH   2   5
ATOM      5  C   UNL     1       1.355   1.705   0.086  0.00  0.00    +0.171 C 
ATOM      6  C   UNL     1       1.986   2.715  -0.900  0.00  0.00    +0.057 C 
ATOM      7  C   UNL     1       3.268   1.972  -1.335  0.00  0.00    +0.113 C 
ATOM      8  N   UNL     1       2.978   0.546  -1.146  0.00  0.00    -0.314 N 
ATOM      9  C   UNL     1       1.911   0.366  -0.348  0.00  0.00    +0.226 C 
ATOM     10  O   UNL     1       1.458  -0.712  -0.026  0.00  0.00    -0.275 OA
ATOM     11  H   UNL     1       3.490  -0.175  -1.546  0.00  0.00    +0.149 HD
BRANCH   6  12
ATOM     12  C   UNL     1       2.321   4.009  -0.205  0.00  0.00    -0.042 A 
ATOM     13  C   UNL     1       1.559   5.138  -0.440  0.00  0.00    +0.004 A 
ATOM     14  C   UNL     1       1.864   6.324   0.202  0.00  0.00    +0.000 A 
ATOM     15  C   UNL     1       2.938   6.383   1.071  0.00  0.00    +0.000 A 
ATOM     16  C   UNL     1       3.703   5.256   1.302  0.00  0.00    +0.000 A 
ATOM     17  C   UNL     1       3.395   4.069   0.664  0.00  0.00    +0.004 A 
ENDBRANCH   6  12
ENDBRANCH   2   5
BRANCH   1  19
ATOM     18  C   UNL     1       0.687   3.923   4.303  0.00  0.00    +0.142 C 
ATOM     19  N   UNL     1       1.410   3.130   3.573  0.00  0.00    -0.188 NA
BRANCH  18  26
ATOM     20  C   UNL     1      -0.939   5.692   5.911  0.00  0.00    +0.044 C 
ATOM     21  C   UNL     1       0.319   5.081   6.474  0.00  0.00    -0.035 A 
ATOM     22  C   UNL     1       0.704   5.363   7.766  0.00  0.00    +0.050 A 
ATOM     23  C   UNL     1       1.862   4.801   8.289  0.00  0.00    +0.124 A 
ATOM     24  C   UNL     1       2.640   3.953   7.514  0.00  0.00    +0.033 A 
ATOM     25  C   UNL     1       2.261   3.658   6.217  0.00  0.00    +0.132 A 
ATOM     26  C   UNL     1       1.095   4.228   5.685  0.00  0.00    +0.039 A 
ATOM     27  C   UNL     1       3.896   3.349   8.088  0.00  0.00    +0.051 C 
BRANCH  25  28
ATOM     28  O   UNL     1       3.018   2.823   5.459  0.00  0.00    -0.506 OA
ATOM     29  H   UNL     1       3.707   3.271   4.949  0.00  0.00    +0.292 HD
ENDBRANCH  25  28
BRANCH  23  30
ATOM     30  O   UNL     1       2.235   5.084   9.565  0.00  0.00    -0.506 OA
ATOM     31  H   UNL     1       1.877   4.474  10.224  0.00  0.00    +0.292 HD
ENDBRANCH  23  30
ENDBRANCH  18  26
ENDBRANCH   1  19
TORSDOF 6
