REMARK  Name = ZINC43737075
REMARK  9 active torsions:
REMARK  status: ('A' for Active; 'I' for Inactive)
REMARK    1  A    between atoms: C_1  and  C_2
REMARK    2  A    between atoms: C_13  and  C_15
REMARK    3  A    between atoms: C_15  and  C_17
REMARK    4  A    between atoms: C_17  and  C_18
REMARK    5  A    between atoms: C_25  and  O_26
REMARK    6  A    between atoms: O_26  and  C_27
REMARK    7  A    between atoms: N_33  and  C_34
REMARK    8  A    between atoms: C_38  and  C_45
REMARK    9  A    between atoms: C_41  and  O_44
REMARK                            x       y       z     vdW  Elec       q    Type
REMARK                         _______ _______ _______ _____ _____    ______ ____
ROOT
ATOM      1  C   UNL     1      -0.279   1.469   0.140  0.00  0.00    +0.012 C 
ATOM      2  C   UNL     1      -0.404  -0.052   0.248  0.00  0.00    -0.019 C 
ATOM      3  C   UNL     1       0.259  -0.763  -0.935  0.00  0.00    +0.008 C 
ATOM      4  C   UNL     1       1.777  -0.649  -0.845  0.00  0.00    +0.005 C 
ATOM      5  C   UNL     1       2.253  -1.358   0.429  0.00  0.00    +0.003 C 
ATOM      6  C   UNL     1       1.657  -0.644   1.639  0.00  0.00    +0.000 C 
ATOM      7  C   UNL     1       0.159  -0.581   1.577  0.00  0.00    -0.001 C 
ATOM      8  C   UNL     1      -0.485  -1.974   1.712  0.00  0.00    +0.005 C 
ATOM      9  C   UNL     1      -1.927  -1.754   1.199  0.00  0.00    +0.012 C 
ATOM     10  C   UNL     1      -1.885  -0.514   0.287  0.00  0.00    +0.061 C 
ATOM     11  C   UNL     1       2.096  -1.384   2.908  0.00  0.00    +0.031 C 
ATOM     12  C   UNL     1       3.593  -1.474   2.938  0.00  0.00    -0.027 C 
ATOM     13  C   UNL     1       4.326  -1.458   1.864  0.00  0.00    -0.065 C 
ATOM     14  C   UNL     1       3.772  -1.327   0.479  0.00  0.00    -0.008 C 
ATOM     15  C   UNL     1       4.350  -2.440  -0.400  0.00  0.00    +0.014 C 
ATOM     16  C   UNL     1       5.878  -2.400  -0.328  0.00  0.00    +0.032 C 
ATOM     17  C   UNL     1       6.335  -2.675   1.105  0.00  0.00    +0.119 C 
ATOM     18  C   UNL     1       5.834  -1.568   2.018  0.00  0.00    +0.062 C 
ATOM     19  C   UNL     1       4.241   0.009  -0.101  0.00  0.00    +0.016 C 
ENDROOT
BRANCH  10  20
ATOM     20  C   UNL     1      -2.352  -0.874  -1.100  0.00  0.00    +0.136 C 
ATOM     21  O   UNL     1      -2.307  -2.022  -1.472  0.00  0.00    -0.297 OA
BRANCH  20  22
ATOM     22  C   UNL     1      -2.874   0.198  -2.022  0.00  0.00    +0.064 C 
BRANCH  22  23
ATOM     23  C   UNL     1      -3.376  -0.444  -3.317  0.00  0.00    -0.027 C 
ATOM     24  C   UNL     1      -4.379  -1.517  -2.984  0.00  0.00    -0.012 A 
ATOM     25  C   UNL     1      -4.394  -2.726  -3.647  0.00  0.00    -0.040 A 
ATOM     26  C   UNL     1      -5.335  -3.688  -3.315  0.00  0.00    +0.053 A 
ATOM     27  C   UNL     1      -6.265  -3.446  -2.317  0.00  0.00    +0.170 A 
ATOM     28  C   UNL     1      -6.252  -2.229  -1.644  0.00  0.00    +0.208 A 
ATOM     29  C   UNL     1      -5.308  -1.268  -1.980  0.00  0.00    +0.167 A 
ATOM     30  O   UNL     1      -7.254  -2.232  -0.716  0.00  0.00    -0.449 OA
ATOM     31  C   UNL     1      -8.136  -3.301  -1.107  0.00  0.00    +0.467 C 
ATOM     32  O   UNL     1      -7.274  -4.214  -1.812  0.00  0.00    -0.452 OA
ATOM     33  C   UNL     1      -3.399  -3.037  -4.736  0.00  0.00    +0.017 C 
ATOM     34  C   UNL     1      -2.740  -1.745  -5.219  0.00  0.00    -0.074 C 
ATOM     35  N   UNL     1      -2.238  -1.010  -4.047  0.00  0.00    +0.383 N 
ATOM     36  C   UNL     1      -1.350   0.073  -4.490  0.00  0.00    -0.095 C 
ATOM     37  H   UNL     1      -1.730  -1.640  -3.445  0.00  0.00    -0.081 HD
BRANCH  29  38
ATOM     38  O   UNL     1      -5.293  -0.076  -1.323  0.00  0.00    -0.491 OA
ATOM     39  C   UNL     1      -6.087   0.977  -1.873  0.00  0.00    +0.277 C 
ENDBRANCH  29  38
ENDBRANCH  22  23
ENDBRANCH  20  22
ENDBRANCH  10  20
BRANCH  17  40
ATOM     40  O   UNL     1       5.804  -3.928   1.542  0.00  0.00    -0.391 OA
ATOM     41  H   UNL     1       6.054  -4.167   2.445  0.00  0.00    +0.210 HD
ENDBRANCH  17  40
TORSDOF 5
