REMARK  Name = ZINC23658062
REMARK  11 active torsions:
REMARK  status: ('A' for Active; 'I' for Inactive)
REMARK    1  A    between atoms: C_1  and  C_2
REMARK    2  A    between atoms: C_4  and  C_31
REMARK    3  A    between atoms: C_5  and  N_9
REMARK    4  A    between atoms: C_6  and  C_8
REMARK    5  A    between atoms: C_10  and  C_12
REMARK    6  A    between atoms: C_12  and  N_13
REMARK    7  A    between atoms: N_13  and  C_14
REMARK    8  A    between atoms: N_13  and  S_20
REMARK    9  A    between atoms: C_14  and  C_15
REMARK   10  A    between atoms: S_20  and  C_23
REMARK   11  A    between atoms: C_24  and  C_25
REMARK                            x       y       z     vdW  Elec       q    Type
REMARK                         _______ _______ _______ _____ _____    ______ ____
ROOT
ATOM      1  N   UNL     1      -1.791   2.641   2.446  0.00  0.00    -0.161 NA
ENDROOT
BRANCH   1   2
ATOM      2  S   UNL     1      -0.465   3.146   1.593  0.00  0.00    +0.055 S 
ATOM      3  O   UNL     1       0.339   1.995   1.372  0.00  0.00    -0.153 OA
ATOM      4  O   UNL     1       0.028   4.303   2.256  0.00  0.00    -0.153 OA
BRANCH   2   5
ATOM      5  C   UNL     1      -1.033   3.675   0.011  0.00  0.00    +0.153 C 
ATOM      6  C   UNL     1      -0.922   4.949  -0.341  0.00  0.00    +0.028 C 
BRANCH   6   7
ATOM      7  C   UNL     1      -1.398   5.393  -1.668  0.00  0.00    -0.024 A 
ATOM      8  C   UNL     1      -1.961   4.473  -2.554  0.00  0.00    +0.008 A 
ATOM      9  C   UNL     1      -2.410   4.895  -3.788  0.00  0.00    +0.001 A 
ATOM     10  C   UNL     1      -2.291   6.224  -4.154  0.00  0.00    +0.000 A 
ATOM     11  C   UNL     1      -1.730   7.140  -3.282  0.00  0.00    +0.001 A 
ATOM     12  C   UNL     1      -1.283   6.732  -2.042  0.00  0.00    +0.008 A 
ENDBRANCH   6   7
ENDBRANCH   2   5
ENDBRANCH   1   2
BRANCH   1  13
ATOM     13  C   UNL     1      -2.219   1.242   2.373  0.00  0.00    +0.205 C 
BRANCH  13  15
ATOM     14  N   UNL     1      -1.891  -0.840   3.668  0.00  0.00    -0.284 N 
ATOM     15  C   UNL     1      -1.631   0.475   3.530  0.00  0.00    +0.233 C 
ATOM     16  O   UNL     1      -0.923   1.042   4.335  0.00  0.00    -0.274 OA
ATOM     17  H   UNL     1      -2.595  -1.337   2.985  0.00  0.00    +0.155 HD
BRANCH  14  22
ATOM     18  C   UNL     1       0.648  -3.813   7.780  0.00  0.00    +0.044 C 
ATOM     19  C   UNL     1      -0.027  -3.023   6.688  0.00  0.00    -0.050 A 
ATOM     20  C   UNL     1       0.731  -2.254   5.824  0.00  0.00    +0.008 A 
ATOM     21  C   UNL     1       0.116  -1.529   4.822  0.00  0.00    -0.029 A 
ATOM     22  C   UNL     1      -1.264  -1.574   4.682  0.00  0.00    +0.039 A 
ATOM     23  C   UNL     1      -2.023  -2.344   5.554  0.00  0.00    -0.029 A 
ATOM     24  C   UNL     1      -1.402  -3.070   6.551  0.00  0.00    +0.008 A 
ATOM     25  C   UNL     1      -3.522  -2.391   5.409  0.00  0.00    +0.045 C 
ATOM     26  C   UNL     1       0.943  -0.690   3.882  0.00  0.00    +0.045 C 
ENDBRANCH  14  22
ENDBRANCH  13  15
ENDBRANCH   1  13
BRANCH   1  27
ATOM     27  C   UNL     1      -2.536   3.592   3.274  0.00  0.00    +0.184 C 
BRANCH  27  28
ATOM     28  C   UNL     1      -3.699   4.140   2.486  0.00  0.00    +0.120 A 
ATOM     29  C   UNL     1      -4.936   3.614   2.442  0.00  0.00    +0.046 A 
ATOM     30  C   UNL     1      -5.702   4.441   1.589  0.00  0.00    +0.041 A 
ATOM     31  C   UNL     1      -4.887   5.424   1.164  0.00  0.00    +0.195 A 
ATOM     32  O   UNL     1      -3.677   5.239   1.715  0.00  0.00    -0.466 OA
ENDBRANCH  27  28
ENDBRANCH   1  27
TORSDOF 8
