REMARK  Name = ZINC40052319
REMARK  7 active torsions:
REMARK  status: ('A' for Active; 'I' for Inactive)
REMARK    1  A    between atoms: C_7  and  C_22
REMARK    2  A    between atoms: C_12  and  C_13
REMARK    3  A    between atoms: C_16  and  O_19
REMARK    4  A    between atoms: C_22  and  O_24
REMARK    5  A    between atoms: O_24  and  C_25
REMARK    6  A    between atoms: C_25  and  C_26
REMARK    7  A    between atoms: C_26  and  C_28
REMARK                            x       y       z     vdW  Elec       q    Type
REMARK                         _______ _______ _______ _____ _____    ______ ____
ROOT
ATOM      1  C   UNL     1       0.007   1.391   0.187  0.00  0.00    +0.001 A 
ATOM      2  C   UNL     1       1.195   2.114   0.110  0.00  0.00    +0.002 A 
ATOM      3  C   UNL     1       2.400   1.484   0.059  0.00  0.00    +0.028 A 
ATOM      4  C   UNL     1       2.453   0.077   0.083  0.00  0.00    +0.072 A 
ATOM      5  C   UNL     1       1.240  -0.653   0.161  0.00  0.00    +0.015 A 
ATOM      6  C   UNL     1       0.020   0.027   0.212  0.00  0.00    +0.011 A 
ATOM      7  C   UNL     1       1.306  -2.114   0.186  0.00  0.00    +0.073 A 
ATOM      8  C   UNL     1       2.563  -2.700   0.131  0.00  0.00    -0.007 A 
ATOM      9  C   UNL     1       3.710  -1.893   0.054  0.00  0.00    +0.072 A 
ATOM     10  N   UNL     1       3.616  -0.567   0.033  0.00  0.00    -0.247 NA
ATOM     11  C   UNL     1       4.921  -2.735   0.007  0.00  0.00    -0.021 C 
ATOM     12  C   UNL     1       6.188  -2.289  -0.068  0.00  0.00    +0.013 C 
ATOM     13  C   UNL     1       4.495  -4.181   0.058  0.00  0.00    +0.042 C 
ATOM     14  C   UNL     1       2.963  -4.155   0.138  0.00  0.00    +0.043 C 
ENDROOT
BRANCH  12  15
ATOM     15  C   UNL     1       7.309  -3.238   0.028  0.00  0.00    -0.024 A 
ATOM     16  C   UNL     1       8.622  -2.765   0.130  0.00  0.00    +0.011 A 
ATOM     17  C   UNL     1       9.668  -3.657   0.220  0.00  0.00    +0.046 A 
ATOM     18  C   UNL     1       9.421  -5.024   0.210  0.00  0.00    +0.117 A 
ATOM     19  C   UNL     1       8.119  -5.499   0.109  0.00  0.00    +0.046 A 
ATOM     20  C   UNL     1       7.066  -4.615   0.024  0.00  0.00    +0.011 A 
BRANCH  18  21
ATOM     21  O   UNL     1      10.455  -5.900   0.298  0.00  0.00    -0.507 OA
ATOM     22  H   UNL     1      10.685  -6.147   1.204  0.00  0.00    +0.292 HD
ENDBRANCH  18  21
ENDBRANCH  12  15
BRANCH   7  23
ATOM     23  C   UNL     1       0.081  -2.936   0.267  0.00  0.00    +0.341 C 
ATOM     24  O   UNL     1      -0.479  -3.294  -0.750  0.00  0.00    -0.245 OA
BRANCH  23  25
ATOM     25  O   UNL     1      -0.416  -3.288   1.468  0.00  0.00    -0.453 OA
BRANCH  25  26
ATOM     26  C   UNL     1      -1.604  -4.083   1.472  0.00  0.00    +0.311 C 
BRANCH  26  27
ATOM     27  C   UNL     1      -2.007  -4.376   2.894  0.00  0.00    +0.199 C 
ATOM     28  O   UNL     1      -1.343  -3.946   3.815  0.00  0.00    -0.289 OA
BRANCH  27  29
ATOM     29  C   UNL     1      -3.158  -5.150   3.155  0.00  0.00    +0.026 C 
ATOM     30  C   UNL     1      -3.665  -5.503   4.393  0.00  0.00    +0.006 A 
ATOM     31  C   UNL     1      -3.245  -5.236   5.717  0.00  0.00    +0.010 A 
ATOM     32  C   UNL     1      -3.948  -5.719   6.766  0.00  0.00    +0.001 A 
ATOM     33  C   UNL     1      -5.107  -6.494   6.603  0.00  0.00    +0.002 A 
ATOM     34  C   UNL     1      -5.593  -6.806   5.382  0.00  0.00    +0.026 A 
ATOM     35  C   UNL     1      -4.886  -6.319   4.186  0.00  0.00    +0.043 A 
ATOM     36  N   UNL     1      -5.127  -6.467   2.914  0.00  0.00    -0.380 N 
ATOM     37  C   UNL     1      -4.098  -5.762   2.141  0.00  0.00    +0.152 C 
ATOM     38  H   UNL     1      -5.871  -6.962   2.537  0.00  0.00    +0.160 HD
ENDBRANCH  27  29
ENDBRANCH  26  27
ENDBRANCH  25  26
ENDBRANCH  23  25
ENDBRANCH   7  23
TORSDOF 7
