REMARK  Name = ZINC09404277
REMARK  4 active torsions:
REMARK  status: ('A' for Active; 'I' for Inactive)
REMARK    1  A    between atoms: C_4  and  C_7
REMARK    2  A    between atoms: N_9  and  S_20
REMARK    3  A    between atoms: C_10  and  C_13
REMARK    4  A    between atoms: S_20  and  C_23
REMARK                            x       y       z     vdW  Elec       q    Type
REMARK                         _______ _______ _______ _____ _____    ______ ____
ROOT
ATOM      1  C   UNL     1      -2.501   1.010   0.019  0.00  0.00    +0.070 C 
ATOM      2  N   UNL     1      -2.606  -0.274   0.006  0.00  0.00    -0.167 NA
ATOM      3  N   UNL     1      -3.920  -0.737   0.015  0.00  0.00    -0.115 N 
ATOM      4  C   UNL     1      -4.832   0.418   0.026  0.00  0.00    +0.154 C 
ATOM      5  C   UNL     1      -3.880   1.630   0.029  0.00  0.00    +0.088 C 
ENDROOT
BRANCH   4   6
ATOM      6  C   UNL     1      -5.695   0.424  -1.210  0.00  0.00    -0.023 A 
ATOM      7  C   UNL     1      -5.184  -0.030  -2.411  0.00  0.00    +0.006 A 
ATOM      8  C   UNL     1      -5.977  -0.029  -3.544  0.00  0.00    +0.015 A 
ATOM      9  C   UNL     1      -7.278   0.436  -3.477  0.00  0.00    +0.018 A 
ATOM     10  C   UNL     1      -7.787   0.895  -2.275  0.00  0.00    +0.015 A 
ATOM     11  C   UNL     1      -6.995   0.889  -1.142  0.00  0.00    +0.006 A 
ATOM     12 BR   UNL     1      -8.361   0.444  -5.027  0.00  0.00    -0.050 Br
ENDBRANCH   4   6
BRANCH   1  16
ATOM     13  C   UNL     1       1.155   3.167   0.009  0.00  0.00    +0.000 A 
ATOM     14  C   UNL     1       1.171   1.783   0.001  0.00  0.00    +0.001 A 
ATOM     15  C   UNL     1      -0.013   1.076   0.008  0.00  0.00    +0.010 A 
ATOM     16  C   UNL     1      -1.231   1.759   0.017  0.00  0.00    -0.002 A 
ATOM     17  C   UNL     1      -1.240   3.156   0.031  0.00  0.00    +0.010 A 
ATOM     18  C   UNL     1      -0.048   3.851   0.024  0.00  0.00    +0.001 A 
ENDBRANCH   1  16
BRANCH   3  19
ATOM     19  S   UNL     1      -4.381  -2.328   0.009  0.00  0.00    +0.089 S 
ATOM     20  O   UNL     1      -3.345  -3.053   0.657  0.00  0.00    -0.149 OA
ATOM     21  O   UNL     1      -5.729  -2.362   0.456  0.00  0.00    -0.149 OA
BRANCH  19  22
ATOM     22  C   UNL     1      -4.393  -2.860  -1.671  0.00  0.00    +0.110 A 
ATOM     23  C   UNL     1      -5.546  -2.742  -2.425  0.00  0.00    +0.029 A 
ATOM     24  C   UNL     1      -5.554  -3.155  -3.744  0.00  0.00    +0.002 A 
ATOM     25  C   UNL     1      -4.413  -3.696  -4.306  0.00  0.00    +0.000 A 
ATOM     26  C   UNL     1      -3.262  -3.819  -3.550  0.00  0.00    +0.002 A 
ATOM     27  C   UNL     1      -3.252  -3.401  -2.233  0.00  0.00    +0.029 A 
ENDBRANCH  19  22
ENDBRANCH   3  19
TORSDOF 4
