REMARK  Name = ZINC36801293
REMARK  8 active torsions:
REMARK  status: ('A' for Active; 'I' for Inactive)
REMARK    1  A    between atoms: C_1  and  C_2
REMARK    2  A    between atoms: C_5  and  N_8
REMARK    3  A    between atoms: C_21  and  S_22
REMARK    4  A    between atoms: S_22  and  C_23
REMARK    5  A    between atoms: C_23  and  C_25
REMARK    6  A    between atoms: C_23  and  C_26
REMARK    7  A    between atoms: N_28  and  C_29
REMARK    8  A    between atoms: C_35  and  C_37
REMARK                            x       y       z     vdW  Elec       q    Type
REMARK                         _______ _______ _______ _____ _____    ______ ____
ROOT
ATOM      1  N   UNL     1       0.059  -4.170  -0.021  0.00  0.00    -0.245 N 
ATOM      2  C   UNL     1      -0.034  -4.830  -1.194  0.00  0.00    +0.268 A 
ATOM      3  O   UNL     1      -0.135  -4.218  -2.241  0.00  0.00    -0.267 OA
ATOM      4  C   UNL     1      -0.012  -6.304  -1.188  0.00  0.00    +0.064 A 
ATOM      5  C   UNL     1      -0.105  -7.034  -2.371  0.00  0.00    +0.015 A 
ATOM      6  C   UNL     1      -0.081  -8.412  -2.326  0.00  0.00    +0.001 A 
ATOM      7  C   UNL     1       0.035  -9.071  -1.112  0.00  0.00    +0.002 A 
ATOM      8  C   UNL     1       0.128  -8.359   0.068  0.00  0.00    +0.027 A 
ATOM      9  C   UNL     1       0.105  -6.973   0.041  0.00  0.00    +0.064 A 
ATOM     10  N   UNL     1       0.197  -6.229   1.211  0.00  0.00    -0.255 N 
ATOM     11  C   UNL     1       0.180  -4.859   1.176  0.00  0.00    +0.245 A 
ATOM     12  N   UNL     1       0.289  -4.446   2.417  0.00  0.00    -0.109 NA
ATOM     13  N   UNL     1       0.377  -5.452   3.212  0.00  0.00    -0.120 NA
ATOM     14  C   UNL     1       0.319  -6.571   2.530  0.00  0.00    +0.198 A 
ENDROOT
BRANCH   1  19
ATOM     15  C   UNL     1      -0.017   1.503   0.011  0.00  0.00    +0.044 C 
ATOM     16  C   UNL     1       0.003  -0.004   0.003  0.00  0.00    -0.050 A 
ATOM     17  C   UNL     1      -1.181  -0.711   0.106  0.00  0.00    +0.005 A 
ATOM     18  C   UNL     1      -1.166  -2.092   0.098  0.00  0.00    +0.026 A 
ATOM     19  C   UNL     1       0.041  -2.771  -0.013  0.00  0.00    +0.053 A 
ATOM     20  C   UNL     1       1.228  -2.058  -0.116  0.00  0.00    +0.026 A 
ATOM     21  C   UNL     1       1.206  -0.677  -0.113  0.00  0.00    +0.005 A 
ENDBRANCH   1  19
BRANCH  14  22
ATOM     22  S   UNL     1       0.400  -8.204   3.187  0.00  0.00    -0.073 S 
BRANCH  22  23
ATOM     23  C   UNL     1       0.555  -7.950   4.977  0.00  0.00    +0.137 C 
ATOM     24  C   UNL     1      -0.720  -7.294   5.510  0.00  0.00    +0.029 C 
BRANCH  23  25
ATOM     25  C   UNL     1       0.758  -9.280   5.657  0.00  0.00    +0.226 C 
ATOM     26  O   UNL     1       0.442 -10.305   5.091  0.00  0.00    -0.275 OA
ATOM     27  N   UNL     1       1.291  -9.329   6.894  0.00  0.00    -0.311 N 
ATOM     28  H   UNL     1       1.543  -8.509   7.346  0.00  0.00    +0.149 HD
BRANCH  27  29
ATOM     29  C   UNL     1       1.489 -10.621   7.555  0.00  0.00    +0.076 C 
ATOM     30  C   UNL     1       0.194 -11.039   8.255  0.00  0.00    +0.022 C 
ATOM     31  C   UNL     1      -0.185  -9.986   9.298  0.00  0.00    +0.002 C 
ATOM     32  C   UNL     1       0.937  -9.863  10.331  0.00  0.00    +0.000 C 
ATOM     33  C   UNL     1       2.231  -9.445   9.631  0.00  0.00    +0.005 C 
ATOM     34  C   UNL     1       2.611 -10.499   8.588  0.00  0.00    +0.006 C 
ATOM     35  C   UNL     1       3.905 -10.081   7.888  0.00  0.00    +0.009 C 
ENDBRANCH  27  29
ENDBRANCH  23  25
ENDBRANCH  22  23
ENDBRANCH  14  22
TORSDOF 5
