REMARK  Name = ZINC04729568
REMARK  5 active torsions:
REMARK  status: ('A' for Active; 'I' for Inactive)
REMARK    1  A    between atoms: C_1  and  C_2
REMARK    2  A    between atoms: C_5  and  C_8
REMARK    3  A    between atoms: C_10  and  C_24
REMARK    4  A    between atoms: C_13  and  C_15
REMARK    5  A    between atoms: C_29  and  O_30
REMARK                            x       y       z     vdW  Elec       q    Type
REMARK                         _______ _______ _______ _____ _____    ______ ____
ROOT
ATOM      1  C   UNL     1      -2.724   2.168   0.033  0.00  0.00    +0.081 C 
ATOM      2  C   UNL     1      -0.753   1.593  -1.233  0.00  0.00    -0.028 C 
ATOM      3  C   UNL     1      -0.013   1.086   0.008  0.00  0.00    +0.044 C 
ATOM      4  C   UNL     1      -0.716   1.571   1.245  0.00  0.00    +0.040 C 
ATOM      5  N   UNL     1      -1.909   2.038   1.234  0.00  0.00    -0.299 NA
ATOM      6  N   UNL     1      -2.194   1.328  -1.052  0.00  0.00    +0.401 N 
ATOM      7  H   UNL     1      -2.692   1.544  -1.924  0.00  0.00    -0.081 HD
ATOM      8  H   UNL     1      -2.331   0.339  -0.815  0.00  0.00    -0.081 HD
ENDROOT
BRANCH   4   9
ATOM      9  C   UNL     1       0.000   1.505   2.532  0.00  0.00    -0.001 A 
ATOM     10  C   UNL     1       1.302   1.001   2.584  0.00  0.00    +0.013 A 
ATOM     11  C   UNL     1       1.970   0.940   3.788  0.00  0.00    +0.050 A 
ATOM     12  C   UNL     1       1.353   1.378   4.952  0.00  0.00    +0.166 A 
ATOM     13  C   UNL     1       0.053   1.882   4.907  0.00  0.00    +0.167 A 
ATOM     14  C   UNL     1      -0.620   1.951   3.702  0.00  0.00    +0.059 A 
ATOM     15  O   UNL     1      -0.319   2.240   6.171  0.00  0.00    -0.453 OA
ATOM     16  C   UNL     1       0.608   1.573   7.048  0.00  0.00    +0.466 C 
ATOM     17  O   UNL     1       1.792   1.422   6.243  0.00  0.00    -0.453 OA
ENDBRANCH   4   9
BRANCH   1  22
ATOM     18  C   UNL     1      -2.745   7.692  -1.665  0.00  0.00    +0.044 C 
ATOM     19  C   UNL     1      -2.740   6.251  -1.222  0.00  0.00    -0.050 A 
ATOM     20  C   UNL     1      -2.582   5.940   0.116  0.00  0.00    +0.003 A 
ATOM     21  C   UNL     1      -2.577   4.618   0.522  0.00  0.00    +0.004 A 
ATOM     22  C   UNL     1      -2.730   3.608  -0.410  0.00  0.00    -0.040 A 
ATOM     23  C   UNL     1      -2.882   3.920  -1.748  0.00  0.00    +0.004 A 
ATOM     24  C   UNL     1      -2.892   5.241  -2.153  0.00  0.00    +0.003 A 
ENDBRANCH   1  22
BRANCH   2  25
ATOM     25  C   UNL     1      -0.256   0.865  -2.455  0.00  0.00    -0.019 A 
ATOM     26  C   UNL     1      -0.983  -0.189  -2.975  0.00  0.00    +0.005 A 
ATOM     27  C   UNL     1      -0.530  -0.855  -4.099  0.00  0.00    +0.000 A 
ATOM     28  C   UNL     1       0.657  -0.474  -4.699  0.00  0.00    +0.004 A 
ATOM     29  C   UNL     1       1.389   0.576  -4.180  0.00  0.00    +0.045 A 
ATOM     30  C   UNL     1       0.934   1.248  -3.055  0.00  0.00    +0.118 A 
BRANCH  30  31
ATOM     31  O   UNL     1       1.653   2.281  -2.543  0.00  0.00    -0.507 OA
ATOM     32  H   UNL     1       2.303   2.016  -1.878  0.00  0.00    +0.292 HD
ENDBRANCH  30  31
ENDBRANCH   2  25
TORSDOF 4
