REMARK  Name = ZINC26303392
REMARK  5 active torsions:
REMARK  status: ('A' for Active; 'I' for Inactive)
REMARK    1  A    between atoms: C_1  and  C_2
REMARK    2  A    between atoms: C_2  and  C_4
REMARK    3  A    between atoms: C_2  and  N_12
REMARK    4  A    between atoms: N_15  and  C_16
REMARK    5  A    between atoms: C_16  and  C_17
REMARK                            x       y       z     vdW  Elec       q    Type
REMARK                         _______ _______ _______ _____ _____    ______ ____
ROOT
ATOM      1  N   UNL     1       5.842  -1.573  -2.859  0.00  0.00    -0.293 N 
ATOM      2  C   UNL     1       5.647  -1.264  -1.562  0.00  0.00    +0.300 C 
ATOM      3  O   UNL     1       6.377  -1.731  -0.709  0.00  0.00    -0.253 OA
ATOM      4  N   UNL     1       4.643  -0.436  -1.210  0.00  0.00    -0.295 N 
ATOM      5  H   UNL     1       5.182  -1.150  -3.631  0.00  0.00    +0.151 HD
ATOM      6  H   UNL     1       3.982  -0.014  -1.981  0.00  0.00    +0.151 HD
ENDROOT
BRANCH   1   8
ATOM      7  C   UNL     1       6.449  -3.921  -3.170  0.00  0.00    +0.033 C 
ATOM      8  C   UNL     1       6.934  -2.472  -3.242  0.00  0.00    +0.103 C 
BRANCH   8   9
ATOM      9  C   UNL     1       7.373  -2.158  -4.649  0.00  0.00    -0.009 A 
ATOM     10  C   UNL     1       6.480  -1.597  -5.543  0.00  0.00    +0.008 A 
ATOM     11  C   UNL     1       6.883  -1.304  -6.832  0.00  0.00    +0.020 A 
ATOM     12  C   UNL     1       8.179  -1.582  -7.231  0.00  0.00    +0.042 A 
ATOM     13  C   UNL     1       9.071  -2.148  -6.339  0.00  0.00    +0.040 A 
ATOM     14  C   UNL     1       8.668  -2.436  -5.047  0.00  0.00    +0.047 A 
ATOM     15 CL   UNL     1       9.787  -3.147  -3.927  0.00  0.00    -0.083 Cl
ATOM     16 CL   UNL     1       8.684  -1.220  -8.852  0.00  0.00    -0.083 Cl
ENDBRANCH   8   9
ENDBRANCH   1   8
BRANCH   4  17
ATOM     17  C   UNL     1       4.431  -0.100   0.200  0.00  0.00    +0.141 C 
BRANCH  17  18
ATOM     18  C   UNL     1       3.255   0.834   0.323  0.00  0.00    -0.026 A 
ATOM     19  C   UNL     1       1.969   0.337   0.494  0.00  0.00    +0.023 A 
ATOM     20  C   UNL     1       0.913   1.219   0.603  0.00  0.00    +0.084 A 
ATOM     21  N   UNL     1       1.111   2.523   0.547  0.00  0.00    -0.350 N 
ATOM     22  C   UNL     1       2.321   3.035   0.386  0.00  0.00    +0.099 A 
ATOM     23  C   UNL     1       3.431   2.204   0.268  0.00  0.00    +0.047 A 
ATOM     24  N   UNL     1       2.484   4.414   0.332  0.00  0.00    -0.317 N 
ATOM     25  C   UNL     1       3.025   4.835  -0.986  0.00  0.00    +0.106 C 
ATOM     26  C   UNL     1       2.647   6.336  -1.060  0.00  0.00    +0.020 C 
ATOM     27  C   UNL     1       1.251   6.375  -0.397  0.00  0.00    +0.020 C 
ATOM     28  C   UNL     1       1.185   5.107   0.475  0.00  0.00    +0.106 C 
ATOM     29  H   UNL     1       0.259   3.213   0.636  0.00  0.00    +0.166 HD
ENDBRANCH  17  18
ENDBRANCH   4  17
TORSDOF 4
