REMARK  Name = ZINC36960109
REMARK  5 active torsions:
REMARK  status: ('A' for Active; 'I' for Inactive)
REMARK    1  A    between atoms: C_1  and  C_2
REMARK    2  A    between atoms: C_5  and  C_7
REMARK    3  A    between atoms: C_7  and  C_9
REMARK    4  A    between atoms: C_7  and  N_10
REMARK    5  A    between atoms: N_10  and  C_11
REMARK                            x       y       z     vdW  Elec       q    Type
REMARK                         _______ _______ _______ _____ _____    ______ ____
ROOT
ATOM      1  C   UNL     1       3.678  -4.160   0.948  0.00  0.00    +0.050 C 
ATOM      2  C   UNL     1       4.898  -3.877   1.794  0.00  0.00    -0.030 A 
ATOM      3  C   UNL     1       5.938  -2.984   1.668  0.00  0.00    +0.024 A 
ATOM      4  C   UNL     1       6.940  -2.951   2.624  0.00  0.00    +0.041 A 
ATOM      5  C   UNL     1       6.891  -3.818   3.702  0.00  0.00    +0.022 A 
ATOM      6  C   UNL     1       5.849  -4.713   3.829  0.00  0.00    +0.025 A 
ATOM      7  C   UNL     1       4.838  -4.751   2.872  0.00  0.00    +0.035 A 
ATOM      8  N   UNL     1       3.698  -5.553   2.779  0.00  0.00    -0.286 N 
ATOM      9  C   UNL     1       2.966  -5.274   1.684  0.00  0.00    +0.208 C 
ATOM     10  O   UNL     1       1.931  -5.812   1.350  0.00  0.00    -0.277 OA
ATOM     11 CL   UNL     1       8.254  -1.828   2.469  0.00  0.00    -0.084 Cl
ATOM     12  H   UNL     1       3.462  -6.233   3.429  0.00  0.00    +0.155 HD
ENDROOT
BRANCH   1  13
ATOM     13  N   UNL     1       2.822  -2.969   0.864  0.00  0.00    +0.396 N 
ATOM     14  H   UNL     1       3.356  -2.196   0.495  0.00  0.00    -0.083 HD
ATOM     15  H   UNL     1       2.482  -2.733   1.784  0.00  0.00    -0.083 HD
BRANCH  13  16
ATOM     16  C   UNL     1       1.684  -3.245  -0.023  0.00  0.00    -0.006 C 
ATOM     17  C   UNL     1       2.192  -3.480  -1.447  0.00  0.00    -0.006 C 
BRANCH  16  22
ATOM     18  C   UNL     1      -0.018   1.503   0.010  0.00  0.00    +0.086 C 
ATOM     19  C   UNL     1       0.002  -0.004   0.002  0.00  0.00    +0.102 A 
ATOM     20  C   UNL     1      -1.078  -0.805   0.003  0.00  0.00    +0.044 A 
ATOM     21  C   UNL     1      -0.601  -2.136  -0.007  0.00  0.00    +0.043 A 
ATOM     22  C   UNL     1       0.742  -2.069  -0.013  0.00  0.00    +0.091 A 
ATOM     23  O   UNL     1       1.102  -0.775  -0.013  0.00  0.00    -0.467 OA
ENDBRANCH  16  22
ENDBRANCH  13  16
ENDBRANCH   1  13
TORSDOF 3
