REMARK  Name = ZINC11068684
REMARK  7 active torsions:
REMARK  status: ('A' for Active; 'I' for Inactive)
REMARK    1  A    between atoms: C_1  and  C_2
REMARK    2  A    between atoms: C_15  and  C_17
REMARK    3  A    between atoms: C_17  and  N_52
REMARK    4  A    between atoms: C_18  and  N_52
REMARK    5  A    between atoms: C_19  and  C_20
REMARK    6  A    between atoms: C_19  and  N_52
REMARK    7  A    between atoms: N_22  and  C_23
REMARK                            x       y       z     vdW  Elec       q    Type
REMARK                         _______ _______ _______ _____ _____    ______ ____
ROOT
ATOM      1  C   UNL     1       0.420   3.531  -2.287  0.00  0.00    +0.019 C 
ENDROOT
BRANCH   1  15
ATOM      2  C   UNL     1       0.513   4.071   2.311  0.00  0.00    +0.029 C 
ATOM      3  C   UNL     1       1.650   4.145   1.289  0.00  0.00    +0.087 C 
ATOM      4  C   UNL     1       2.888   3.447   1.854  0.00  0.00    +0.118 C 
ATOM      5  C   UNL     1       3.868   3.156   0.749  0.00  0.00    +0.219 C 
ATOM      6  O   UNL     1       4.865   3.837   0.632  0.00  0.00    -0.275 OA
ATOM      7  N   UNL     1       3.644   2.142  -0.115  0.00  0.00    -0.284 N 
ATOM      8  C   UNL     1       2.453   1.409  -0.055  0.00  0.00    +0.055 A 
ATOM      9  C   UNL     1       2.470   0.024  -0.058  0.00  0.00    +0.025 A 
ATOM     10  C   UNL     1       1.280  -0.679  -0.029  0.00  0.00    +0.002 A 
ATOM     11  C   UNL     1       0.072  -0.004  -0.003  0.00  0.00    +0.002 A 
ATOM     12  C   UNL     1       0.047   1.379   0.005  0.00  0.00    +0.025 A 
ATOM     13  C   UNL     1       1.236   2.090  -0.010  0.00  0.00    +0.058 A 
ATOM     14  N   UNL     1       1.231   3.490   0.049  0.00  0.00    -0.268 N 
ATOM     15  C   UNL     1       0.848   4.220  -1.017  0.00  0.00    +0.204 C 
ATOM     16  O   UNL     1       0.848   5.431  -0.954  0.00  0.00    -0.277 OA
ATOM     17  H   UNL     1       4.313   1.920  -0.781  0.00  0.00    +0.155 HD
ENDBRANCH   1  15
BRANCH   1  19
ATOM     18  C   UNL     1      -1.144   5.284  -2.877  0.00  0.00    -0.095 C 
ATOM     19  N   UNL     1       0.075   4.558  -3.293  0.00  0.00    +0.389 N 
ATOM     20  H   UNL     1       0.851   5.225  -3.369  0.00  0.00    -0.081 HD
BRANCH  19  21
ATOM     21  C   UNL     1      -0.142   3.922  -4.610  0.00  0.00    +0.019 C 
BRANCH  21  22
ATOM     22  C   UNL     1      -0.273   5.000  -5.654  0.00  0.00    +0.201 C 
ATOM     23  O   UNL     1      -0.210   6.168  -5.332  0.00  0.00    -0.278 OA
ATOM     24  N   UNL     1      -0.459   4.668  -6.947  0.00  0.00    -0.285 N 
ATOM     25  H   UNL     1      -0.445   3.735  -7.215  0.00  0.00    +0.155 HD
BRANCH  24  26
ATOM     26  C   UNL     1      -0.674   5.668  -7.904  0.00  0.00    +0.069 A 
ATOM     27  C   UNL     1      -0.037   6.895  -7.782  0.00  0.00    +0.027 A 
ATOM     28  C   UNL     1      -0.251   7.880  -8.727  0.00  0.00    +0.022 A 
ATOM     29  C   UNL     1      -1.099   7.645  -9.795  0.00  0.00    +0.044 A 
ATOM     30  C   UNL     1      -1.736   6.423  -9.921  0.00  0.00    +0.060 A 
ATOM     31  C   UNL     1      -1.521   5.431  -8.981  0.00  0.00    +0.146 A 
ATOM     32  F   UNL     1      -2.138   4.236  -9.106  0.00  0.00    -0.203 F 
ATOM     33 CL   UNL     1      -1.365   8.886 -10.980  0.00  0.00    -0.083 Cl
ENDBRANCH  24  26
ENDBRANCH  21  22
ENDBRANCH  19  21
ENDBRANCH   1  19
TORSDOF 5
