REMARK  Name = ZINC13730979
REMARK  4 active torsions:
REMARK  status: ('A' for Active; 'I' for Inactive)
REMARK    1  A    between atoms: C_4  and  C_7
REMARK    2  A    between atoms: N_19  and  C_20
REMARK    3  A    between atoms: C_20  and  C_21
REMARK    4  A    between atoms: C_21  and  O_22
REMARK                            x       y       z     vdW  Elec       q    Type
REMARK                         _______ _______ _______ _____ _____    ______ ____
ROOT
ATOM      1  C   UNL     1      -6.320  -0.109  -2.819  0.00  0.00    +0.182 A 
ATOM      2  N   UNL     1      -5.125   0.190  -2.297  0.00  0.00    -0.206 NA
ATOM      3  C   UNL     1      -5.254   0.409  -1.004  0.00  0.00    +0.170 A 
ATOM      4  C   UNL     1      -4.297   0.768   0.061  0.00  0.00    +0.055 A 
ATOM      5  C   UNL     1      -2.856   0.992  -0.038  0.00  0.00    -0.024 A 
ATOM      6  C   UNL     1      -2.205   1.311   1.101  0.00  0.00    -0.004 A 
ATOM      7  S   UNL     1      -3.459   1.333   2.354  0.00  0.00    -0.073 S 
ATOM      8  C   UNL     1      -4.855   0.911   1.341  0.00  0.00    +0.116 A 
ATOM      9  N   UNL     1      -6.151   0.736   1.571  0.00  0.00    -0.207 NA
ATOM     10  C   UNL     1      -6.990   0.416   0.613  0.00  0.00    +0.219 A 
ATOM     11  N   UNL     1      -6.569   0.247  -0.675  0.00  0.00    -0.181 N 
ATOM     12  N   UNL     1      -7.230  -0.086  -1.866  0.00  0.00    -0.142 NA
ATOM     13  N   UNL     1      -8.323   0.248   0.914  0.00  0.00    -0.311 N 
ATOM     14  C   UNL     1      -0.738   1.584   1.266  0.00  0.00    +0.043 C 
ATOM     15  C   UNL     1      -0.013   1.086   0.008  0.00  0.00    +0.005 C 
ATOM     16  C   UNL     1      -0.760   1.596  -1.228  0.00  0.00    +0.005 C 
ATOM     17  C   UNL     1      -2.101   0.874  -1.360  0.00  0.00    +0.037 C 
ATOM     18  H   UNL     1      -8.953   0.012   0.214  0.00  0.00    +0.149 HD
ENDROOT
BRANCH   1  22
ATOM     19  C   UNL     1      -7.064  -0.995  -6.911  0.00  0.00    +0.000 A 
ATOM     20  C   UNL     1      -8.108  -1.003  -6.004  0.00  0.00    +0.001 A 
ATOM     21  C   UNL     1      -7.872  -0.716  -4.674  0.00  0.00    +0.011 A 
ATOM     22  C   UNL     1      -6.579  -0.418  -4.247  0.00  0.00    +0.021 A 
ATOM     23  C   UNL     1      -5.533  -0.406  -5.167  0.00  0.00    +0.011 A 
ATOM     24  C   UNL     1      -5.779  -0.700  -6.493  0.00  0.00    +0.001 A 
ENDBRANCH   1  22
BRANCH  13  25
ATOM     25  C   UNL     1      -8.792   0.425   2.291  0.00  0.00    +0.132 C 
BRANCH  25  26
ATOM     26  C   UNL     1     -10.301   0.182   2.351  0.00  0.00    +0.174 C 
BRANCH  26  27
ATOM     27  O   UNL     1     -10.577  -1.183   2.031  0.00  0.00    -0.393 OA
ATOM     28  H   UNL     1     -11.517  -1.410   2.050  0.00  0.00    +0.209 HD
ENDBRANCH  26  27
ENDBRANCH  25  26
ENDBRANCH  13  25
TORSDOF 4
