REMARK  Name = ZINC09312838
REMARK  15 active torsions:
REMARK  status: ('A' for Active; 'I' for Inactive)
REMARK    1  A    between atoms: C_1  and  C_2
REMARK    2  A    between atoms: C_2  and  N_71
REMARK    3  A    between atoms: C_3  and  C_4
REMARK    4  A    between atoms: C_3  and  N_71
REMARK    5  A    between atoms: C_5  and  C_6
REMARK    6  A    between atoms: C_5  and  N_71
REMARK    7  A    between atoms: C_6  and  C_7
REMARK    8  A    between atoms: C_7  and  N_8
REMARK    9  A    between atoms: C_9  and  C_29
REMARK   10  A    between atoms: C_12  and  C_13
REMARK   11  A    between atoms: C_12  and  O_24
REMARK   12  A    between atoms: C_20  and  C_23
REMARK   13  A    between atoms: C_32  and  C_35
REMARK   14  A    between atoms: C_35  and  O_37
REMARK   15  A    between atoms: O_37  and  C_38
REMARK                            x       y       z     vdW  Elec       q    Type
REMARK                         _______ _______ _______ _____ _____    ______ ____
ROOT
ATOM      1  N   UNL     1      -2.038   0.842   1.220  0.00  0.00    -0.284 N 
ATOM      2  C   UNL     1      -2.849  -0.226   1.812  0.00  0.00    +0.144 C 
ATOM      3  C   UNL     1      -3.588   0.388   2.978  0.00  0.00    +0.071 C 
ATOM      4  C   UNL     1      -4.471  -0.248   3.829  0.00  0.00    +0.133 C 
ATOM      5  C   UNL     1      -3.198   1.735   3.022  0.00  0.00    +0.249 C 
ATOM      6  O   UNL     1      -3.581   2.563   3.828  0.00  0.00    -0.282 OA
ATOM      7  C   UNL     1      -2.231   1.974   1.917  0.00  0.00    +0.288 C 
ATOM      8  O   UNL     1      -1.696   3.038   1.678  0.00  0.00    -0.266 OA
ENDROOT
BRANCH   4   9
ATOM      9  C   UNL     1      -4.998   0.460   5.005  0.00  0.00    +0.017 A 
ATOM     10  C   UNL     1      -6.377   0.499   5.247  0.00  0.00    +0.015 A 
ATOM     11  C   UNL     1      -6.867   1.164   6.345  0.00  0.00    +0.046 A 
ATOM     12  C   UNL     1      -5.998   1.806   7.230  0.00  0.00    +0.124 A 
ATOM     13  C   UNL     1      -4.627   1.758   6.989  0.00  0.00    -0.002 A 
ATOM     14  C   UNL     1      -4.125   1.096   5.897  0.00  0.00    +0.019 A 
ATOM     15  C   UNL     1      -3.952   2.513   8.118  0.00  0.00    +0.083 C 
ATOM     16  C   UNL     1      -5.090   2.614   9.161  0.00  0.00    +0.175 C 
ATOM     17  O   UNL     1      -6.274   2.525   8.351  0.00  0.00    -0.488 OA
ATOM     18  C   UNL     1      -5.023   1.448  10.150  0.00  0.00    +0.052 C 
ENDBRANCH   4   9
BRANCH   2  19
ATOM     19  C   UNL     1      -1.959  -1.343   2.294  0.00  0.00    -0.022 A 
ATOM     20  C   UNL     1      -0.756  -1.048   2.911  0.00  0.00    +0.006 A 
ATOM     21  C   UNL     1       0.061  -2.065   3.360  0.00  0.00    +0.015 A 
ATOM     22  C   UNL     1      -0.324  -3.395   3.180  0.00  0.00    +0.059 A 
ATOM     23  C   UNL     1      -1.536  -3.686   2.552  0.00  0.00    +0.015 A 
ATOM     24  C   UNL     1      -2.346  -2.659   2.113  0.00  0.00    +0.006 A 
BRANCH  22  25
ATOM     25  C   UNL     1       0.548  -4.489   3.654  0.00  0.00    +0.339 C 
ATOM     26  O   UNL     1       0.211  -5.646   3.496  0.00  0.00    -0.245 OA
BRANCH  25  27
ATOM     27  O   UNL     1       1.718  -4.205   4.260  0.00  0.00    -0.464 OA
ATOM     28  C   UNL     1       2.523  -5.330   4.699  0.00  0.00    +0.280 C 
ENDBRANCH  25  27
ENDBRANCH  22  25
ENDBRANCH   2  19
BRANCH   4  29
ATOM     29  O   UNL     1      -4.849  -1.520   3.581  0.00  0.00    -0.506 OA
ATOM     30  H   UNL     1      -5.486  -1.823   4.290  0.00  0.00    +0.292 HD
ENDBRANCH   4  29
BRANCH   1  31
ATOM     31  C   UNL     1      -1.155   0.696   0.060  0.00  0.00    +0.107 C 
BRANCH  31  32
ATOM     32  C   UNL     1      -1.941   0.990  -1.220  0.00  0.00    +0.000 C 
BRANCH  32  33
ATOM     33  C   UNL     1      -1.019   0.838  -2.431  0.00  0.00    -0.077 C 
BRANCH  33  34
ATOM     34  N   UNL     1      -1.797   1.104  -3.659  0.00  0.00    +0.379 N 
ATOM     35  H   UNL     1      -2.645   0.526  -3.648  0.00  0.00    -0.082 HD
BRANCH  34  37
ATOM     36  C   UNL     1      -0.948   3.425  -3.741  0.00  0.00    -0.017 C 
ATOM     37  C   UNL     1      -2.188   2.529  -3.710  0.00  0.00    -0.082 C 
ENDBRANCH  34  37
BRANCH  34  38
ATOM     38  C   UNL     1      -0.994   0.758  -4.851  0.00  0.00    -0.082 C 
ATOM     39  C   UNL     1      -1.913   0.736  -6.074  0.00  0.00    -0.017 C 
ENDBRANCH  34  38
ENDBRANCH  33  34
ENDBRANCH  32  33
ENDBRANCH  31  32
ENDBRANCH   1  31
TORSDOF 11
