REMARK  Name = ZINC15717414
REMARK  3 active torsions:
REMARK  status: ('A' for Active; 'I' for Inactive)
REMARK    1  A    between atoms: C_12  and  C_14
REMARK    2  A    between atoms: C_14  and  C_15
REMARK    3  A    between atoms: C_18  and  C_20
REMARK                            x       y       z     vdW  Elec       q    Type
REMARK                         _______ _______ _______ _____ _____    ______ ____
ROOT
ATOM      1  C   UNL     1       2.400   0.036  -0.013  0.00  0.00    +0.002 A 
ATOM      2  C   UNL     1       1.213  -0.674  -0.009  0.00  0.00    +0.002 A 
ATOM      3  C   UNL     1       0.002  -0.004   0.002  0.00  0.00    +0.025 A 
ATOM      4  C   UNL     1      -0.017   1.379   0.010  0.00  0.00    +0.058 A 
ATOM      5  C   UNL     1       1.180   2.098   0.002  0.00  0.00    +0.055 A 
ATOM      6  C   UNL     1       2.388   1.418  -0.008  0.00  0.00    +0.025 A 
ATOM      7  N   UNL     1       1.145   3.496  -0.003  0.00  0.00    -0.283 N 
ATOM      8  C   UNL     1       0.009   4.157   0.287  0.00  0.00    +0.235 C 
ATOM      9  O   UNL     1      -0.010   5.369   0.234  0.00  0.00    -0.274 OA
ATOM     10  C   UNL     1      -1.241   3.409   0.676  0.00  0.00    +0.209 C 
ATOM     11  N   UNL     1      -1.228   2.087   0.031  0.00  0.00    -0.261 N 
ATOM     12  C   UNL     1      -2.345   1.573  -0.522  0.00  0.00    +0.226 C 
ATOM     13  O   UNL     1      -2.312   0.481  -1.049  0.00  0.00    -0.275 OA
ATOM     14  H   UNL     1       1.949   3.995  -0.216  0.00  0.00    +0.155 HD
ENDROOT
BRANCH  12  15
ATOM     15  C   UNL     1      -3.633   2.354  -0.485  0.00  0.00    +0.152 C 
BRANCH  15  16
ATOM     16  C   UNL     1      -4.720   1.562  -1.166  0.00  0.00    +0.058 A 
ATOM     17  C   UNL     1      -5.875   1.284  -0.506  0.00  0.00    +0.071 A 
ATOM     18  S   UNL     1      -6.756   0.360  -1.758  0.00  0.00    -0.075 S 
ATOM     19  C   UNL     1      -5.490   0.438  -3.018  0.00  0.00    +0.109 A 
ATOM     20  N   UNL     1      -4.550   1.136  -2.396  0.00  0.00    -0.243 NA
BRANCH  19  21
ATOM     21  C   UNL     1      -5.491  -0.125  -4.385  0.00  0.00    +0.007 A 
ATOM     22  C   UNL     1      -4.387   0.059  -5.219  0.00  0.00    +0.013 A 
ATOM     23  C   UNL     1      -4.391  -0.472  -6.491  0.00  0.00    +0.039 A 
ATOM     24  C   UNL     1      -5.493  -1.179  -6.946  0.00  0.00    +0.123 A 
ATOM     25  C   UNL     1      -6.594  -1.360  -6.124  0.00  0.00    +0.039 A 
ATOM     26  C   UNL     1      -6.598  -0.837  -4.848  0.00  0.00    +0.013 A 
ATOM     27  F   UNL     1      -5.494  -1.693  -8.196  0.00  0.00    -0.205 F 
ENDBRANCH  19  21
ENDBRANCH  15  16
ENDBRANCH  12  15
TORSDOF 3
