REMARK  Name = ZINC13387863
REMARK  7 active torsions:
REMARK  status: ('A' for Active; 'I' for Inactive)
REMARK    1  A    between atoms: C_1  and  C_2
REMARK    2  A    between atoms: C_2  and  C_3
REMARK    3  A    between atoms: C_3  and  C_5
REMARK    4  A    between atoms: C_3  and  N_6
REMARK    5  A    between atoms: C_7  and  C_9
REMARK    6  A    between atoms: C_13  and  C_24
REMARK    7  A    between atoms: C_16  and  C_20
REMARK                            x       y       z     vdW  Elec       q    Type
REMARK                         _______ _______ _______ _____ _____    ______ ____
ROOT
ATOM      1  C   UNL     1      -0.127   0.363   4.838  0.00  0.00    +0.110 C 
ATOM      2  C   UNL     1      -1.462   0.596   4.890  0.00  0.00    +0.072 C 
ATOM      3  C   UNL     1      -1.789   0.934   6.274  0.00  0.00    +0.114 C 
ATOM      4  N   UNL     1      -2.935   1.244   6.811  0.00  0.00    -0.365 N 
ATOM      5  C   UNL     1      -2.986   1.582   8.238  0.00  0.00    +0.113 C 
ATOM      6  C   UNL     1      -1.926   0.800   9.014  0.00  0.00    +0.062 C 
ATOM      7  C   UNL     1      -0.534   1.102   8.437  0.00  0.00    +0.201 C 
ATOM      8  N   UNL     1      -0.601   0.861   6.992  0.00  0.00    -0.226 N 
ATOM      9  N   UNL     1       0.413   0.526   6.103  0.00  0.00    -0.258 N 
ATOM     10  H   UNL     1       1.351   0.425   6.331  0.00  0.00    +0.170 HD
ATOM     11  H   UNL     1      -3.743   1.252   6.274  0.00  0.00    +0.161 HD
ENDROOT
BRANCH   5  12
ATOM     12  C   UNL     1      -2.738   3.059   8.408  0.00  0.00    -0.025 A 
ATOM     13  C   UNL     1      -1.785   3.693   7.632  0.00  0.00    +0.008 A 
ATOM     14  C   UNL     1      -1.557   5.047   7.787  0.00  0.00    +0.038 A 
ATOM     15  C   UNL     1      -2.282   5.769   8.720  0.00  0.00    +0.123 A 
ATOM     16  C   UNL     1      -3.236   5.133   9.497  0.00  0.00    +0.038 A 
ATOM     17  C   UNL     1      -3.466   3.780   9.336  0.00  0.00    +0.008 A 
ATOM     18  F   UNL     1      -2.059   7.093   8.873  0.00  0.00    -0.205 F 
ENDBRANCH   5  12
BRANCH   1  20
ATOM     19  N   UNL     1      -0.008  -0.140   2.444  0.00  0.00    -0.308 N 
ATOM     20  C   UNL     1       0.630  -0.011   3.624  0.00  0.00    +0.260 C 
ATOM     21  O   UNL     1       1.829  -0.202   3.690  0.00  0.00    -0.269 OA
ATOM     22  H   UNL     1      -0.965   0.013   2.391  0.00  0.00    +0.149 HD
BRANCH  19  23
ATOM     23  C   UNL     1       0.742  -0.511   1.242  0.00  0.00    +0.070 C 
ATOM     24  C   UNL     1       0.872  -2.034   1.171  0.00  0.00    +0.028 C 
BRANCH  23  26
ATOM     25  C   UNL     1      -0.019   1.526   0.010  0.00  0.00    +0.005 C 
ATOM     26  C   UNL     1       0.002  -0.004   0.002  0.00  0.00    +0.018 C 
ENDBRANCH  23  26
ENDBRANCH  19  23
ENDBRANCH   1  20
BRANCH   7  27
ATOM     27  C   UNL     1       0.505   0.177   9.073  0.00  0.00    +0.410 C 
ATOM     28  F   UNL     1       0.172  -1.155   8.802  0.00  0.00    -0.169 F 
ATOM     29  F   UNL     1       1.768   0.459   8.542  0.00  0.00    -0.169 F 
ATOM     30  F   UNL     1       0.526   0.379  10.457  0.00  0.00    -0.169 F 
ENDBRANCH   7  27
TORSDOF 5
