REMARK  Name = ZINC41016032
REMARK  14 active torsions:
REMARK  status: ('A' for Active; 'I' for Inactive)
REMARK    1  A    between atoms: C_1  and  C_2
REMARK    2  A    between atoms: C_2  and  C_3
REMARK    3  A    between atoms: C_3  and  C_5
REMARK    4  A    between atoms: C_3  and  C_6
REMARK    5  A    between atoms: C_6  and  C_8
REMARK    6  A    between atoms: C_6  and  N_29
REMARK    7  A    between atoms: N_10  and  C_11
REMARK    8  A    between atoms: C_12  and  C_24
REMARK    9  A    between atoms: C_13  and  C_16
REMARK   10  A    between atoms: C_19  and  C_23
REMARK   11  A    between atoms: C_21  and  C_22
REMARK   12  A    between atoms: C_24  and  O_26
REMARK   13  A    between atoms: O_26  and  C_27
REMARK   14  A    between atoms: C_27  and  C_28
REMARK                            x       y       z     vdW  Elec       q    Type
REMARK                         _______ _______ _______ _____ _____    ______ ____
ROOT
ATOM      1  C   UNL     1       0.991  -0.763   2.754  0.00  0.00    +0.239 C 
ATOM      2  O   UNL     1       1.195  -0.218   3.818  0.00  0.00    -0.273 OA
ATOM      3  N   UNL     1       1.319  -2.060   2.587  0.00  0.00    -0.278 N 
ATOM      4  H   UNL     1       1.228  -2.475   1.715  0.00  0.00    +0.155 HD
ENDROOT
BRANCH   3   5
ATOM      5  C   UNL     1       1.786  -2.800   3.662  0.00  0.00    +0.086 A 
ATOM      6  C   UNL     1       2.172  -4.131   3.672  0.00  0.00    +0.095 A 
ATOM      7  C   UNL     1       2.626  -4.665   4.944  0.00  0.00    +0.005 A 
ATOM      8  C   UNL     1       2.617  -3.788   5.981  0.00  0.00    +0.056 A 
ATOM      9  S   UNL     1       2.018  -2.285   5.241  0.00  0.00    -0.080 S 
BRANCH   7  10
ATOM     10  C   UNL     1       3.067  -6.071   5.100  0.00  0.00    -0.014 A 
ATOM     11  C   UNL     1       2.127  -7.101   5.133  0.00  0.00    +0.009 A 
ATOM     12  C   UNL     1       2.545  -8.408   5.278  0.00  0.00    +0.004 A 
ATOM     13  C   UNL     1       3.893  -8.698   5.393  0.00  0.00    -0.050 A 
ATOM     14  C   UNL     1       4.830  -7.681   5.362  0.00  0.00    +0.007 A 
ATOM     15  C   UNL     1       4.425  -6.370   5.210  0.00  0.00    -0.042 A 
ATOM     16  C   UNL     1       5.447  -5.264   5.169  0.00  0.00    +0.044 C 
ATOM     17  C   UNL     1       4.342 -10.128   5.552  0.00  0.00    +0.044 C 
ENDBRANCH   7  10
BRANCH   6  18
ATOM     18  C   UNL     1       2.124  -4.955   2.465  0.00  0.00    +0.342 C 
ATOM     19  O   UNL     1       3.120  -5.086   1.778  0.00  0.00    -0.245 OA
BRANCH  18  20
ATOM     20  O   UNL     1       0.976  -5.571   2.113  0.00  0.00    -0.461 OA
BRANCH  20  21
ATOM     21  C   UNL     1       1.002  -6.360   0.922  0.00  0.00    +0.229 C 
ATOM     22  C   UNL     1      -0.380  -6.974   0.687  0.00  0.00    +0.048 C 
ENDBRANCH  20  21
ENDBRANCH  18  20
ENDBRANCH   6  18
ENDBRANCH   3   5
BRANCH   1  23
ATOM     23  C   UNL     1       0.370   0.009   1.619  0.00  0.00    +0.173 C 
BRANCH  23  24
ATOM     24  N   UNL     1      -0.125   1.295   2.115  0.00  0.00    -0.222 N 
ATOM     25  C   UNL     1       0.659   2.282   2.586  0.00  0.00    +0.255 C 
ATOM     26  O   UNL     1       1.870   2.248   2.664  0.00  0.00    -0.270 OA
ATOM     27  C   UNL     1      -0.201   3.414   2.990  0.00  0.00    +0.049 A 
ATOM     28  C   UNL     1       0.040   4.668   3.529  0.00  0.00    +0.014 A 
ATOM     29  C   UNL     1      -1.023   5.516   3.799  0.00  0.00    +0.001 A 
ATOM     30  C   UNL     1      -2.320   5.119   3.535  0.00  0.00    +0.001 A 
ATOM     31  C   UNL     1      -2.576   3.868   2.996  0.00  0.00    +0.014 A 
ATOM     32  C   UNL     1      -1.524   3.010   2.720  0.00  0.00    +0.049 A 
ATOM     33  C   UNL     1      -1.423   1.647   2.157  0.00  0.00    +0.255 C 
ATOM     34  O   UNL     1      -2.356   0.959   1.793  0.00  0.00    -0.270 OA
ENDBRANCH  23  24
BRANCH  23  35
ATOM     35  C   UNL     1       1.420   0.252   0.532  0.00  0.00    +0.016 C 
ATOM     36  C   UNL     1       2.043  -1.083   0.118  0.00  0.00    +0.010 C 
BRANCH  35  38
ATOM     37  C   UNL     1       0.301   2.318  -0.317  0.00  0.00    +0.004 C 
ATOM     38  C   UNL     1       0.756   0.903  -0.682  0.00  0.00    +0.002 C 
ENDBRANCH  35  38
ENDBRANCH  23  35
ENDBRANCH   1  23
TORSDOF 9
