REMARK  Name = ZINC09550196
REMARK  8 active torsions:
REMARK  status: ('A' for Active; 'I' for Inactive)
REMARK    1  A    between atoms: C_1  and  C_2
REMARK    2  A    between atoms: C_2  and  C_4
REMARK    3  A    between atoms: C_2  and  N_62
REMARK    4  A    between atoms: N_6  and  C_7
REMARK    5  A    between atoms: C_7  and  C_8
REMARK    6  A    between atoms: C_7  and  C_14
REMARK    7  A    between atoms: N_22  and  S_25
REMARK    8  A    between atoms: S_25  and  C_28
REMARK                            x       y       z     vdW  Elec       q    Type
REMARK                         _______ _______ _______ _____ _____    ______ ____
ROOT
ATOM      1  C   UNL     1       1.162   3.299  -1.667  0.00  0.00    -0.004 C 
ATOM      2  C   UNL     1       1.385   3.493  -0.166  0.00  0.00    +0.016 C 
ENDROOT
BRANCH   2   8
ATOM      3  C   UNL     1       1.588   2.316   1.941  0.00  0.00    -0.060 C 
ATOM      4  C   UNL     1       1.219   1.018   2.666  0.00  0.00    +0.091 C 
ATOM      5  N   UNL     1       1.826  -0.110   1.942  0.00  0.00    -0.180 NA
ATOM      6  C   UNL     1       1.601  -0.207   0.491  0.00  0.00    +0.091 C 
ATOM      7  C   UNL     1       1.955   1.140  -0.148  0.00  0.00    -0.060 C 
ATOM      8  N   UNL     1       1.177   2.203   0.524  0.00  0.00    +0.389 N 
ATOM      9  H   UNL     1       0.180   1.961   0.486  0.00  0.00    -0.081 HD
BRANCH   5  10
ATOM     10  S   UNL     1       2.738  -1.240   2.738  0.00  0.00    +0.063 S 
ATOM     11  O   UNL     1       3.602  -1.820   1.770  0.00  0.00    -0.153 OA
ATOM     12  O   UNL     1       3.225  -0.611   3.915  0.00  0.00    -0.153 OA
BRANCH  10  13
ATOM     13  C   UNL     1       1.643  -2.516   3.265  0.00  0.00    +0.140 A 
ATOM     14  C   UNL     1       1.763  -3.789   2.741  0.00  0.00    +0.031 A 
ATOM     15  C   UNL     1       0.908  -4.792   3.159  0.00  0.00    +0.002 A 
ATOM     16  C   UNL     1      -0.075  -4.519   4.093  0.00  0.00    +0.003 A 
ATOM     17  C   UNL     1      -0.200  -3.246   4.613  0.00  0.00    +0.040 A 
ATOM     18  C   UNL     1       0.659  -2.242   4.200  0.00  0.00    +0.150 A 
ATOM     19  F   UNL     1       0.538  -0.996   4.708  0.00  0.00    -0.203 F 
ENDBRANCH  10  13
ENDBRANCH   5  10
ENDBRANCH   2   8
BRANCH   2  20
ATOM     20  C   UNL     1       2.784   4.002   0.073  0.00  0.00    +0.200 C 
ATOM     21  O   UNL     1       3.690   3.219   0.263  0.00  0.00    -0.278 OA
ATOM     22  N   UNL     1       3.027   5.327   0.074  0.00  0.00    -0.306 N 
ATOM     23  H   UNL     1       2.303   5.954  -0.078  0.00  0.00    +0.150 HD
BRANCH  22  24
ATOM     24  C   UNL     1       4.387   5.822   0.306  0.00  0.00    +0.133 C 
BRANCH  24  25
ATOM     25  C   UNL     1       4.539   7.184  -0.321  0.00  0.00    -0.023 A 
ATOM     26  C   UNL     1       3.506   8.099  -0.246  0.00  0.00    +0.006 A 
ATOM     27  C   UNL     1       3.648   9.350  -0.817  0.00  0.00    +0.000 A 
ATOM     28  C   UNL     1       4.819   9.682  -1.472  0.00  0.00    +0.000 A 
ATOM     29  C   UNL     1       5.850   8.765  -1.552  0.00  0.00    +0.000 A 
ATOM     30  C   UNL     1       5.710   7.516  -0.977  0.00  0.00    +0.006 A 
ENDBRANCH  24  25
BRANCH  24  31
ATOM     31  C   UNL     1       4.640   5.920   1.788  0.00  0.00    -0.023 A 
ATOM     32  C   UNL     1       3.647   6.387   2.629  0.00  0.00    +0.006 A 
ATOM     33  C   UNL     1       3.877   6.472   3.990  0.00  0.00    +0.000 A 
ATOM     34  C   UNL     1       5.104   6.101   4.507  0.00  0.00    +0.000 A 
ATOM     35  C   UNL     1       6.099   5.640   3.666  0.00  0.00    +0.000 A 
ATOM     36  C   UNL     1       5.867   5.550   2.306  0.00  0.00    +0.006 A 
ENDBRANCH  24  31
ENDBRANCH  22  24
ENDBRANCH   2  20
TORSDOF 7
