REMARK  Name = ZINC06300998
REMARK  6 active torsions:
REMARK  status: ('A' for Active; 'I' for Inactive)
REMARK    1  A    between atoms: C_1  and  C_2
REMARK    2  A    between atoms: C_4  and  C_33
REMARK    3  A    between atoms: C_9  and  C_14
REMARK    4  A    between atoms: C_14  and  C_16
REMARK    5  A    between atoms: C_14  and  N_66
REMARK    6  A    between atoms: N_20  and  C_21
REMARK                            x       y       z     vdW  Elec       q    Type
REMARK                         _______ _______ _______ _____ _____    ______ ____
ROOT
ATOM      1  C   UNL     1       3.512   0.638  -0.028  0.00  0.00    +0.039 C 
ENDROOT
BRANCH   1  10
ATOM      2  C   UNL     1       7.163   2.218   6.280  0.00  0.00    +0.044 C 
ATOM      3  C   UNL     1       6.380   1.261   5.420  0.00  0.00    -0.050 A 
ATOM      4  C   UNL     1       6.112  -0.020   5.884  0.00  0.00    +0.008 A 
ATOM      5  C   UNL     1       5.397  -0.912   5.114  0.00  0.00    -0.026 A 
ATOM      6  C   UNL     1       4.940  -0.528   3.858  0.00  0.00    +0.052 A 
ATOM      7  C   UNL     1       5.213   0.771   3.390  0.00  0.00    -0.001 A 
ATOM      8  C   UNL     1       5.940   1.660   4.190  0.00  0.00    +0.013 A 
ATOM      9  C   UNL     1       4.726   1.167   2.068  0.00  0.00    +0.017 A 
ATOM     10  C   UNL     1       4.027   0.263   1.338  0.00  0.00    +0.011 A 
ATOM     11  C   UNL     1       3.775  -1.026   1.855  0.00  0.00    +0.251 A 
ATOM     12  O   UNL     1       3.139  -1.821   1.185  0.00  0.00    -0.268 OA
ATOM     13  N   UNL     1       4.222  -1.399   3.067  0.00  0.00    -0.322 N 
ATOM     14  H   UNL     1       4.035  -2.295   3.390  0.00  0.00    +0.169 HD
ATOM     15  C   UNL     1       5.114  -2.299   5.630  0.00  0.00    +0.046 C 
ENDBRANCH   1  10
BRANCH   1  22
ATOM     16  C   UNL     1       5.459  -0.514  -0.915  0.00  0.00    -0.077 C 
ATOM     17  C   UNL     1       6.034  -1.285  -2.072  0.00  0.00    -0.019 C 
ATOM     18  C   UNL     1       6.512  -0.280  -3.141  0.00  0.00    -0.002 C 
ATOM     19  C   UNL     1       5.407   0.244  -3.936  0.00  0.00    -0.002 C 
ATOM     20  C   UNL     1       4.379   1.006  -3.074  0.00  0.00    -0.019 C 
ATOM     21  C   UNL     1       3.506   0.002  -2.373  0.00  0.00    -0.077 C 
ATOM     22  N   UNL     1       3.964  -0.376  -0.993  0.00  0.00    +0.389 N 
ATOM     23  H   UNL     1       3.542  -1.279  -0.747  0.00  0.00    -0.080 HD
ENDBRANCH   1  22
BRANCH   1  24
ATOM     24  C   UNL     1       2.005   0.637  -0.014  0.00  0.00    +0.143 A 
ATOM     25  N   UNL     1       1.223  -0.415  -0.012  0.00  0.00    -0.115 NA
ATOM     26  N   UNL     1       0.002  -0.004   0.002  0.00  0.00    -0.023 NA
ATOM     27  N   UNL     1      -0.015   1.283   0.009  0.00  0.00    -0.044 NA
ATOM     28  N   UNL     1       1.200   1.716  -0.000  0.00  0.00    -0.227 N 
BRANCH  28  29
ATOM     29  C   UNL     1       1.625   3.118   0.003  0.00  0.00    +0.111 C 
ATOM     30  C   UNL     1       1.095   3.808   1.261  0.00  0.00    +0.027 C 
ATOM     31  C   UNL     1       1.538   5.273   1.264  0.00  0.00    +0.002 C 
ATOM     32  C   UNL     1       0.984   5.976   0.024  0.00  0.00    +0.000 C 
ATOM     33  C   UNL     1       1.514   5.286  -1.234  0.00  0.00    +0.002 C 
ATOM     34  C   UNL     1       1.070   3.821  -1.237  0.00  0.00    +0.027 C 
ENDBRANCH  28  29
ENDBRANCH   1  24
TORSDOF 4
