REMARK  Name = ZINC62874458
REMARK  2 active torsions:
REMARK  status: ('A' for Active; 'I' for Inactive)
REMARK    1  A    between atoms: C_1  and  C_2
REMARK    2  A    between atoms: C_2  and  C_17
REMARK                            x       y       z     vdW  Elec       q    Type
REMARK                         _______ _______ _______ _____ _____    ______ ____
ROOT
ATOM      1  C   UNL     1       0.901   0.521  -0.158  0.00  0.00    +0.024 C 
ATOM      2  C   UNL     1       0.533  -0.913   0.229  0.00  0.00    +0.085 C 
ATOM      3  C   UNL     1      -0.967  -1.131   0.017  0.00  0.00    +0.021 C 
ATOM      4  C   UNL     1      -1.754  -0.128   0.862  0.00  0.00    +0.020 C 
ATOM      5  C   UNL     1      -1.437  -0.355   2.344  0.00  0.00    +0.109 C 
ATOM      6  N   UNL     1       0.019  -0.290   2.531  0.00  0.00    -0.284 N 
ATOM      7  C   UNL     1       0.876  -1.149   1.703  0.00  0.00    +0.127 C 
ATOM      8  C   UNL     1       0.557   0.541   3.445  0.00  0.00    +0.305 C 
ATOM      9  O   UNL     1       1.710   0.908   3.328  0.00  0.00    -0.252 OA
ATOM     10  N   UNL     1      -0.182   0.964   4.489  0.00  0.00    -0.287 N 
ATOM     11  C   UNL     1       0.458   1.807   5.519  0.00  0.00    +0.107 C 
ATOM     12  C   UNL     1      -0.475   2.951   5.957  0.00  0.00    -0.000 C 
ATOM     13  C   UNL     1      -1.195   3.503   4.747  0.00  0.00    -0.081 C 
ATOM     14  N   UNL     1      -2.484   2.829   4.603  0.00  0.00    +0.380 N 
ATOM     15  C   UNL     1      -2.451   1.635   3.849  0.00  0.00    -0.063 C 
ATOM     16  C   UNL     1      -1.577   0.582   4.558  0.00  0.00    +0.090 C 
ATOM     17  H   UNL     1      -2.835   2.614   5.525  0.00  0.00    -0.086 HD
ATOM     18  H   UNL     1      -3.130   3.467   4.162  0.00  0.00    -0.086 HD
ENDROOT
BRANCH   2  19
ATOM     19  C   UNL     1       1.309  -1.879  -0.629  0.00  0.00    +0.363 C 
ATOM     20  O   UNL     1       2.528  -1.872  -0.607  0.00  0.00    -0.246 OA
ATOM     21  O   UNL     1       0.717  -2.669  -1.346  0.00  0.00    -0.246 OA
ENDBRANCH   2  19
TORSDOF 1
