REMARK  Name = ZINC20678504
REMARK  6 active torsions:
REMARK  status: ('A' for Active; 'I' for Inactive)
REMARK    1  A    between atoms: C_1  and  N_2
REMARK    2  A    between atoms: N_5  and  S_8
REMARK    3  A    between atoms: S_8  and  C_11
REMARK    4  A    between atoms: C_24  and  C_27
REMARK    5  A    between atoms: C_30  and  O_33
REMARK    6  A    between atoms: O_33  and  C_34
REMARK                            x       y       z     vdW  Elec       q    Type
REMARK                         _______ _______ _______ _____ _____    ______ ____
ROOT
ATOM      1  C   UNL     1      -0.581   4.566  -0.496  0.00  0.00    +0.106 A 
ATOM      2  C   UNL     1      -0.985   3.247  -0.392  0.00  0.00    +0.030 A 
ATOM      3  C   UNL     1      -0.048   2.244  -0.246  0.00  0.00    +0.025 A 
ATOM      4  C   UNL     1       1.307   2.550  -0.210  0.00  0.00    +0.031 A 
ATOM      5  C   UNL     1       1.708   3.887  -0.311  0.00  0.00    -0.018 A 
ATOM      6  C   UNL     1       0.765   4.881  -0.459  0.00  0.00    +0.034 A 
ATOM      7  C   UNL     1       3.157   4.172  -0.241  0.00  0.00    +0.049 C 
ATOM      8  C   UNL     1       3.755   5.378  -0.869  0.00  0.00    -0.023 C 
ATOM      9  C   UNL     1       4.995   5.088  -1.246  0.00  0.00    -0.030 C 
ATOM     10  C   UNL     1       5.320   3.610  -0.944  0.00  0.00    +0.033 C 
ATOM     11  C   UNL     1       3.913   2.997  -0.930  0.00  0.00    +0.029 C 
ATOM     12  C   UNL     1       3.692   1.792  -0.033  0.00  0.00    +0.105 C 
ATOM     13  N   UNL     1       2.240   1.514  -0.088  0.00  0.00    -0.336 N 
ATOM     14  H   UNL     1       1.877   0.477  -0.032  0.00  0.00    +0.147 HD
ENDROOT
BRANCH  12  15
ATOM     15  C   UNL     1       4.108   2.112   1.380  0.00  0.00    -0.027 A 
ATOM     16  C   UNL     1       5.409   1.879   1.786  0.00  0.00    +0.009 A 
ATOM     17  C   UNL     1       5.794   2.177   3.079  0.00  0.00    +0.046 A 
ATOM     18  C   UNL     1       4.871   2.700   3.973  0.00  0.00    +0.120 A 
ATOM     19  C   UNL     1       3.565   2.929   3.564  0.00  0.00    +0.046 A 
ATOM     20  C   UNL     1       3.187   2.634   2.269  0.00  0.00    +0.009 A 
BRANCH  18  21
ATOM     21  O   UNL     1       5.246   2.989   5.247  0.00  0.00    -0.495 OA
ATOM     22  C   UNL     1       6.607   2.728   5.597  0.00  0.00    +0.277 C 
ENDBRANCH  18  21
ENDBRANCH  12  15
BRANCH   1  23
ATOM     23  S   UNL     1      -1.780   5.843  -0.682  0.00  0.00    +0.061 S 
ATOM     24  O   UNL     1      -2.995   5.342  -0.140  0.00  0.00    -0.153 OA
ATOM     25  O   UNL     1      -1.175   7.040  -0.216  0.00  0.00    -0.153 OA
BRANCH  23  30
ATOM     26  C   UNL     1      -1.304   5.080  -6.326  0.00  0.00    -0.096 C 
ATOM     27  N   UNL     1      -1.774   5.640  -5.052  0.00  0.00    +0.380 N 
ATOM     28  C   UNL     1      -2.442   4.614  -4.240  0.00  0.00    -0.062 C 
ATOM     29  C   UNL     1      -3.073   5.273  -3.009  0.00  0.00    +0.091 C 
ATOM     30  N   UNL     1      -2.035   6.042  -2.307  0.00  0.00    -0.180 NA
ATOM     31  C   UNL     1      -1.232   6.999  -3.084  0.00  0.00    +0.091 C 
ATOM     32  C   UNL     1      -0.669   6.268  -4.314  0.00  0.00    -0.062 C 
ATOM     33  H   UNL     1      -2.513   6.423  -5.276  0.00  0.00    -0.082 HD
ENDBRANCH  23  30
ENDBRANCH   1  23
TORSDOF 4
