REMARK  Name = ZINC64491467
REMARK  10 active torsions:
REMARK  status: ('A' for Active; 'I' for Inactive)
REMARK    1  A    between atoms: C_1  and  C_2
REMARK    2  A    between atoms: C_8  and  C_11
REMARK    3  A    between atoms: C_11  and  C_12
REMARK    4  A    between atoms: C_12  and  N_13
REMARK    5  A    between atoms: C_14  and  C_16
REMARK    6  A    between atoms: C_16  and  S_17
REMARK    7  A    between atoms: S_17  and  C_18
REMARK    8  A    between atoms: C_18  and  C_19
REMARK    9  A    between atoms: C_23  and  C_26
REMARK   10  A    between atoms: N_28  and  C_29
REMARK                            x       y       z     vdW  Elec       q    Type
REMARK                         _______ _______ _______ _____ _____    ______ ____
ROOT
ATOM      1  C   UNL     1      -2.536  -2.309   7.799  0.00  0.00    +0.164 C 
ENDROOT
BRANCH   1   3
ATOM      2  N   UNL     1      -1.375  -2.554   5.629  0.00  0.00    -0.314 N 
ATOM      3  C   UNL     1      -2.536  -2.561   6.313  0.00  0.00    +0.223 C 
ATOM      4  O   UNL     1      -3.580  -2.769   5.733  0.00  0.00    -0.275 OA
ATOM      5  H   UNL     1      -0.539  -2.387   6.093  0.00  0.00    +0.149 HD
BRANCH   2   6
ATOM      6  C   UNL     1      -1.374  -2.798   4.185  0.00  0.00    +0.108 C 
BRANCH   6   7
ATOM      7  C   UNL     1       0.061  -2.735   3.657  0.00  0.00    +0.052 C 
BRANCH   7  15
ATOM      8  C   UNL     1      -0.022   1.590   0.055  0.00  0.00    +0.044 C 
ATOM      9  C   UNL     1       0.004   0.083   0.037  0.00  0.00    -0.050 A 
ATOM     10  C   UNL     1       0.011  -0.584  -1.196  0.00  0.00    +0.005 A 
ATOM     11  C   UNL     1       0.034  -1.930  -1.295  0.00  0.00    +0.026 A 
ATOM     12  C   UNL     1       0.051  -2.738  -0.125  0.00  0.00    +0.043 A 
ATOM     13  N   UNL     1       0.072  -4.038   0.038  0.00  0.00    -0.380 N 
ATOM     14  C   UNL     1       0.081  -4.329   1.476  0.00  0.00    +0.144 C 
ATOM     15  C   UNL     1       0.061  -2.986   2.171  0.00  0.00    -0.040 C 
ATOM     16  C   UNL     1       0.043  -2.057   1.189  0.00  0.00    -0.001 A 
ATOM     17  C   UNL     1       0.025  -0.589   1.210  0.00  0.00    +0.013 A 
ATOM     18  H   UNL     1       0.081  -4.698  -0.673  0.00  0.00    +0.160 HD
ENDBRANCH   7  15
ENDBRANCH   6   7
ENDBRANCH   2   6
ENDBRANCH   1   3
BRANCH   1  19
ATOM     19  S   UNL     1      -4.237  -2.384   8.424  0.00  0.00    -0.148 S 
BRANCH  19  20
ATOM     20  C   UNL     1      -4.066  -2.065  10.202  0.00  0.00    +0.109 C 
BRANCH  20  21
ATOM     21  C   UNL     1      -5.446  -2.099  10.862  0.00  0.00    +0.197 C 
ATOM     22  N   UNL     1      -6.385  -1.167  10.197  0.00  0.00    -0.176 NA
ATOM     23  N   UNL     1      -7.496  -1.534   9.870  0.00  0.00    -0.167 NA
ATOM     24  C   UNL     1      -7.940  -2.923  10.126  0.00  0.00    +0.272 C 
ATOM     25  S   UNL     1      -6.311  -3.700  10.532  0.00  0.00    -0.094 S 
BRANCH  24  26
ATOM     26  C   UNL     1      -8.553  -3.540   8.895  0.00  0.00    +0.254 C 
ATOM     27  O   UNL     1      -7.958  -4.408   8.292  0.00  0.00    -0.272 OA
ATOM     28  N   UNL     1      -9.761  -3.127   8.465  0.00  0.00    -0.283 N 
ATOM     29  H   UNL     1     -10.266  -2.481   8.984  0.00  0.00    +0.155 HD
BRANCH  28  30
ATOM     30  C   UNL     1     -10.287  -3.629   7.270  0.00  0.00    +0.033 A 
ATOM     31  C   UNL     1     -11.049  -2.810   6.446  0.00  0.00    +0.023 A 
ATOM     32  C   UNL     1     -11.567  -3.309   5.267  0.00  0.00    +0.002 A 
ATOM     33  C   UNL     1     -11.328  -4.622   4.906  0.00  0.00    +0.000 A 
ATOM     34  C   UNL     1     -10.571  -5.440   5.724  0.00  0.00    +0.002 A 
ATOM     35  C   UNL     1     -10.045  -4.946   6.901  0.00  0.00    +0.023 A 
ENDBRANCH  28  30
ENDBRANCH  24  26
ENDBRANCH  20  21
ENDBRANCH  19  20
ENDBRANCH   1  19
TORSDOF 9
