REMARK  Name = ZINC37757252
REMARK  4 active torsions:
REMARK  status: ('A' for Active; 'I' for Inactive)
REMARK    1  A    between atoms: C_8  and  N_13
REMARK    2  A    between atoms: N_13  and  C_14
REMARK    3  A    between atoms: C_14  and  C_15
REMARK    4  A    between atoms: C_18  and  C_21
REMARK                            x       y       z     vdW  Elec       q    Type
REMARK                         _______ _______ _______ _____ _____    ______ ____
ROOT
ATOM      1  C   UNL     1      -0.016   1.361   0.009  0.00  0.00    +0.001 A 
ATOM      2  C   UNL     1       1.166   2.092   0.002  0.00  0.00    +0.001 A 
ATOM      3  C   UNL     1       2.379   1.463  -0.013  0.00  0.00    +0.014 A 
ATOM      4  C   UNL     1       2.432   0.068  -0.021  0.00  0.00    +0.047 A 
ATOM      5  C   UNL     1       1.229  -0.678  -0.013  0.00  0.00    -0.010 A 
ATOM      6  C   UNL     1       0.002  -0.004   0.002  0.00  0.00    +0.009 A 
ATOM      7  C   UNL     1       1.303  -2.091  -0.021  0.00  0.00    +0.050 A 
ATOM      8  C   UNL     1       2.509  -2.706  -0.036  0.00  0.00    +0.100 A 
ATOM      9  N   UNL     1       3.686  -2.006  -0.043  0.00  0.00    -0.310 N 
ATOM     10  H   UNL     1       4.526  -2.492  -0.053  0.00  0.00    +0.170 HD
ATOM     11  C   UNL     1       3.705  -0.657  -0.036  0.00  0.00    +0.258 A 
ATOM     12  O   UNL     1       4.762  -0.053  -0.044  0.00  0.00    -0.267 OA
ENDROOT
BRANCH   8  13
ATOM     13  N   UNL     1       2.554  -4.087  -0.043  0.00  0.00    -0.326 N 
ATOM     14  H   UNL     1       1.731  -4.599  -0.038  0.00  0.00    +0.148 HD
BRANCH  13  15
ATOM     15  C   UNL     1       3.846  -4.778  -0.059  0.00  0.00    +0.138 C 
BRANCH  15  16
ATOM     16  C   UNL     1       3.619  -6.268  -0.064  0.00  0.00    -0.030 A 
ATOM     17  C   UNL     1       3.521  -6.953   1.134  0.00  0.00    +0.006 A 
ATOM     18  C   UNL     1       3.313  -8.317   1.136  0.00  0.00    +0.019 A 
ATOM     19  C   UNL     1       3.201  -9.005  -0.074  0.00  0.00    +0.052 A 
ATOM     20  C   UNL     1       3.301  -8.307  -1.279  0.00  0.00    +0.019 A 
ATOM     21  C   UNL     1       3.504  -6.942  -1.266  0.00  0.00    +0.006 A 
BRANCH  19  22
ATOM     22  C   UNL     1       2.986 -10.421  -0.079  0.00  0.00    +0.099 C 
ATOM     23  N   UNL     1       2.815 -11.544  -0.083  0.00  0.00    -0.191 NA
ENDBRANCH  19  22
ENDBRANCH  15  16
ENDBRANCH  13  15
ENDBRANCH   8  13
TORSDOF 4
