REMARK  Name = ZINC01339565
REMARK  8 active torsions:
REMARK  status: ('A' for Active; 'I' for Inactive)
REMARK    1  A    between atoms: C_1  and  C_2
REMARK    2  A    between atoms: C_5  and  O_32
REMARK    3  A    between atoms: C_6  and  N_8
REMARK    4  A    between atoms: C_9  and  C_11
REMARK    5  A    between atoms: C_11  and  S_12
REMARK    6  A    between atoms: S_12  and  C_13
REMARK    7  A    between atoms: C_18  and  C_29
REMARK    8  A    between atoms: O_32  and  C_33
REMARK                            x       y       z     vdW  Elec       q    Type
REMARK                         _______ _______ _______ _____ _____    ______ ____
ROOT
ATOM      1  C   UNL     1       3.588   1.929  -0.056  0.00  0.00    +0.198 A 
ATOM      2  N   UNL     1       4.392   0.890  -0.078  0.00  0.00    -0.122 NA
ATOM      3  N   UNL     1       3.710  -0.202  -0.088  0.00  0.00    -0.128 NA
ATOM      4  C   UNL     1       2.430   0.078  -0.072  0.00  0.00    +0.173 A 
ATOM      5  N   UNL     1       2.308   1.450  -0.052  0.00  0.00    -0.257 N 
ATOM      6  C   UNL     1       1.075   2.036  -0.034  0.00  0.00    +0.122 A 
ATOM      7  N   UNL     1      -0.015   1.324  -0.035  0.00  0.00    -0.226 NA
ATOM      8  C   UNL     1       0.003  -0.006  -0.053  0.00  0.00    +0.114 A 
ATOM      9  C   UNL     1       1.198  -0.741  -0.072  0.00  0.00    +0.056 A 
ATOM     10  C   UNL     1       1.078  -2.153  -0.089  0.00  0.00    -0.024 A 
ATOM     11  C   UNL     1      -0.170  -2.678  -0.086  0.00  0.00    -0.004 A 
ATOM     12  S   UNL     1      -1.246  -1.269  -0.059  0.00  0.00    -0.073 S 
ATOM     13  C   UNL     1      -0.550  -4.125  -0.102  0.00  0.00    +0.043 C 
ATOM     14  C   UNL     1       0.687  -4.946  -0.494  0.00  0.00    +0.005 C 
ATOM     15  C   UNL     1       1.878  -4.466   0.341  0.00  0.00    +0.005 C 
ATOM     16  C   UNL     1       2.301  -3.068  -0.110  0.00  0.00    +0.037 C 
ENDROOT
BRANCH   6  17
ATOM     17  C   UNL     1       0.975   3.540  -0.013  0.00  0.00    +0.056 C 
ATOM     18  C   UNL     1      -0.409   4.152   0.213  0.00  0.00    +0.012 C 
ATOM     19  C   UNL     1       0.239   4.215  -1.172  0.00  0.00    +0.012 C 
ENDBRANCH   6  17
BRANCH   1  20
ATOM     20  S   UNL     1       4.070   3.624  -0.035  0.00  0.00    -0.076 S 
BRANCH  20  21
ATOM     21  C   UNL     1       5.883   3.564  -0.050  0.00  0.00    +0.173 C 
BRANCH  21  23
ATOM     22  N   UNL     1       7.764   5.171  -0.041  0.00  0.00    -0.282 N 
ATOM     23  C   UNL     1       6.432   4.968  -0.033  0.00  0.00    +0.228 C 
ATOM     24  O   UNL     1       5.674   5.915  -0.014  0.00  0.00    -0.275 OA
ATOM     25  H   UNL     1       8.370   4.416   0.025  0.00  0.00    +0.155 HD
BRANCH  22  31
ATOM     26  C   UNL     1       7.193   9.841  -1.468  0.00  0.00    +0.044 C 
ATOM     27  C   UNL     1       8.020   8.755  -0.829  0.00  0.00    -0.048 A 
ATOM     28  C   UNL     1       9.282   9.044  -0.345  0.00  0.00    +0.007 A 
ATOM     29  C   UNL     1      10.046   8.052   0.241  0.00  0.00    +0.048 A 
ATOM     30  C   UNL     1       9.546   6.763   0.345  0.00  0.00    +0.141 A 
ATOM     31  C   UNL     1       8.274   6.472  -0.142  0.00  0.00    +0.076 A 
ATOM     32  C   UNL     1       7.516   7.472  -0.734  0.00  0.00    +0.030 A 
BRANCH  30  33
ATOM     33  O   UNL     1      10.296   5.786   0.921  0.00  0.00    -0.493 OA
ATOM     34  C   UNL     1      11.591   6.158   1.398  0.00  0.00    +0.277 C 
ENDBRANCH  30  33
ENDBRANCH  22  31
ENDBRANCH  21  23
ENDBRANCH  20  21
ENDBRANCH   1  20
TORSDOF 6
