REMARK  Name = ZINC58407413
REMARK  6 active torsions:
REMARK  status: ('A' for Active; 'I' for Inactive)
REMARK    1  A    between atoms: C_4  and  C_7
REMARK    2  A    between atoms: C_7  and  N_8
REMARK    3  A    between atoms: N_13  and  C_14
REMARK    4  A    between atoms: C_14  and  C_16
REMARK    5  A    between atoms: C_16  and  C_17
REMARK    6  A    between atoms: C_26  and  O_29
REMARK                            x       y       z     vdW  Elec       q    Type
REMARK                         _______ _______ _______ _____ _____    ______ ____
ROOT
ATOM      1  C   UNL     1       2.899  -4.087   2.534  0.00  0.00    +0.240 C 
ATOM      2  O   UNL     1       3.381  -4.066   3.651  0.00  0.00    -0.274 OA
ENDROOT
BRANCH   1   8
ATOM      3  N   UNL     1       4.152  -0.952   1.338  0.00  0.00    -0.314 N 
ATOM      4  C   UNL     1       4.938  -0.109   2.103  0.00  0.00    +0.106 A 
ATOM      5  C   UNL     1       5.120  -0.680   3.290  0.00  0.00    +0.103 A 
ATOM      6  N   UNL     1       4.451  -1.891   3.290  0.00  0.00    -0.333 N 
ATOM      7  C   UNL     1       3.857  -2.040   2.085  0.00  0.00    +0.201 A 
ATOM      8  N   UNL     1       3.113  -3.078   1.700  0.00  0.00    -0.147 NA
ATOM      9  H   UNL     1       4.412  -2.521   4.026  0.00  0.00    +0.168 HD
BRANCH   3  10
ATOM     10  C   UNL     1       3.711  -0.707  -0.038  0.00  0.00    +0.159 C 
BRANCH  10  14
ATOM     11  C   UNL     1      -0.017   1.378   0.010  0.00  0.00    +0.000 A 
ATOM     12  C   UNL     1       1.171   2.086   0.002  0.00  0.00    +0.000 A 
ATOM     13  C   UNL     1       2.377   1.411  -0.013  0.00  0.00    +0.005 A 
ATOM     14  C   UNL     1       2.396   0.029  -0.020  0.00  0.00    -0.028 A 
ATOM     15  C   UNL     1       1.208  -0.679  -0.012  0.00  0.00    +0.005 A 
ATOM     16  C   UNL     1       0.002  -0.004   0.002  0.00  0.00    +0.000 A 
ENDBRANCH  10  14
ENDBRANCH   3  10
ENDBRANCH   1   8
BRANCH   1  17
ATOM     17  C   UNL     1       2.059  -5.260   2.099  0.00  0.00    +0.105 C 
BRANCH  17  18
ATOM     18  C   UNL     1       1.970  -6.276   3.240  0.00  0.00    -0.018 C 
ATOM     19  C   UNL     1       3.376  -6.761   3.601  0.00  0.00    +0.011 C 
ATOM     20  C   UNL     1       3.287  -7.776   4.742  0.00  0.00    -0.007 C 
ATOM     21  C   UNL     1       2.646  -7.115   5.964  0.00  0.00    +0.007 C 
ATOM     22  C   UNL     1       1.241  -6.630   5.603  0.00  0.00    -0.007 C 
ATOM     23  C   UNL     1       1.329  -5.615   4.462  0.00  0.00    +0.011 C 
ATOM     24  C   UNL     1       0.388  -7.821   5.162  0.00  0.00    +0.038 C 
ATOM     25  C   UNL     1       1.029  -8.482   3.939  0.00  0.00    +0.067 C 
ATOM     26  C   UNL     1       2.434  -8.967   4.300  0.00  0.00    +0.038 C 
ATOM     27  C   UNL     1       1.117  -7.466   2.798  0.00  0.00    +0.042 C 
BRANCH  25  28
ATOM     28  O   UNL     1       0.232  -9.594   3.527  0.00  0.00    -0.389 OA
ATOM     29  H   UNL     1       0.132 -10.278   4.202  0.00  0.00    +0.210 HD
ENDBRANCH  25  28
ENDBRANCH  17  18
ENDBRANCH   1  17
TORSDOF 6
