REMARK  Name = ZINC40377197
REMARK  5 active torsions:
REMARK  status: ('A' for Active; 'I' for Inactive)
REMARK    1  A    between atoms: C_2  and  S_8
REMARK    2  A    between atoms: S_8  and  N_11
REMARK    3  A    between atoms: N_11  and  C_12
REMARK    4  A    between atoms: C_12  and  C_17
REMARK    5  A    between atoms: N_18  and  O_19
REMARK                            x       y       z     vdW  Elec       q    Type
REMARK                         _______ _______ _______ _____ _____    ______ ____
ROOT
ATOM      1  N   UNL     1       1.994   3.894   1.240  0.00  0.00    -0.177 NA
ATOM      2  H   UNL     1       1.343   4.226   1.879  0.00  0.00    +0.149 HD
ENDROOT
BRANCH   1   3
ATOM      3  C   UNL     1       3.415   3.856   1.595  0.00  0.00    +0.098 C 
ATOM      4  C   UNL     1       3.907   2.391   1.706  0.00  0.00    +0.031 C 
ATOM      5  C   UNL     1       3.431   1.978   3.121  0.00  0.00    +0.002 C 
ATOM      6  C   UNL     1       3.645   3.243   3.977  0.00  0.00    +0.002 C 
ATOM      7  C   UNL     1       3.635   4.437   3.007  0.00  0.00    +0.031 C 
BRANCH   3   8
ATOM      8  C   UNL     1       4.231   4.614   0.580  0.00  0.00    +0.153 C 
ATOM      9  N   UNL     1       4.018   5.874   0.390  0.00  0.00    -0.075 NA
ATOM     10  N   UNL     1       5.204   3.963  -0.146  0.00  0.00    -0.342 N 
ATOM     11  H   UNL     1       5.303   3.001  -0.071  0.00  0.00    +0.144 HD
ATOM     12  H   UNL     1       5.790   4.466  -0.732  0.00  0.00    +0.144 HD
BRANCH   9  13
ATOM     13  O   UNL     1       3.105   6.570   1.219  0.00  0.00    -0.408 OA
ATOM     14  H   UNL     1       3.012   7.507   1.001  0.00  0.00    +0.328 HD
ENDBRANCH   9  13
ENDBRANCH   3   8
ENDBRANCH   1   3
BRANCH   1  15
ATOM     15  S   UNL     1       1.498   3.370  -0.251  0.00  0.00    +0.061 S 
ATOM     16  O   UNL     1       0.083   3.491  -0.273  0.00  0.00    -0.153 OA
ATOM     17  O   UNL     1       2.162   2.137  -0.489  0.00  0.00    -0.153 OA
BRANCH  15  19
ATOM     18  C   UNL     1       3.072   4.121  -2.361  0.00  0.00    +0.057 A 
ATOM     19  C   UNL     1       2.120   4.515  -1.438  0.00  0.00    +0.132 A 
ATOM     20  C   UNL     1       1.672   5.795  -1.461  0.00  0.00    +0.106 A 
ATOM     21  S   UNL     1       2.605   6.489  -2.815  0.00  0.00    -0.063 S 
ATOM     22  C   UNL     1       3.529   5.027  -3.260  0.00  0.00    +0.081 A 
ATOM     23 CL   UNL     1       4.708   4.820  -4.518  0.00  0.00    -0.076 Cl
ATOM     24 CL   UNL     1       0.496   6.559  -0.438  0.00  0.00    -0.074 Cl
ENDBRANCH  15  19
ENDBRANCH   1  15
TORSDOF 5
