REMARK  Name = ZINC20623135
REMARK  5 active torsions:
REMARK  status: ('A' for Active; 'I' for Inactive)
REMARK    1  A    between atoms: C_1  and  C_2
REMARK    2  A    between atoms: C_4  and  C_29
REMARK    3  A    between atoms: C_5  and  N_7
REMARK    4  A    between atoms: C_29  and  O_31
REMARK    5  A    between atoms: O_31  and  C_32
REMARK                            x       y       z     vdW  Elec       q    Type
REMARK                         _______ _______ _______ _____ _____    ______ ____
ROOT
ATOM      1  N   UNL     1       1.205  -3.848   0.065  0.00  0.00    -0.203 N 
ATOM      2  C   UNL     1       0.483  -4.971  -0.021  0.00  0.00    +0.232 C 
ATOM      3  O   UNL     1      -0.723  -5.021  -0.139  0.00  0.00    -0.274 OA
ATOM      4  C   UNL     1       1.404  -6.168   0.052  0.00  0.00    +0.104 C 
ATOM      5  C   UNL     1       1.155  -6.915   1.380  0.00  0.00    +0.095 C 
ATOM      6  N   UNL     1       2.512  -7.185   1.925  0.00  0.00    -0.298 NA
ATOM      7  C   UNL     1       3.279  -5.966   1.605  0.00  0.00    +0.136 C 
ATOM      8  C   UNL     1       2.813  -5.527   0.195  0.00  0.00    +0.123 C 
ATOM      9  C   UNL     1       2.523  -4.043   0.185  0.00  0.00    +0.233 C 
ATOM     10  O   UNL     1       3.356  -3.166   0.274  0.00  0.00    -0.274 OA
ATOM     11  C   UNL     1       4.759  -6.224   1.637  0.00  0.00    +0.004 A 
ATOM     12  C   UNL     1       5.587  -7.079   0.945  0.00  0.00    +0.023 A 
ATOM     13  C   UNL     1       6.947  -7.087   1.204  0.00  0.00    +0.018 A 
ATOM     14  C   UNL     1       7.471  -6.233   2.158  0.00  0.00    +0.017 A 
ATOM     15  C   UNL     1       6.645  -5.373   2.852  0.00  0.00    +0.025 A 
ATOM     16  C   UNL     1       5.275  -5.359   2.597  0.00  0.00    +0.039 A 
ATOM     17  N   UNL     1       4.251  -4.593   3.158  0.00  0.00    -0.283 N 
ATOM     18  C   UNL     1       3.047  -4.888   2.629  0.00  0.00    +0.243 C 
ATOM     19  O   UNL     1       1.984  -4.384   2.922  0.00  0.00    -0.273 OA
ATOM     20 BR   UNL     1       8.085  -8.263   0.256  0.00  0.00    -0.050 Br
ATOM     21  H   UNL     1       2.478  -7.339   2.921  0.00  0.00    +0.123 HD
ATOM     22  H   UNL     1       4.389  -3.925   3.847  0.00  0.00    +0.155 HD
ENDROOT
BRANCH   1  27
ATOM     23  C   UNL     1      -1.030   1.071   1.022  0.00  0.00    +0.051 C 
ATOM     24  C   UNL     1      -0.451  -0.197   0.450  0.00  0.00    -0.011 A 
ATOM     25  C   UNL     1      -0.284  -0.530  -0.844  0.00  0.00    +0.028 A 
ATOM     26  C   UNL     1       0.305  -1.827  -1.090  0.00  0.00    +0.088 A 
ATOM     27  C   UNL     1       0.633  -2.581   0.027  0.00  0.00    +0.096 A 
ATOM     28  S   UNL     1       0.186  -1.612   1.322  0.00  0.00    -0.077 S 
BRANCH  26  29
ATOM     29  C   UNL     1       0.543  -2.319  -2.449  0.00  0.00    +0.341 C 
ATOM     30  O   UNL     1       1.130  -3.371  -2.621  0.00  0.00    -0.245 OA
BRANCH  29  31
ATOM     31  O   UNL     1       0.112  -1.606  -3.510  0.00  0.00    -0.464 OA
ATOM     32  C   UNL     1       0.379  -2.146  -4.806  0.00  0.00    +0.280 C 
ENDBRANCH  29  31
ENDBRANCH  26  29
ENDBRANCH   1  27
TORSDOF 3
