REMARK  Name = ZINC12415357
REMARK  9 active torsions:
REMARK  status: ('A' for Active; 'I' for Inactive)
REMARK    1  A    between atoms: C_1  and  S_2
REMARK    2  A    between atoms: S_2  and  C_3
REMARK    3  A    between atoms: C_4  and  C_21
REMARK    4  A    between atoms: C_5  and  N_20
REMARK    5  A    between atoms: N_6  and  C_8
REMARK    6  A    between atoms: C_8  and  C_9
REMARK    7  A    between atoms: N_11  and  C_12
REMARK    8  A    between atoms: C_12  and  C_13
REMARK    9  A    between atoms: C_23  and  C_26
REMARK                            x       y       z     vdW  Elec       q    Type
REMARK                         _______ _______ _______ _____ _____    ______ ____
ROOT
ATOM      1  C   UNL     1      -2.155   1.629  -2.856  0.00  0.00    +0.133 A 
ATOM      2  C   UNL     1      -1.369   2.810  -2.886  0.00  0.00    +0.112 A 
ATOM      3  C   UNL     1      -0.482   2.735  -1.818  0.00  0.00    +0.129 A 
ATOM      4  N   UNL     1      -0.721   1.571  -1.179  0.00  0.00    -0.240 N 
ATOM      5  N   UNL     1      -1.755   0.902  -1.843  0.00  0.00    -0.162 NA
ENDROOT
BRANCH   2   6
ATOM      6  C   UNL     1      -1.473   3.904  -3.861  0.00  0.00    +0.265 A 
ATOM      7  N   UNL     1      -2.316   3.978  -4.879  0.00  0.00    -0.187 NA
ATOM      8  C   UNL     1      -2.045   5.151  -5.487  0.00  0.00    +0.202 A 
ATOM      9  N   UNL     1      -1.071   5.720  -4.824  0.00  0.00    -0.056 NA
ATOM     10  O   UNL     1      -0.734   5.026  -3.888  0.00  0.00    -0.332 OA
BRANCH   8  11
ATOM     11  C   UNL     1      -2.726   5.696  -6.688  0.00  0.00    +0.026 A 
ATOM     12  C   UNL     1      -3.750   4.973  -7.297  0.00  0.00    +0.015 A 
ATOM     13  C   UNL     1      -4.387   5.484  -8.410  0.00  0.00    +0.050 A 
ATOM     14  C   UNL     1      -4.003   6.710  -8.932  0.00  0.00    +0.166 A 
ATOM     15  C   UNL     1      -2.975   7.434  -8.329  0.00  0.00    +0.167 A 
ATOM     16  C   UNL     1      -2.339   6.928  -7.210  0.00  0.00    +0.061 A 
ATOM     17  O   UNL     1      -2.792   8.593  -9.027  0.00  0.00    -0.453 OA
ATOM     18  C   UNL     1      -3.986   8.762  -9.813  0.00  0.00    +0.466 C 
ATOM     19  O   UNL     1      -4.461   7.416 -10.006  0.00  0.00    -0.453 OA
ENDBRANCH   8  11
ENDBRANCH   2   6
BRANCH   3  20
ATOM     20  N   UNL     1       0.469   3.678  -1.474  0.00  0.00    -0.343 N 
ATOM     21  H   UNL     1       1.042   3.531  -0.705  0.00  0.00    +0.144 HD
ATOM     22  H   UNL     1       0.562   4.487  -2.001  0.00  0.00    +0.144 HD
ENDBRANCH   3  20
BRANCH   1  24
ATOM     23  C   UNL     1      -4.031  -0.401  -3.403  0.00  0.00    +0.091 C 
ATOM     24  S   UNL     1      -3.438   1.210  -3.989  0.00  0.00    -0.107 S 
ENDBRANCH   1  24
BRANCH   4  25
ATOM     25  C   UNL     1      -0.013   1.086   0.008  0.00  0.00    +0.241 C 
BRANCH  25  26
ATOM     26  C   UNL     1      -0.718   1.572   1.248  0.00  0.00    +0.235 C 
ATOM     27  O   UNL     1      -1.714   2.256   1.150  0.00  0.00    -0.274 OA
ATOM     28  N   UNL     1      -0.242   1.246   2.466  0.00  0.00    -0.310 N 
ATOM     29  H   UNL     1       0.555   0.699   2.544  0.00  0.00    +0.149 HD
BRANCH  28  30
ATOM     30  C   UNL     1      -0.927   1.718   3.671  0.00  0.00    +0.139 C 
BRANCH  30  31
ATOM     31  C   UNL     1      -0.198   1.219   4.892  0.00  0.00    -0.030 A 
ATOM     32  C   UNL     1      -0.546   0.006   5.456  0.00  0.00    +0.006 A 
ATOM     33  C   UNL     1       0.126  -0.455   6.573  0.00  0.00    +0.020 A 
ATOM     34  C   UNL     1       1.139   0.303   7.132  0.00  0.00    +0.041 A 
ATOM     35  C   UNL     1       1.482   1.520   6.570  0.00  0.00    +0.020 A 
ATOM     36  C   UNL     1       0.814   1.977   5.451  0.00  0.00    +0.006 A 
ATOM     37 CL   UNL     1       1.979  -0.272   8.538  0.00  0.00    -0.084 Cl
ENDBRANCH  30  31
ENDBRANCH  28  30
ENDBRANCH  25  26
ENDBRANCH   4  25
TORSDOF 8
