REMARK  Name = ZINC12506962
REMARK  4 active torsions:
REMARK  status: ('A' for Active; 'I' for Inactive)
REMARK    1  A    between atoms: C_2  and  C_3
REMARK    2  A    between atoms: C_3  and  O_4
REMARK    3  A    between atoms: O_4  and  C_5
REMARK    4  A    between atoms: C_10  and  C_11
REMARK                            x       y       z     vdW  Elec       q    Type
REMARK                         _______ _______ _______ _____ _____    ______ ____
ROOT
ATOM      1  C   UNL     1       3.965   2.961  -0.020  0.00  0.00    +0.212 C 
ATOM      2  N   UNL     1       5.150   3.715  -0.470  0.00  0.00    -0.294 N 
ATOM      3  C   UNL     1       5.841   4.493   0.421  0.00  0.00    +0.160 C 
ATOM      4  N   UNL     1       5.893   4.189   1.706  0.00  0.00    -0.302 N 
ATOM      5  C   UNL     1       5.193   3.115   2.143  0.00  0.00    +0.213 A 
ATOM      6  N   UNL     1       4.258   2.487   1.337  0.00  0.00    -0.286 N 
ATOM      7  C   UNL     1       3.731   1.433   2.045  0.00  0.00    +0.076 A 
ATOM      8  C   UNL     1       2.787   0.453   1.765  0.00  0.00    +0.077 A 
ATOM      9  C   UNL     1       2.473  -0.493   2.722  0.00  0.00    +0.164 A 
ATOM     10  C   UNL     1       3.096  -0.472   3.966  0.00  0.00    +0.164 A 
ATOM     11  C   UNL     1       4.033   0.495   4.262  0.00  0.00    +0.079 A 
ATOM     12  C   UNL     1       4.361   1.459   3.303  0.00  0.00    +0.095 A 
ATOM     13  N   UNL     1       5.231   2.514   3.303  0.00  0.00    -0.212 NA
ATOM     14  O   UNL     1       2.773  -1.418   4.897  0.00  0.00    -0.488 OA
ATOM     15  C   UNL     1       1.454  -1.337   5.440  0.00  0.00    +0.232 C 
ATOM     16  C   UNL     1       0.456  -2.046   4.538  0.00  0.00    +0.082 C 
ATOM     17  C   UNL     1       0.322  -1.373   3.181  0.00  0.00    +0.232 C 
ATOM     18  O   UNL     1       1.546  -1.459   2.450  0.00  0.00    -0.488 OA
ATOM     19  N   UNL     1       6.492   5.610  -0.030  0.00  0.00    -0.332 N 
ATOM     20  H   UNL     1       5.439   3.660  -1.394  0.00  0.00    +0.151 HD
ATOM     21  H   UNL     1       6.460   5.843  -0.971  0.00  0.00    +0.145 HD
ATOM     22  H   UNL     1       6.984   6.168   0.592  0.00  0.00    +0.145 HD
ATOM     23  H   UNL     1       6.421   4.722   2.321  0.00  0.00    +0.171 HD
ENDROOT
BRANCH   1  29
ATOM     24  C   UNL     1       1.482   3.312   0.006  0.00  0.00    +0.129 A 
ATOM     25  C   UNL     1       0.372   4.143   0.027  0.00  0.00    +0.046 A 
ATOM     26  C   UNL     1       0.537   5.514   0.033  0.00  0.00    +0.004 A 
ATOM     27  C   UNL     1       1.808   6.059   0.018  0.00  0.00    +0.001 A 
ATOM     28  C   UNL     1       2.916   5.233  -0.003  0.00  0.00    +0.011 A 
ATOM     29  C   UNL     1       2.756   3.861  -0.004  0.00  0.00    +0.035 A 
BRANCH  24  30
ATOM     30  O   UNL     1       1.323   1.962   0.000  0.00  0.00    -0.479 OA
BRANCH  30  31
ATOM     31  C   UNL     1      -0.018   1.468   0.010  0.00  0.00    +0.317 C 
BRANCH  31  33
ATOM     32  C   UNL     1       0.018  -1.178  -0.004  0.00  0.00    +0.007 C 
ATOM     33  C   UNL     1       0.002  -0.004   0.002  0.00  0.00    -0.065 C 
ENDBRANCH  31  33
ENDBRANCH  30  31
ENDBRANCH  24  30
ENDBRANCH   1  29
TORSDOF 4
