REMARK  Name = ZINC34786513
REMARK  7 active torsions:
REMARK  status: ('A' for Active; 'I' for Inactive)
REMARK    1  A    between atoms: C_1  and  C_2
REMARK    2  A    between atoms: C_4  and  C_36
REMARK    3  A    between atoms: N_20  and  N_21
REMARK    4  A    between atoms: N_20  and  N_29
REMARK    5  A    between atoms: N_21  and  C_22
REMARK    6  A    between atoms: C_22  and  C_23
REMARK    7  A    between atoms: N_29  and  C_30
REMARK                            x       y       z     vdW  Elec       q    Type
REMARK                         _______ _______ _______ _____ _____    ______ ____
ROOT
ATOM      1  C   UNL     1      -0.422   2.614   1.640  0.00  0.00    +0.067 C 
ATOM      2  C   UNL     1      -0.101   1.195   1.247  0.00  0.00    +0.061 A 
ATOM      3  C   UNL     1       0.220   0.754  -0.042  0.00  0.00    +0.048 A 
ATOM      4  C   UNL     1       0.440  -0.579   0.015  0.00  0.00    +0.045 A 
ATOM      5  N   UNL     1       0.264  -0.970   1.304  0.00  0.00    -0.202 N 
ATOM      6  N   UNL     1      -0.070   0.166   2.054  0.00  0.00    -0.169 NA
ATOM      7  C   UNL     1       0.395  -2.269   1.795  0.00  0.00    +0.254 A 
ATOM      8  N   UNL     1       0.186  -2.502   3.084  0.00  0.00    -0.192 NA
ATOM      9  C   UNL     1       0.296  -3.711   3.607  0.00  0.00    +0.167 A 
ATOM     10  C   UNL     1       0.650  -4.803   2.765  0.00  0.00    +0.054 A 
ATOM     11  C   UNL     1       0.830  -6.212   3.120  0.00  0.00    -0.025 A 
ATOM     12  C   UNL     1       1.170  -7.055   2.124  0.00  0.00    -0.004 A 
ATOM     13  S   UNL     1       1.271  -6.041   0.674  0.00  0.00    -0.073 S 
ATOM     14  C   UNL     1       0.856  -4.481   1.409  0.00  0.00    +0.116 A 
ATOM     15  N   UNL     1       0.722  -3.247   0.964  0.00  0.00    -0.203 NA
ATOM     16  C   UNL     1       1.411  -8.530   2.227  0.00  0.00    +0.043 C 
ATOM     17  C   UNL     1       1.579  -8.892   3.710  0.00  0.00    +0.005 C 
ATOM     18  C   UNL     1       0.445  -8.239   4.505  0.00  0.00    +0.005 C 
ATOM     19  C   UNL     1       0.645  -6.724   4.546  0.00  0.00    +0.037 C 
ATOM     20  N   UNL     1       0.069  -3.913   4.956  0.00  0.00    -0.166 N 
ATOM     21  C   UNL     1       0.814  -1.470  -1.142  0.00  0.00    +0.066 C 
ENDROOT
BRANCH  20  22
ATOM     22  N   UNL     1      -1.129  -3.559   5.508  0.00  0.00    -0.217 NA
ATOM     23  H   UNL     1      -1.009  -3.234   6.456  0.00  0.00    +0.146 HD
BRANCH  22  24
ATOM     24  C   UNL     1      -2.085  -4.674   5.451  0.00  0.00    +0.139 C 
BRANCH  24  25
ATOM     25  C   UNL     1      -3.392  -4.247   6.067  0.00  0.00    -0.032 A 
ATOM     26  C   UNL     1      -3.609  -4.426   7.421  0.00  0.00    +0.005 A 
ATOM     27  C   UNL     1      -4.808  -4.035   7.986  0.00  0.00    +0.000 A 
ATOM     28  C   UNL     1      -5.790  -3.463   7.198  0.00  0.00    +0.000 A 
ATOM     29  C   UNL     1      -5.572  -3.283   5.845  0.00  0.00    +0.000 A 
ATOM     30  C   UNL     1      -4.372  -3.670   5.281  0.00  0.00    +0.005 A 
ENDBRANCH  24  25
ENDBRANCH  22  24
ENDBRANCH  20  22
BRANCH  20  31
ATOM     31  N   UNL     1       1.069  -4.481   5.757  0.00  0.00    -0.249 N 
ATOM     32  H   UNL     1       0.975  -5.391   6.078  0.00  0.00    +0.172 HD
BRANCH  31  33
ATOM     33  C   UNL     1       2.201  -3.735   6.094  0.00  0.00    +0.046 A 
ATOM     34  C   UNL     1       2.284  -2.395   5.736  0.00  0.00    +0.024 A 
ATOM     35  C   UNL     1       3.405  -1.661   6.071  0.00  0.00    +0.002 A 
ATOM     36  C   UNL     1       4.443  -2.258   6.761  0.00  0.00    +0.000 A 
ATOM     37  C   UNL     1       4.364  -3.591   7.119  0.00  0.00    +0.002 A 
ATOM     38  C   UNL     1       3.244  -4.330   6.793  0.00  0.00    +0.024 A 
ENDBRANCH  31  33
ENDBRANCH  20  31
TORSDOF 5
