REMARK  Name = ZINC22646098
REMARK  10 active torsions:
REMARK  status: ('A' for Active; 'I' for Inactive)
REMARK    1  A    between atoms: C_1  and  C_2
REMARK    2  A    between atoms: C_3  and  C_25
REMARK    3  A    between atoms: C_5  and  N_11
REMARK    4  A    between atoms: C_6  and  C_7
REMARK    5  A    between atoms: C_7  and  O_9
REMARK    6  A    between atoms: O_9  and  C_10
REMARK    7  A    between atoms: C_12  and  C_14
REMARK    8  A    between atoms: C_14  and  C_16
REMARK    9  A    between atoms: C_14  and  S_17
REMARK   10  A    between atoms: S_17  and  C_18
REMARK                            x       y       z     vdW  Elec       q    Type
REMARK                         _______ _______ _______ _____ _____    ______ ____
ROOT
ATOM      1  N   UNL     1      -0.013   0.969   0.017  0.00  0.00    -0.278 N 
ATOM      2  C   UNL     1      -1.189   1.626   0.024  0.00  0.00    +0.231 C 
ATOM      3  O   UNL     1      -1.206   2.839   0.031  0.00  0.00    -0.274 OA
ATOM      4  H   UNL     1       0.003  -0.131   0.016  0.00  0.00    +0.155 HD
ENDROOT
BRANCH   1   9
ATOM      5  C   UNL     1       4.990   1.744  -0.018  0.00  0.00    +0.045 C 
ATOM      6  C   UNL     1       3.542   2.161  -0.004  0.00  0.00    -0.025 A 
ATOM      7  C   UNL     1       3.186   3.458   0.005  0.00  0.00    -0.008 A 
ATOM      8  S   UNL     1       1.407   3.395   0.011  0.00  0.00    -0.078 S 
ATOM      9  C   UNL     1       1.178   1.679   0.012  0.00  0.00    +0.086 A 
ATOM     10  C   UNL     1       2.478   1.185  -0.001  0.00  0.00    +0.091 A 
ATOM     11  C   UNL     1       4.079   4.673   0.004  0.00  0.00    +0.052 C 
BRANCH  10  12
ATOM     12  C   UNL     1       2.754  -0.253  -0.010  0.00  0.00    +0.342 C 
ATOM     13  O   UNL     1       2.861  -0.845  -1.067  0.00  0.00    -0.245 OA
BRANCH  12  14
ATOM     14  O   UNL     1       2.890  -0.920   1.154  0.00  0.00    -0.464 OA
ATOM     15  C   UNL     1       3.163  -2.344   1.070  0.00  0.00    +0.280 C 
ENDBRANCH  12  14
ENDBRANCH  10  12
ENDBRANCH   1   9
BRANCH   2  16
ATOM     16  C   UNL     1      -2.483   0.854   0.024  0.00  0.00    +0.137 C 
ATOM     17  C   UNL     1      -2.853   0.477   1.460  0.00  0.00    +0.029 C 
BRANCH  16  18
ATOM     18  S   UNL     1      -3.799   1.880  -0.690  0.00  0.00    -0.072 S 
BRANCH  18  19
ATOM     19  C   UNL     1      -5.191   0.801  -0.757  0.00  0.00    +0.211 A 
ATOM     20  N   UNL     1      -6.436   1.125  -1.218  0.00  0.00    -0.188 NA
ATOM     21  H   UNL     1      -6.748  -1.988  -0.330  0.00  0.00    +0.192 HD
ATOM     22  C   UNL     1      -7.230   0.019  -1.102  0.00  0.00    +0.209 A 
ATOM     23  N   UNL     1      -6.507  -0.946  -0.589  0.00  0.00    -0.246 N 
ATOM     24  N   UNL     1      -5.214  -0.452  -0.373  0.00  0.00    -0.144 NA
ATOM     25  N   UNL     1      -8.568  -0.068  -1.465  0.00  0.00    -0.328 N 
ATOM     26  H   UNL     1      -9.115  -1.012  -1.329  0.00  0.00    +0.145 HD
ATOM     27  H   UNL     1      -9.080   0.808  -1.889  0.00  0.00    +0.145 HD
ENDBRANCH  18  19
ENDBRANCH  16  18
ENDBRANCH   2  16
TORSDOF 6
