REMARK  Name = ZINC49112631
REMARK  10 active torsions:
REMARK  status: ('A' for Active; 'I' for Inactive)
REMARK    1  A    between atoms: C_1  and  C_2
REMARK    2  A    between atoms: C_2  and  O_3
REMARK    3  A    between atoms: O_3  and  C_4
REMARK    4  A    between atoms: C_4  and  C_6
REMARK    5  A    between atoms: N_8  and  C_32
REMARK    6  A    between atoms: C_10  and  C_31
REMARK    7  A    between atoms: C_11  and  N_17
REMARK    8  A    between atoms: C_12  and  N_16
REMARK    9  A    between atoms: N_24  and  O_25
REMARK   10  A    between atoms: C_26  and  C_30
REMARK                            x       y       z     vdW  Elec       q    Type
REMARK                         _______ _______ _______ _____ _____    ______ ____
ROOT
ATOM      1  C   UNL     1       1.071  -0.241   2.773  0.00  0.00    +0.055 C 
ATOM      2  C   UNL     1       1.376  -1.530   2.545  0.00  0.00    +0.086 C 
ATOM      3  N   UNL     1       1.933  -2.307   3.517  0.00  0.00    -0.302 N 
ATOM      4  C   UNL     1       1.857  -1.912   4.857  0.00  0.00    +0.042 A 
ATOM      5  C   UNL     1       2.079  -2.842   5.865  0.00  0.00    -0.006 A 
ATOM      6  C   UNL     1       2.002  -2.456   7.193  0.00  0.00    +0.056 A 
ATOM      7  C   UNL     1       1.700  -1.131   7.513  0.00  0.00    +0.047 A 
ATOM      8  C   UNL     1       1.481  -0.208   6.504  0.00  0.00    +0.030 A 
ATOM      9  C   UNL     1       1.561  -0.594   5.176  0.00  0.00    -0.019 A 
ATOM     10  C   UNL     1       1.336   0.425   4.091  0.00  0.00    +0.080 C 
ATOM     11  C   UNL     1       2.404  -4.271   5.514  0.00  0.00    +0.047 C 
ENDROOT
BRANCH   6  12
ATOM     12  N   UNL     1       2.224  -3.391   8.211  0.00  0.00    -0.323 N 
ATOM     13  C   UNL     1       3.561  -3.586   8.799  0.00  0.00    +0.110 C 
ATOM     14  C   UNL     1       3.468  -3.189  10.270  0.00  0.00    +0.061 C 
ATOM     15  C   UNL     1       2.265  -3.814  10.932  0.00  0.00    -0.007 C 
ATOM     16  C   UNL     1       1.204  -4.273  10.255  0.00  0.00    +0.004 C 
ATOM     17  C   UNL     1       1.139  -4.214   8.744  0.00  0.00    +0.143 C 
ATOM     18  C   UNL     1       0.074  -4.846  10.882  0.00  0.00    +0.089 C 
ATOM     19  N   UNL     1      -0.886  -5.239  10.098  0.00  0.00    -0.091 NA
ATOM     20  C   UNL     1      -0.137  -5.048  12.342  0.00  0.00    +0.048 C 
ATOM     21  C   UNL     1       1.198  -5.332  13.039  0.00  0.00    +0.083 C 
ATOM     22  S   UNL     1       2.296  -3.924  12.701  0.00  0.00    -0.128 S 
ATOM     23  C   UNL     1      -1.079  -6.234  12.558  0.00  0.00    +0.015 C 
BRANCH  19  24
ATOM     24  O   UNL     1      -2.130  -5.637  10.647  0.00  0.00    -0.409 OA
ATOM     25  H   UNL     1      -2.780  -5.913   9.987  0.00  0.00    +0.328 HD
ENDBRANCH  19  24
ENDBRANCH   6  12
BRANCH   7  26
ATOM     26  N   UNL     1       1.617  -0.736   8.856  0.00  0.00    -0.357 N 
ATOM     27  H   UNL     1       1.770  -1.382   9.562  0.00  0.00    +0.142 HD
ATOM     28  H   UNL     1       1.408   0.185   9.078  0.00  0.00    +0.142 HD
ENDBRANCH   7  26
BRANCH   3  29
ATOM     29  C   UNL     1       2.610  -3.556   3.158  0.00  0.00    +0.079 C 
ATOM     30  C   UNL     1       2.705  -3.906   1.672  0.00  0.00    +0.024 C 
ATOM     31  C   UNL     1       1.752  -4.684   2.583  0.00  0.00    +0.024 C 
ENDBRANCH   3  29
BRANCH   1  32
ATOM     32  C   UNL     1       0.487   0.515   1.734  0.00  0.00    +0.337 C 
ATOM     33  O   UNL     1       0.263  -0.004   0.656  0.00  0.00    -0.245 OA
BRANCH  32  34
ATOM     34  O   UNL     1       0.176   1.813   1.935  0.00  0.00    -0.462 OA
BRANCH  34  36
ATOM     35  C   UNL     1      -0.693   3.963   1.254  0.00  0.00    +0.048 C 
ATOM     36  C   UNL     1      -0.413   2.517   0.840  0.00  0.00    +0.229 C 
ENDBRANCH  34  36
ENDBRANCH  32  34
ENDBRANCH   1  32
TORSDOF 7
