REMARK  Name = ZINC35867273
REMARK  7 active torsions:
REMARK  status: ('A' for Active; 'I' for Inactive)
REMARK    1  A    between atoms: C_1  and  C_2
REMARK    2  A    between atoms: C_2  and  C_3
REMARK    3  A    between atoms: C_3  and  C_5
REMARK    4  A    between atoms: C_3  and  C_6
REMARK    5  A    between atoms: C_16  and  C_20
REMARK    6  A    between atoms: N_29  and  C_30
REMARK    7  A    between atoms: C_33  and  C_36
REMARK                            x       y       z     vdW  Elec       q    Type
REMARK                         _______ _______ _______ _____ _____    ______ ____
ROOT
ATOM      1  C   UNL     1       1.115  -1.294  -1.180  0.00  0.00    +0.135 A 
ATOM      2  N   UNL     1       2.288  -1.899  -1.252  0.00  0.00    -0.216 NA
ATOM      3  C   UNL     1       2.404  -3.217  -1.222  0.00  0.00    +0.133 A 
ATOM      4  C   UNL     1       1.230  -4.013  -1.108  0.00  0.00    +0.051 A 
ATOM      5  C   UNL     1       1.113  -5.471  -1.054  0.00  0.00    -0.025 A 
ATOM      6  C   UNL     1      -0.131  -5.981  -0.945  0.00  0.00    -0.004 A 
ATOM      7  S   UNL     1      -1.207  -4.573  -0.907  0.00  0.00    -0.073 S 
ATOM      8  C   UNL     1       0.018  -3.297  -1.038  0.00  0.00    +0.114 A 
ATOM      9  N   UNL     1      -0.007  -1.979  -1.070  0.00  0.00    -0.224 NA
ATOM     10  C   UNL     1      -0.515  -7.428  -0.870  0.00  0.00    +0.046 C 
ATOM     11  C   UNL     1       0.745  -8.249  -0.561  0.00  0.00    -0.009 C 
ATOM     12  C   UNL     1       1.867  -7.797  -1.500  0.00  0.00    +0.008 C 
ATOM     13  C   UNL     1       2.330  -6.390  -1.117  0.00  0.00    +0.037 C 
ATOM     14  C   UNL     1       0.455  -9.735  -0.779  0.00  0.00    +0.008 C 
ATOM     15  N   UNL     1       3.650  -3.813  -1.300  0.00  0.00    -0.312 N 
ATOM     16  C   UNL     1       4.336  -3.944  -2.593  0.00  0.00    +0.125 C 
ATOM     17  C   UNL     1       5.722  -3.296  -2.480  0.00  0.00    +0.128 C 
ATOM     18  N   UNL     1       6.383  -3.809  -1.272  0.00  0.00    -0.282 N 
ATOM     19  C   UNL     1       5.696  -3.678   0.021  0.00  0.00    +0.128 C 
ATOM     20  C   UNL     1       4.313  -4.321  -0.091  0.00  0.00    +0.125 C 
ATOM     21  C   UNL     1       7.597  -4.390  -1.348  0.00  0.00    +0.307 C 
ATOM     22  O   UNL     1       8.210  -4.380  -2.398  0.00  0.00    -0.252 OA
ATOM     23  N   UNL     1       8.130  -4.981  -0.261  0.00  0.00    -0.269 N 
ATOM     24  H   UNL     1       7.594  -5.101   0.538  0.00  0.00    +0.156 HD
ENDROOT
BRANCH  23  25
ATOM     25  C   UNL     1       9.455  -5.420  -0.285  0.00  0.00    +0.035 A 
ATOM     26  C   UNL     1      10.063  -5.723  -1.499  0.00  0.00    +0.024 A 
ATOM     27  C   UNL     1      11.370  -6.156  -1.526  0.00  0.00    +0.020 A 
ATOM     28  C   UNL     1      12.085  -6.291  -0.333  0.00  0.00    +0.052 A 
ATOM     29  C   UNL     1      11.471  -5.985   0.885  0.00  0.00    +0.020 A 
ATOM     30  C   UNL     1      10.165  -5.547   0.904  0.00  0.00    +0.024 A 
BRANCH  28  31
ATOM     31  C   UNL     1      13.444  -6.742  -0.357  0.00  0.00    +0.099 C 
ATOM     32  N   UNL     1      14.522  -7.099  -0.377  0.00  0.00    -0.191 NA
ENDBRANCH  28  31
ENDBRANCH  23  25
BRANCH   1  33
ATOM     33  C   UNL     1       1.060   0.211  -1.220  0.00  0.00    +0.054 C 
ATOM     34  C   UNL     1       0.222   0.659  -2.419  0.00  0.00    +0.015 C 
BRANCH  33  36
ATOM     35  C   UNL     1       0.479   2.261   0.086  0.00  0.00    +0.004 C 
ATOM     36  C   UNL     1       0.423   0.732   0.070  0.00  0.00    +0.007 C 
ENDBRANCH  33  36
ENDBRANCH   1  33
TORSDOF 4
