REMARK  Name = ZINC35062806
REMARK  5 active torsions:
REMARK  status: ('A' for Active; 'I' for Inactive)
REMARK    1  A    between atoms: C_4  and  N_7
REMARK    2  A    between atoms: N_7  and  S_8
REMARK    3  A    between atoms: S_8  and  C_11
REMARK    4  A    between atoms: C_14  and  N_17
REMARK    5  A    between atoms: N_17  and  N_18
REMARK                            x       y       z     vdW  Elec       q    Type
REMARK                         _______ _______ _______ _____ _____    ______ ____
ROOT
ATOM      1  S   UNL     1       3.740  -1.977   0.946  0.00  0.00    +0.072 S 
ATOM      2  O   UNL     1       5.050  -2.497   0.761  0.00  0.00    -0.150 OA
ATOM      3  O   UNL     1       3.248  -1.589   2.221  0.00  0.00    -0.150 OA
ENDROOT
BRANCH   1   4
ATOM      4  C   UNL     1       2.624  -3.189   0.323  0.00  0.00    +0.109 A 
ATOM      5  C   UNL     1       1.293  -3.158   0.696  0.00  0.00    +0.030 A 
ATOM      6  C   UNL     1       0.415  -4.106   0.209  0.00  0.00    +0.026 A 
ATOM      7  C   UNL     1       0.871  -5.093  -0.656  0.00  0.00    +0.041 A 
ATOM      8  C   UNL     1       2.209  -5.122  -1.029  0.00  0.00    +0.026 A 
ATOM      9  C   UNL     1       3.080  -4.167  -0.543  0.00  0.00    +0.030 A 
BRANCH   7  10
ATOM     10  N   UNL     1      -0.014  -6.054  -1.150  0.00  0.00    -0.283 N 
ATOM     11  H   UNL     1      -0.948  -6.034  -0.889  0.00  0.00    +0.166 HD
BRANCH  10  12
ATOM     12  N   UNL     1       0.436  -7.024  -2.001  0.00  0.00    -0.257 NA
ATOM     13  H   UNL     1      -0.313  -7.643  -2.272  0.00  0.00    +0.140 HD
ATOM     14  H   UNL     1       0.879  -6.617  -2.810  0.00  0.00    +0.140 HD
ENDBRANCH  10  12
ENDBRANCH   7  10
ENDBRANCH   1   4
BRANCH   1  15
ATOM     15  N   UNL     1       3.617  -0.648  -0.034  0.00  0.00    -0.216 N 
ATOM     16  H   UNL     1       3.319   0.199   0.333  0.00  0.00    +0.174 HD
BRANCH  15  20
ATOM     17  C   UNL     1       4.584  -0.940  -4.073  0.00  0.00    +0.000 A 
ATOM     18  C   UNL     1       3.421  -0.299  -3.687  0.00  0.00    +0.002 A 
ATOM     19  C   UNL     1       3.097  -0.200  -2.348  0.00  0.00    +0.024 A 
ATOM     20  C   UNL     1       3.941  -0.746  -1.389  0.00  0.00    +0.048 A 
ATOM     21  C   UNL     1       5.108  -1.389  -1.780  0.00  0.00    +0.024 A 
ATOM     22  C   UNL     1       5.426  -1.485  -3.121  0.00  0.00    +0.002 A 
ENDBRANCH  15  20
ENDBRANCH   1  15
TORSDOF 5
