REMARK  Name = ZINC36007623
REMARK  9 active torsions:
REMARK  status: ('A' for Active; 'I' for Inactive)
REMARK    1  A    between atoms: C_1  and  C_2
REMARK    2  A    between atoms: C_7  and  C_8
REMARK    3  A    between atoms: C_7  and  C_9
REMARK    4  A    between atoms: C_11  and  N_13
REMARK    5  A    between atoms: C_14  and  C_16
REMARK    6  A    between atoms: C_16  and  S_17
REMARK    7  A    between atoms: S_17  and  C_18
REMARK    8  A    between atoms: C_21  and  C_24
REMARK    9  A    between atoms: N_22  and  N_23
REMARK                            x       y       z     vdW  Elec       q    Type
REMARK                         _______ _______ _______ _____ _____    ______ ____
ROOT
ATOM      1  S   UNL     1      -6.228   0.467   1.303  0.00  0.00    -0.075 S 
ENDROOT
BRANCH   1   2
ATOM      2  C   UNL     1      -7.152   1.251   2.582  0.00  0.00    +0.209 A 
ATOM      3  N   UNL     1      -6.662   1.832   3.654  0.00  0.00    -0.121 NA
ATOM      4  N   UNL     1      -7.615   2.302   4.377  0.00  0.00    -0.127 NA
ATOM      5  C   UNL     1      -8.773   2.050   3.811  0.00  0.00    +0.184 A 
ATOM      6  N   UNL     1      -8.511   1.373   2.642  0.00  0.00    -0.224 N 
BRANCH   5   7
ATOM      7  C   UNL     1     -10.105   2.425   4.330  0.00  0.00    +0.056 A 
ATOM      8  C   UNL     1     -11.138   1.487   4.355  0.00  0.00    +0.014 A 
ATOM      9  C   UNL     1     -12.379   1.844   4.840  0.00  0.00    +0.001 A 
ATOM     10  C   UNL     1     -12.602   3.129   5.303  0.00  0.00    +0.003 A 
ATOM     11  C   UNL     1     -11.584   4.065   5.282  0.00  0.00    +0.039 A 
ATOM     12  C   UNL     1     -10.334   3.720   4.804  0.00  0.00    +0.134 A 
ATOM     13  F   UNL     1      -9.338   4.633   4.789  0.00  0.00    -0.205 F 
ENDBRANCH   5   7
BRANCH   6  14
ATOM     14  N   UNL     1      -9.422   0.917   1.731  0.00  0.00    -0.295 N 
ATOM     15  H   UNL     1      -9.780   0.013   1.999  0.00  0.00    +0.163 HD
ATOM     16  H   UNL     1     -10.172   1.581   1.606  0.00  0.00    +0.163 HD
ENDBRANCH   6  14
ENDBRANCH   1   2
BRANCH   1  17
ATOM     17  C   UNL     1      -4.503   0.652   1.831  0.00  0.00    +0.173 C 
BRANCH  17  19
ATOM     18  N   UNL     1      -2.259   0.032   0.995  0.00  0.00    -0.311 N 
ATOM     19  C   UNL     1      -3.594   0.016   0.812  0.00  0.00    +0.224 C 
ATOM     20  O   UNL     1      -4.064  -0.511  -0.174  0.00  0.00    -0.275 OA
ATOM     21  H   UNL     1      -1.883   0.454   1.784  0.00  0.00    +0.149 HD
BRANCH  18  31
ATOM     22  C   UNL     1       0.075   1.582   0.227  0.00  0.00    +0.013 C 
ATOM     23  C   UNL     1       0.041   0.062   0.058  0.00  0.00    -0.008 C 
ATOM     24  C   UNL     1       0.798  -0.502  -1.183  0.00  0.00    +0.009 C 
ATOM     25  C   UNL     1       1.048  -1.990  -0.845  0.00  0.00    +0.005 C 
ATOM     26  C   UNL     1       0.419  -2.184   0.569  0.00  0.00    -0.003 C 
ATOM     27  C   UNL     1       0.701  -0.778   1.207  0.00  0.00    -0.025 C 
ATOM     28  C   UNL     1       2.200  -0.497   1.336  0.00  0.00    +0.012 C 
ATOM     29  C   UNL     1      -0.026  -0.598   2.541  0.00  0.00    +0.012 C 
ATOM     30  C   UNL     1      -1.119  -2.109   0.325  0.00  0.00    +0.027 C 
ATOM     31  C   UNL     1      -1.376  -0.587   0.004  0.00  0.00    +0.080 C 
ENDBRANCH  18  31
ENDBRANCH  17  19
ENDBRANCH   1  17
TORSDOF 6
