REMARK  Name = ZINC01791037
REMARK  10 active torsions:
REMARK  status: ('A' for Active; 'I' for Inactive)
REMARK    1  A    between atoms: C_1  and  C_2
REMARK    2  A    between atoms: C_2  and  C_4
REMARK    3  A    between atoms: C_2  and  S_13
REMARK    4  A    between atoms: N_6  and  C_7
REMARK    5  A    between atoms: S_13  and  C_14
REMARK    6  A    between atoms: C_26  and  C_29
REMARK    7  A    between atoms: C_29  and  C_30
REMARK    8  A    between atoms: C_29  and  C_31
REMARK    9  A    between atoms: N_34  and  C_35
REMARK   10  A    between atoms: C_35  and  C_36
REMARK                            x       y       z     vdW  Elec       q    Type
REMARK                         _______ _______ _______ _____ _____    ______ ____
ROOT
ATOM      1  C   UNL     1      -2.365  -0.107  -1.526  0.00  0.00    +0.199 A 
ATOM      2  N   UNL     1      -1.728   0.575  -2.446  0.00  0.00    -0.120 NA
ATOM      3  N   UNL     1      -2.606   0.791  -3.514  0.00  0.00    -0.109 NA
ATOM      4  C   UNL     1      -3.756   0.234  -3.215  0.00  0.00    +0.241 A 
ATOM      5  N   UNL     1      -3.637  -0.343  -1.978  0.00  0.00    -0.249 N 
ATOM      6  C   UNL     1      -4.705  -1.010  -1.415  0.00  0.00    +0.102 A 
ATOM      7  C   UNL     1      -5.925  -1.123  -2.075  0.00  0.00    +0.074 A 
ATOM      8  C   UNL     1      -6.961  -1.859  -1.354  0.00  0.00    -0.018 A 
ATOM      9  C   UNL     1      -6.590  -2.328  -0.144  0.00  0.00    +0.021 A 
ATOM     10  S   UNL     1      -4.911  -1.811   0.039  0.00  0.00    -0.072 S 
ATOM     11  C   UNL     1      -7.452  -3.110   0.798  0.00  0.00    +0.203 C 
ATOM     12  O   UNL     1      -8.811  -2.995   0.345  0.00  0.00    -0.371 OA
ATOM     13  C   UNL     1      -8.976  -3.253  -1.051  0.00  0.00    +0.126 C 
ATOM     14  C   UNL     1      -8.369  -2.112  -1.875  0.00  0.00    +0.068 C 
ATOM     15  C   UNL     1      -6.014  -0.489  -3.410  0.00  0.00    +0.264 A 
ATOM     16  O   UNL     1      -7.051  -0.547  -4.046  0.00  0.00    -0.267 OA
ATOM     17  N   UNL     1      -4.949   0.156  -3.914  0.00  0.00    -0.272 N 
ENDROOT
BRANCH  13  18
ATOM     18  C   UNL     1     -10.468  -3.368  -1.373  0.00  0.00    +0.012 C 
ATOM     19  C   UNL     1     -11.077  -4.516  -0.565  0.00  0.00    +0.010 C 
ATOM     20  C   UNL     1     -11.170  -2.059  -1.007  0.00  0.00    +0.010 C 
ENDBRANCH  13  18
BRANCH   1  21
ATOM     21  S   UNL     1      -1.700  -0.636   0.018  0.00  0.00    -0.073 S 
BRANCH  21  23
ATOM     22  C   UNL     1      -0.017   1.520  -0.003  0.00  0.00    +0.029 C 
ATOM     23  C   UNL     1       0.002  -0.010  -0.001  0.00  0.00    +0.137 C 
BRANCH  23  24
ATOM     24  C   UNL     1       0.731  -0.502   1.223  0.00  0.00    +0.230 C 
ATOM     25  O   UNL     1       0.105  -0.882   2.190  0.00  0.00    -0.274 OA
ATOM     26  N   UNL     1       2.079  -0.519   1.244  0.00  0.00    -0.285 N 
ATOM     27  H   UNL     1       2.579  -0.279   0.448  0.00  0.00    +0.155 HD
BRANCH  26  28
ATOM     28  C   UNL     1       2.756  -0.883   2.413  0.00  0.00    +0.033 A 
ATOM     29  C   UNL     1       3.955  -0.266   2.743  0.00  0.00    +0.023 A 
ATOM     30  C   UNL     1       4.622  -0.627   3.897  0.00  0.00    +0.002 A 
ATOM     31  C   UNL     1       4.095  -1.602   4.725  0.00  0.00    +0.000 A 
ATOM     32  C   UNL     1       2.901  -2.219   4.399  0.00  0.00    +0.002 A 
ATOM     33  C   UNL     1       2.227  -1.857   3.249  0.00  0.00    +0.023 A 
ENDBRANCH  26  28
ENDBRANCH  23  24
ENDBRANCH  21  23
ENDBRANCH   1  21
BRANCH  17  34
ATOM     34  C   UNL     1      -5.047   0.778  -5.237  0.00  0.00    +0.163 C 
BRANCH  34  35
ATOM     35  C   UNL     1      -4.649  -0.221  -6.292  0.00  0.00    -0.028 A 
ATOM     36  C   UNL     1      -3.328  -0.321  -6.686  0.00  0.00    +0.005 A 
ATOM     37  C   UNL     1      -2.963  -1.238  -7.654  0.00  0.00    +0.000 A 
ATOM     38  C   UNL     1      -3.919  -2.055  -8.228  0.00  0.00    +0.000 A 
ATOM     39  C   UNL     1      -5.240  -1.956  -7.833  0.00  0.00    +0.000 A 
ATOM     40  C   UNL     1      -5.604  -1.042  -6.862  0.00  0.00    +0.005 A 
ENDBRANCH  34  35
ENDBRANCH  17  34
TORSDOF 7
