REMARK  Name = ZINC45046616
REMARK  4 active torsions:
REMARK  status: ('A' for Active; 'I' for Inactive)
REMARK    1  A    between atoms: C_1  and  C_2
REMARK    2  A    between atoms: C_2  and  N_8
REMARK    3  A    between atoms: C_9  and  C_13
REMARK    4  A    between atoms: C_15  and  N_21
REMARK                            x       y       z     vdW  Elec       q    Type
REMARK                         _______ _______ _______ _____ _____    ______ ____
ROOT
ATOM      1  N   UNL     1      -1.332  -0.663   0.052  0.00  0.00    -0.219 N 
ATOM      2  C   UNL     1      -2.385  -0.371  -0.751  0.00  0.00    +0.185 A 
ATOM      3  N   UNL     1      -3.464  -0.833  -0.156  0.00  0.00    -0.108 NA
ATOM      4  N   UNL     1      -3.158  -1.392   0.959  0.00  0.00    -0.023 NA
ATOM      5  N   UNL     1      -1.885  -1.336   1.155  0.00  0.00    -0.043 NA
ENDROOT
BRANCH   2   6
ATOM      6  C   UNL     1      -2.331   0.335  -2.050  0.00  0.00    +0.058 A 
ATOM      7  C   UNL     1      -1.120   0.843  -2.521  0.00  0.00    +0.040 A 
ATOM      8  C   UNL     1      -1.075   1.502  -3.738  0.00  0.00    +0.061 A 
ATOM      9  C   UNL     1      -2.238   1.657  -4.489  0.00  0.00    +0.147 A 
ATOM     10  C   UNL     1      -3.439   1.155  -4.023  0.00  0.00    +0.079 A 
ATOM     11  C   UNL     1      -3.492   0.490  -2.812  0.00  0.00    +0.137 A 
ATOM     12  F   UNL     1      -4.666  -0.006  -2.363  0.00  0.00    -0.205 F 
ATOM     13  F   UNL     1      -2.192   2.302  -5.675  0.00  0.00    -0.203 F 
BRANCH   8  14
ATOM     14  N   UNL     1       0.138   2.013  -4.213  0.00  0.00    -0.356 N 
ATOM     15  H   UNL     1       0.948   1.905  -3.689  0.00  0.00    +0.142 HD
ATOM     16  H   UNL     1       0.169   2.475  -5.065  0.00  0.00    +0.142 HD
ENDBRANCH   8  14
ENDBRANCH   2   6
BRANCH   1  18
ATOM     17  C   UNL     1       0.262   1.166  -0.256  0.00  0.00    +0.036 C 
ATOM     18  C   UNL     1       0.080  -0.352  -0.184  0.00  0.00    +0.065 C 
ATOM     19  C   UNL     1       0.529  -0.983  -1.503  0.00  0.00    +0.030 C 
ATOM     20  C   UNL     1       0.347  -2.500  -1.431  0.00  0.00    +0.002 C 
ATOM     21  C   UNL     1       1.191  -3.061  -0.285  0.00  0.00    +0.000 C 
ATOM     22  C   UNL     1       0.742  -2.430   1.035  0.00  0.00    +0.002 C 
ATOM     23  C   UNL     1       0.924  -0.913   0.963  0.00  0.00    +0.030 C 
ENDBRANCH   1  18
TORSDOF 3
