REMARK  Name = ZINC50306121
REMARK  5 active torsions:
REMARK  status: ('A' for Active; 'I' for Inactive)
REMARK    1  A    between atoms: C_1  and  C_2
REMARK    2  A    between atoms: C_2  and  C_3
REMARK    3  A    between atoms: C_13  and  C_15
REMARK    4  A    between atoms: C_16  and  N_22
REMARK    5  A    between atoms: C_17  and  C_21
REMARK                            x       y       z     vdW  Elec       q    Type
REMARK                         _______ _______ _______ _____ _____    ______ ____
ROOT
ATOM      1  C   UNL     1       0.993  -0.781  -1.556  0.00  0.00    +0.107 C 
ATOM      2  C   UNL     1       1.157  -2.283  -1.784  0.00  0.00    -0.017 A 
ATOM      3  C   UNL     1       2.154  -3.043  -1.174  0.00  0.00    +0.013 A 
ATOM      4  C   UNL     1       2.237  -4.371  -1.419  0.00  0.00    +0.046 A 
ATOM      5  S   UNL     1       0.880  -4.622  -2.553  0.00  0.00    -0.101 S 
ATOM      6  C   UNL     1       0.308  -2.944  -2.616  0.00  0.00    -0.004 A 
ATOM      7  C   UNL     1      -0.834  -2.382  -3.400  0.00  0.00    +0.062 C 
ATOM      8  C   UNL     1      -1.185  -0.998  -2.833  0.00  0.00    +0.114 C 
ATOM      9  N   UNL     1       0.068  -0.270  -2.577  0.00  0.00    -0.289 N 
ATOM     10  C   UNL     1       0.363   0.848  -3.268  0.00  0.00    +0.269 C 
ATOM     11  O   UNL     1      -0.354   1.206  -4.182  0.00  0.00    -0.268 OA
ENDROOT
BRANCH  10  12
ATOM     12  C   UNL     1       1.558   1.639  -2.916  0.00  0.00    +0.168 A 
ATOM     13  C   UNL     1       2.062   2.763  -3.619  0.00  0.00    +0.078 A 
ATOM     14  C   UNL     1       3.166   3.156  -2.930  0.00  0.00    +0.054 A 
ATOM     15  N   UNL     1       3.301   2.306  -1.878  0.00  0.00    -0.279 N 
ATOM     16  H   UNL     1       4.008   2.352  -1.215  0.00  0.00    +0.189 HD
ATOM     17  N   UNL     1       2.356   1.437  -1.885  0.00  0.00    -0.167 NA
ATOM     18  C   UNL     1       4.068   4.314  -3.268  0.00  0.00    +0.067 C 
BRANCH  13  19
ATOM     19  N   UNL     1       1.533   3.347  -4.780  0.00  0.00    -0.355 N 
ATOM     20  H   UNL     1       0.734   2.978  -5.187  0.00  0.00    +0.142 HD
ATOM     21  H   UNL     1       1.966   4.119  -5.175  0.00  0.00    +0.142 HD
ENDBRANCH  13  19
ENDBRANCH  10  12
BRANCH   1  23
ATOM     22  C   UNL     1       0.353   0.977   0.099  0.00  0.00    +0.006 C 
ATOM     23  C   UNL     1       0.417  -0.529  -0.162  0.00  0.00    +0.024 C 
ENDBRANCH   1  23
TORSDOF 3
