REMARK  Name = ZINC40375555
REMARK  3 active torsions:
REMARK  status: ('A' for Active; 'I' for Inactive)
REMARK    1  A    between atoms: C_5  and  C_9
REMARK    2  A    between atoms: C_5  and  N_13
REMARK    3  A    between atoms: N_10  and  O_11
REMARK                            x       y       z     vdW  Elec       q    Type
REMARK                         _______ _______ _______ _____ _____    ______ ____
ROOT
ATOM      1  C   UNL     1      -0.169   1.278  -0.020  0.00  0.00    +0.000 C 
ATOM      2  C   UNL     1       1.226   1.934   0.020  0.00  0.00    +0.000 C 
ATOM      3  C   UNL     1       1.891   1.822  -1.360  0.00  0.00    +0.002 C 
ATOM      4  C   UNL     1       2.364   0.397  -1.639  0.00  0.00    +0.033 C 
ATOM      5  C   UNL     1       3.134  -0.266  -0.495  0.00  0.00    +0.094 C 
ATOM      6  C   UNL     1       2.224  -1.336   0.118  0.00  0.00    +0.033 C 
ATOM      7  C   UNL     1       1.061  -0.707   0.909  0.00  0.00    +0.002 C 
ATOM      8  C   UNL     1      -0.023  -0.251  -0.071  0.00  0.00    +0.000 C 
ENDROOT
BRANCH   5   9
ATOM      9  N   UNL     1       3.699   0.643   0.473  0.00  0.00    -0.287 N 
ATOM     10  C   UNL     1       4.544   1.613   0.072  0.00  0.00    +0.298 C 
ATOM     11  O   UNL     1       4.910   1.661  -1.087  0.00  0.00    -0.253 OA
ATOM     12  N   UNL     1       4.984   2.532   0.955  0.00  0.00    -0.313 N 
ATOM     13  H   UNL     1       3.470   0.556   1.411  0.00  0.00    +0.151 HD
ATOM     14  H   UNL     1       4.692   2.494   1.879  0.00  0.00    +0.146 HD
ATOM     15  H   UNL     1       5.592   3.230   0.667  0.00  0.00    +0.146 HD
ENDBRANCH   5   9
BRANCH   5  16
ATOM     16  C   UNL     1       4.300  -1.015  -1.140  0.00  0.00    +0.155 C 
ATOM     17  N   UNL     1       4.395  -1.078  -2.427  0.00  0.00    -0.075 NA
ATOM     18  N   UNL     1       5.250  -1.623  -0.349  0.00  0.00    -0.342 N 
ATOM     19  H   UNL     1       5.140  -1.640   0.615  0.00  0.00    +0.144 HD
ATOM     20  H   UNL     1       6.028  -2.036  -0.756  0.00  0.00    +0.144 HD
BRANCH  17  21
ATOM     21  O   UNL     1       5.476  -1.771  -3.024  0.00  0.00    -0.408 OA
ATOM     22  H   UNL     1       5.462  -1.763  -3.991  0.00  0.00    +0.328 HD
ENDBRANCH  17  21
ENDBRANCH   5  16
TORSDOF 3
