REMARK  Name = ZINC58911520
REMARK  9 active torsions:
REMARK  status: ('A' for Active; 'I' for Inactive)
REMARK    1  A    between atoms: C_1  and  C_2
REMARK    2  A    between atoms: C_5  and  N_9
REMARK    3  A    between atoms: C_7  and  C_8
REMARK    4  A    between atoms: C_10  and  C_28
REMARK    5  A    between atoms: C_12  and  C_15
REMARK    6  A    between atoms: C_13  and  C_14
REMARK    7  A    between atoms: N_16  and  N_17
REMARK    8  A    between atoms: C_18  and  C_20
REMARK    9  A    between atoms: N_22  and  C_23
REMARK                            x       y       z     vdW  Elec       q    Type
REMARK                         _______ _______ _______ _____ _____    ______ ____
ROOT
ATOM      1  N   UNL     1       0.057  -4.172  -0.021  0.00  0.00    -0.317 N 
ATOM      2  C   UNL     1      -0.947  -4.971   0.448  0.00  0.00    +0.022 A 
ATOM      3  C   UNL     1      -0.593  -6.258   0.282  0.00  0.00    +0.032 A 
ATOM      4  C   UNL     1       0.736  -6.250  -0.338  0.00  0.00    +0.016 A 
ATOM      5  C   UNL     1       1.074  -4.936  -0.501  0.00  0.00    +0.030 A 
ATOM      6  C   UNL     1       2.356  -4.422  -1.106  0.00  0.00    +0.064 C 
ATOM      7  C   UNL     1      -2.240  -4.489   1.052  0.00  0.00    +0.064 C 
ENDROOT
BRANCH   1  12
ATOM      8  C   UNL     1      -0.018   1.503   0.010  0.00  0.00    +0.044 C 
ATOM      9  C   UNL     1       0.002  -0.004   0.002  0.00  0.00    -0.047 A 
ATOM     10  C   UNL     1       0.006  -0.688  -1.200  0.00  0.00    +0.005 A 
ATOM     11  C   UNL     1       0.024  -2.068  -1.211  0.00  0.00    +0.026 A 
ATOM     12  C   UNL     1       0.039  -2.771  -0.013  0.00  0.00    +0.047 A 
ATOM     13  C   UNL     1       0.036  -2.082   1.192  0.00  0.00    +0.029 A 
ATOM     14  C   UNL     1       0.023  -0.700   1.196  0.00  0.00    -0.046 A 
ATOM     15  C   UNL     1       0.025   0.048   2.504  0.00  0.00    +0.044 C 
ENDBRANCH   1  12
BRANCH   4  16
ATOM     16  C   UNL     1       1.543  -7.423  -0.714  0.00  0.00    +0.140 C 
ATOM     17  N   UNL     1       2.712  -7.261  -1.259  0.00  0.00    -0.187 NA
BRANCH  17  18
ATOM     18  N   UNL     1       3.479  -8.377  -1.617  0.00  0.00    -0.199 N 
ATOM     19  C   UNL     1       4.691  -8.209  -2.182  0.00  0.00    +0.318 C 
ATOM     20  O   UNL     1       5.118  -7.089  -2.381  0.00  0.00    -0.263 OA
ATOM     21  H   UNL     1       3.138  -9.271  -1.458  0.00  0.00    +0.178 HD
BRANCH  19  22
ATOM     22  C   UNL     1       5.508  -9.397  -2.563  0.00  0.00    +0.301 C 
ATOM     23  O   UNL     1       5.081 -10.516  -2.365  0.00  0.00    -0.265 OA
ATOM     24  N   UNL     1       6.720  -9.228  -3.128  0.00  0.00    -0.305 N 
ATOM     25  H   UNL     1       7.061  -8.334  -3.287  0.00  0.00    +0.149 HD
BRANCH  24  26
ATOM     26  C   UNL     1       7.522 -10.396  -3.502  0.00  0.00    +0.073 C 
ATOM     27  C   UNL     1       8.384 -10.850  -2.306  0.00  0.00    +0.022 C 
ATOM     28  C   UNL     1       9.718 -11.302  -2.950  0.00  0.00    +0.002 C 
ATOM     29  C   UNL     1       9.920 -10.265  -4.082  0.00  0.00    +0.002 C 
ATOM     30  C   UNL     1       8.499 -10.024  -4.632  0.00  0.00    +0.022 C 
ENDBRANCH  24  26
ENDBRANCH  19  22
ENDBRANCH  17  18
ENDBRANCH   4  16
TORSDOF 5
