REMARK  Name = ZINC12637649
REMARK  7 active torsions:
REMARK  status: ('A' for Active; 'I' for Inactive)
REMARK    1  A    between atoms: C_3  and  O_37
REMARK    2  A    between atoms: C_6  and  C_7
REMARK    3  A    between atoms: C_7  and  C_9
REMARK    4  A    between atoms: C_7  and  N_17
REMARK    5  A    between atoms: N_11  and  C_12
REMARK    6  A    between atoms: N_17  and  C_18
REMARK    7  A    between atoms: C_25  and  C_27
REMARK                            x       y       z     vdW  Elec       q    Type
REMARK                         _______ _______ _______ _____ _____    ______ ____
ROOT
ATOM      1  N   UNL     1       4.706  -1.607  -0.572  0.00  0.00    -0.251 N 
ATOM      2  C   UNL     1       5.128  -0.328  -0.538  0.00  0.00    +0.252 C 
ATOM      3  O   UNL     1       4.435   0.554  -1.007  0.00  0.00    -0.270 OA
ENDROOT
BRANCH   2   4
ATOM      4  C   UNL     1       6.433   0.003   0.068  0.00  0.00    +0.041 A 
ATOM      5  C   UNL     1       6.756  -0.478   1.339  0.00  0.00    +0.017 A 
ATOM      6  C   UNL     1       7.974  -0.168   1.902  0.00  0.00    +0.050 A 
ATOM      7  C   UNL     1       8.884   0.624   1.211  0.00  0.00    +0.162 A 
ATOM      8  C   UNL     1       8.569   1.105  -0.057  0.00  0.00    +0.163 A 
ATOM      9  C   UNL     1       7.347   0.797  -0.628  0.00  0.00    +0.062 A 
ATOM     10  O   UNL     1       9.453   1.874  -0.750  0.00  0.00    -0.485 OA
ATOM     11  C   UNL     1      10.514   2.471   0.003  0.00  0.00    +0.270 C 
ATOM     12  C   UNL     1      11.113   1.399   0.923  0.00  0.00    +0.270 C 
ATOM     13  O   UNL     1      10.077   0.925   1.791  0.00  0.00    -0.485 OA
ENDBRANCH   2   4
BRANCH   1  14
ATOM     14  C   UNL     1       3.524  -1.936  -1.246  0.00  0.00    +0.038 A 
ATOM     15  C   UNL     1       3.580  -2.465  -2.529  0.00  0.00    +0.025 A 
ATOM     16  C   UNL     1       2.412  -2.795  -3.189  0.00  0.00    +0.022 A 
ATOM     17  C   UNL     1       1.188  -2.587  -2.579  0.00  0.00    +0.041 A 
ATOM     18  C   UNL     1       1.130  -2.054  -1.303  0.00  0.00    +0.022 A 
ATOM     19  C   UNL     1       2.294  -1.729  -0.635  0.00  0.00    +0.025 A 
ATOM     20 CL   UNL     1      -0.278  -2.996  -3.414  0.00  0.00    -0.084 Cl
ENDBRANCH   1  14
BRANCH   1  21
ATOM     21  C   UNL     1       5.483  -2.653   0.096  0.00  0.00    +0.197 C 
BRANCH  21  27
ATOM     22  C   UNL     1       5.207  -4.658  -1.376  0.00  0.00    +0.009 A 
ATOM     23  C   UNL     1       5.684  -5.545  -2.322  0.00  0.00    +0.046 A 
ATOM     24  C   UNL     1       6.972  -5.403  -2.817  0.00  0.00    +0.117 A 
ATOM     25  C   UNL     1       7.776  -4.367  -2.364  0.00  0.00    +0.046 A 
ATOM     26  C   UNL     1       7.293  -3.479  -1.423  0.00  0.00    +0.009 A 
ATOM     27  C   UNL     1       6.008  -3.623  -0.931  0.00  0.00    -0.018 A 
BRANCH  24  28
ATOM     28  O   UNL     1       7.446  -6.278  -3.742  0.00  0.00    -0.507 OA
ATOM     29  H   UNL     1       7.888  -7.050  -3.364  0.00  0.00    +0.292 HD
ENDBRANCH  24  28
ENDBRANCH  21  27
BRANCH  21  30
ATOM     30  C   UNL     1       4.602  -3.386   1.075  0.00  0.00    +0.239 C 
ATOM     31  O   UNL     1       3.439  -3.067   1.201  0.00  0.00    -0.273 OA
ATOM     32  N   UNL     1       5.106  -4.398   1.809  0.00  0.00    -0.311 N 
ATOM     33  H   UNL     1       6.037  -4.654   1.708  0.00  0.00    +0.149 HD
BRANCH  32  34
ATOM     34  C   UNL     1       4.250  -5.110   2.760  0.00  0.00    +0.073 C 
ATOM     35  C   UNL     1       4.270  -4.396   4.128  0.00  0.00    +0.022 C 
ATOM     36  C   UNL     1       4.230  -5.550   5.160  0.00  0.00    +0.002 C 
ATOM     37  C   UNL     1       5.125  -6.629   4.501  0.00  0.00    +0.002 C 
ATOM     38  C   UNL     1       4.794  -6.530   2.998  0.00  0.00    +0.022 C 
ENDBRANCH  32  34
ENDBRANCH  21  30
ENDBRANCH   1  21
TORSDOF 7
