REMARK  Name = ZINC20759408
REMARK  9 active torsions:
REMARK  status: ('A' for Active; 'I' for Inactive)
REMARK    1  A    between atoms: C_1  and  C_2
REMARK    2  A    between atoms: C_2  and  N_3
REMARK    3  A    between atoms: C_10  and  N_14
REMARK    4  A    between atoms: C_15  and  C_17
REMARK    5  A    between atoms: N_19  and  C_20
REMARK    6  A    between atoms: C_20  and  C_21
REMARK    7  A    between atoms: C_21  and  C_22
REMARK    8  A    between atoms: C_29  and  O_32
REMARK    9  A    between atoms: O_32  and  C_33
REMARK                            x       y       z     vdW  Elec       q    Type
REMARK                         _______ _______ _______ _____ _____    ______ ____
ROOT
ATOM      1  C   UNL     1      -5.335   5.090  -2.341  0.00  0.00    +0.299 C 
ATOM      2  O   UNL     1      -4.872   4.605  -3.352  0.00  0.00    -0.265 OA
ATOM      3  N   UNL     1      -6.618   5.502  -2.317  0.00  0.00    -0.307 N 
ATOM      4  H   UNL     1      -7.037   5.942  -1.401  0.00  0.00    +0.149 HD
ENDROOT
BRANCH   1   6
ATOM      5  N   UNL     1      -3.199   4.819  -1.145  0.00  0.00    -0.292 N 
ATOM      6  C   UNL     1      -4.482   5.231  -1.121  0.00  0.00    +0.300 C 
ATOM      7  O   UNL     1      -4.945   5.717  -0.110  0.00  0.00    -0.265 OA
ATOM      8  H   UNL     1      -2.780   4.379  -2.061  0.00  0.00    +0.150 HD
BRANCH   5  16
ATOM      9  N   UNL     1      -0.330   6.034   0.036  0.00  0.00    -0.270 N 
ATOM     10  C   UNL     1      -0.059   4.665   0.027  0.00  0.00    +0.042 A 
ATOM     11  C   UNL     1       1.152   3.976   0.012  0.00  0.00    +0.025 A 
ATOM     12  C   UNL     1       1.164   2.597   0.005  0.00  0.00    +0.017 A 
ATOM     13  C   UNL     1      -0.024   1.887   0.012  0.00  0.00    +0.018 A 
ATOM     14  C   UNL     1      -1.231   2.565   0.022  0.00  0.00    +0.023 A 
ATOM     15  C   UNL     1      -1.245   3.941   0.035  0.00  0.00    +0.004 A 
ATOM     16  C   UNL     1      -2.364   4.958   0.051  0.00  0.00    +0.192 C 
ATOM     17  C   UNL     1      -1.649   6.292   0.050  0.00  0.00    +0.245 C 
ATOM     18  O   UNL     1      -2.169   7.388   0.060  0.00  0.00    -0.273 OA
ATOM     19 BR   UNL     1       0.002  -0.004   0.002  0.00  0.00    -0.050 Br
BRANCH   9  21
ATOM     20  C   UNL     1       1.052   7.439  -1.412  0.00  0.00    +0.025 C 
ATOM     21  C   UNL     1       0.705   7.071   0.032  0.00  0.00    +0.110 C 
ENDBRANCH   9  21
ENDBRANCH   5  16
ENDBRANCH   1   6
BRANCH   3  22
ATOM     22  C   UNL     1      -7.454   5.364  -3.512  0.00  0.00    +0.109 C 
BRANCH  22  23
ATOM     23  C   UNL     1      -8.855   5.904  -3.220  0.00  0.00    +0.056 C 
BRANCH  23  24
ATOM     24  C   UNL     1      -9.715   5.761  -4.450  0.00  0.00    -0.021 A 
ATOM     25  C   UNL     1      -9.934   6.701  -5.383  0.00  0.00    +0.087 A 
ATOM     26  N   UNL     1     -10.767   6.211  -6.351  0.00  0.00    -0.360 N 
ATOM     27  H   UNL     1     -11.057   6.847  -7.201  0.00  0.00    +0.165 HD
ATOM     28  C   UNL     1     -11.113   4.909  -6.057  0.00  0.00    +0.047 A 
ATOM     29  C   UNL     1     -10.463   4.570  -4.856  0.00  0.00    +0.006 A 
ATOM     30  C   UNL     1     -10.626   3.295  -4.311  0.00  0.00    +0.056 A 
ATOM     31  C   UNL     1     -11.423   2.372  -4.959  0.00  0.00    +0.121 A 
ATOM     32  C   UNL     1     -12.062   2.710  -6.149  0.00  0.00    +0.047 A 
ATOM     33  C   UNL     1     -11.914   3.966  -6.692  0.00  0.00    +0.030 A 
BRANCH  31  34
ATOM     34  O   UNL     1     -11.585   1.129  -4.432  0.00  0.00    -0.495 OA
ATOM     35  C   UNL     1     -12.423   0.223  -5.153  0.00  0.00    +0.277 C 
ENDBRANCH  31  34
ENDBRANCH  23  24
ENDBRANCH  22  23
ENDBRANCH   3  22
TORSDOF 7
