REMARK  Name = ZINC36704290
REMARK  11 active torsions:
REMARK  status: ('A' for Active; 'I' for Inactive)
REMARK    1  A    between atoms: C_1  and  C_2
REMARK    2  A    between atoms: C_4  and  C_34
REMARK    3  A    between atoms: N_11  and  C_12
REMARK    4  A    between atoms: C_12  and  C_13
REMARK    5  A    between atoms: C_13  and  C_14
REMARK    6  A    between atoms: C_14  and  N_15
REMARK    7  A    between atoms: N_15  and  C_16
REMARK    8  A    between atoms: N_15  and  C_17
REMARK    9  A    between atoms: C_18  and  C_20
REMARK   10  A    between atoms: N_23  and  S_26
REMARK   11  A    between atoms: S_26  and  C_29
REMARK                            x       y       z     vdW  Elec       q    Type
REMARK                         _______ _______ _______ _____ _____    ______ ____
ROOT
ATOM      1  C   UNL     1       2.459   1.167   0.159  0.00  0.00    +0.044 C 
ATOM      2  C   UNL     1       1.953  -0.252   0.128  0.00  0.00    -0.048 A 
ATOM      3  C   UNL     1       1.621  -0.826  -1.090  0.00  0.00    +0.008 A 
ATOM      4  C   UNL     1       1.156  -2.128  -1.121  0.00  0.00    -0.034 A 
ATOM      5  C   UNL     1       1.032  -2.831   0.052  0.00  0.00    +0.044 A 
ATOM      6  C   UNL     1       1.361  -2.279   1.310  0.00  0.00    +0.081 A 
ATOM      7  C   UNL     1       1.837  -0.948   1.303  0.00  0.00    +0.032 A 
ATOM      8  N   UNL     1       1.184  -3.095   2.372  0.00  0.00    -0.224 NA
ATOM      9  C   UNL     1       0.737  -4.324   2.250  0.00  0.00    +0.168 A 
ATOM     10  S   UNL     1       0.498  -4.469   0.485  0.00  0.00    -0.052 S 
ATOM     11  N   UNL     1       0.508  -5.267   3.239  0.00  0.00    -0.250 N 
ATOM     12  C   UNL     1       0.175  -6.529   2.902  0.00  0.00    +0.224 C 
ATOM     13  O   UNL     1      -0.129  -7.326   3.764  0.00  0.00    -0.275 OA
ATOM     14  C   UNL     1       0.789  -2.772  -2.433  0.00  0.00    +0.045 C 
ENDROOT
BRANCH  12  15
ATOM     15  C   UNL     1       0.180  -6.949   1.455  0.00  0.00    +0.078 C 
ATOM     16  C   UNL     1      -1.171  -6.609   0.821  0.00  0.00    +0.030 C 
ATOM     17  C   UNL     1      -1.150  -7.006  -0.659  0.00  0.00    +0.110 C 
ATOM     18  N   UNL     1      -0.773  -8.422  -0.763  0.00  0.00    -0.176 NA
ATOM     19  C   UNL     1       0.463  -8.874  -0.111  0.00  0.00    +0.110 C 
ATOM     20  C   UNL     1       0.424  -8.457   1.362  0.00  0.00    +0.030 C 
BRANCH  18  21
ATOM     21  S   UNL     1      -1.724  -9.488  -1.600  0.00  0.00    +0.067 S 
ATOM     22  O   UNL     1      -1.446 -10.779  -1.076  0.00  0.00    -0.152 OA
ATOM     23  O   UNL     1      -3.035  -8.939  -1.615  0.00  0.00    -0.152 OA
BRANCH  21  24
ATOM     24  C   UNL     1      -1.160  -9.490  -3.270  0.00  0.00    +0.143 A 
ATOM     25  C   UNL     1      -0.219 -10.273  -3.852  0.00  0.00    +0.036 A 
ATOM     26  C   UNL     1       0.064 -10.096  -5.193  0.00  0.00    +0.010 A 
ATOM     27  C   UNL     1      -0.609  -9.146  -5.887  0.00  0.00    +0.047 A 
ATOM     28  S   UNL     1      -1.686  -8.467  -4.635  0.00  0.00    -0.077 S 
ENDBRANCH  21  24
ENDBRANCH  18  21
ENDBRANCH  12  15
BRANCH  11  29
ATOM     29  C   UNL     1       0.628  -4.893   4.650  0.00  0.00    +0.114 C 
BRANCH  29  30
ATOM     30  C   UNL     1      -0.700  -4.310   5.138  0.00  0.00    +0.001 C 
BRANCH  30  31
ATOM     31  C   UNL     1      -0.575  -3.920   6.612  0.00  0.00    -0.078 C 
BRANCH  31  32
ATOM     32  N   UNL     1      -1.850  -3.361   7.080  0.00  0.00    +0.376 N 
ATOM     33  C   UNL     1      -1.768  -3.096   8.523  0.00  0.00    -0.097 C 
ATOM     34  C   UNL     1      -2.126  -2.106   6.368  0.00  0.00    -0.097 C 
ATOM     35  H   UNL     1      -2.592  -4.020   6.901  0.00  0.00    -0.083 HD
ENDBRANCH  31  32
ENDBRANCH  30  31
ENDBRANCH  29  30
ENDBRANCH  11  29
TORSDOF 7
