REMARK  Name = ZINC08669981
REMARK  12 active torsions:
REMARK  status: ('A' for Active; 'I' for Inactive)
REMARK    1  A    between atoms: C_1  and  C_2
REMARK    2  A    between atoms: C_4  and  C_36
REMARK    3  A    between atoms: C_5  and  N_9
REMARK    4  A    between atoms: C_6  and  C_8
REMARK    5  A    between atoms: C_10  and  C_12
REMARK    6  A    between atoms: C_12  and  C_14
REMARK    7  A    between atoms: C_12  and  O_15
REMARK    8  A    between atoms: O_15  and  C_16
REMARK    9  A    between atoms: C_16  and  C_18
REMARK   10  A    between atoms: C_18  and  C_19
REMARK   11  A    between atoms: C_19  and  C_20
REMARK   12  A    between atoms: C_20  and  N_21
REMARK                            x       y       z     vdW  Elec       q    Type
REMARK                         _______ _______ _______ _____ _____    ______ ____
ROOT
ATOM      1  C   UNL     1       1.369   0.967   1.753  0.00  0.00    +0.308 C 
ATOM      2  O   UNL     1       2.182   0.518   0.980  0.00  0.00    -0.251 OA
ENDROOT
BRANCH   1   3
ATOM      3  O   UNL     1       0.085   1.088   1.383  0.00  0.00    -0.452 OA
BRANCH   3   4
ATOM      4  C   UNL     1      -0.256   0.659   0.038  0.00  0.00    +0.259 C 
ATOM      5  C   UNL     1      -0.109   1.838  -0.926  0.00  0.00    +0.062 C 
BRANCH   4   7
ATOM      6  N   UNL     1      -2.186  -0.379  -1.110  0.00  0.00    -0.282 N 
ATOM      7  C   UNL     1      -1.680   0.165   0.014  0.00  0.00    +0.258 C 
ATOM      8  O   UNL     1      -2.371   0.258   1.007  0.00  0.00    -0.271 OA
ATOM      9  H   UNL     1      -1.651  -0.405  -1.919  0.00  0.00    +0.155 HD
BRANCH   6  14
ATOM     10  C   UNL     1      -7.441  -2.516  -1.112  0.00  0.00    +0.044 C 
ATOM     11  C   UNL     1      -6.045  -1.948  -1.111  0.00  0.00    -0.050 A 
ATOM     12  C   UNL     1      -5.675  -1.028  -2.074  0.00  0.00    +0.008 A 
ATOM     13  C   UNL     1      -4.396  -0.505  -2.077  0.00  0.00    -0.029 A 
ATOM     14  C   UNL     1      -3.482  -0.906  -1.111  0.00  0.00    +0.039 A 
ATOM     15  C   UNL     1      -3.856  -1.835  -0.148  0.00  0.00    -0.029 A 
ATOM     16  C   UNL     1      -5.138  -2.349  -0.148  0.00  0.00    +0.008 A 
ATOM     17  C   UNL     1      -2.865  -2.277   0.898  0.00  0.00    +0.045 C 
ATOM     18  C   UNL     1      -3.993   0.498  -3.126  0.00  0.00    +0.045 C 
ENDBRANCH   6  14
ENDBRANCH   4   7
ENDBRANCH   3   4
ENDBRANCH   1   3
BRANCH   1  19
ATOM     19  C   UNL     1       1.798   1.391   3.134  0.00  0.00    +0.122 C 
BRANCH  19  20
ATOM     20  C   UNL     1       3.300   1.150   3.298  0.00  0.00    +0.031 C 
BRANCH  20  21
ATOM     21  C   UNL     1       3.736   1.581   4.700  0.00  0.00    +0.117 C 
BRANCH  21  22
ATOM     22  N   UNL     1       5.174   1.351   4.857  0.00  0.00    -0.234 N 
ATOM     23  C   UNL     1       5.592   0.163   5.334  0.00  0.00    +0.254 C 
ATOM     24  O   UNL     1       4.777  -0.693   5.625  0.00  0.00    -0.270 OA
ATOM     25  C   UNL     1       7.027  -0.108   5.501  0.00  0.00    +0.046 A 
ATOM     26  C   UNL     1       7.502  -1.318   5.985  0.00  0.00    +0.014 A 
ATOM     27  C   UNL     1       8.868  -1.525   6.130  0.00  0.00    +0.001 A 
ATOM     28  C   UNL     1       9.776  -0.558   5.807  0.00  0.00    +0.008 A 
ATOM     29  C   UNL     1       9.337   0.683   5.313  0.00  0.00    -0.016 A 
ATOM     30  C   UNL     1       7.952   0.905   5.161  0.00  0.00    +0.006 A 
ATOM     31  C   UNL     1       7.479   2.142   4.668  0.00  0.00    +0.046 A 
ATOM     32  C   UNL     1       8.395   3.130   4.338  0.00  0.00    +0.014 A 
ATOM     33  C   UNL     1       9.757   2.899   4.491  0.00  0.00    +0.001 A 
ATOM     34  C   UNL     1      10.232   1.710   4.966  0.00  0.00    +0.008 A 
ATOM     35  C   UNL     1       6.029   2.336   4.524  0.00  0.00    +0.254 C 
ATOM     36  O   UNL     1       5.599   3.393   4.102  0.00  0.00    -0.270 OA
ENDBRANCH  21  22
ENDBRANCH  20  21
ENDBRANCH  19  20
ENDBRANCH   1  19
TORSDOF 8
