REMARK  Name = ZINC02844480
REMARK  10 active torsions:
REMARK  status: ('A' for Active; 'I' for Inactive)
REMARK    1  A    between atoms: C_1  and  C_2
REMARK    2  A    between atoms: C_2  and  C_3
REMARK    3  A    between atoms: C_2  and  O_4
REMARK    4  A    between atoms: O_4  and  C_5
REMARK    5  A    between atoms: C_5  and  C_7
REMARK    6  A    between atoms: C_10  and  C_13
REMARK    7  A    between atoms: C_13  and  O_14
REMARK    8  A    between atoms: O_14  and  C_15
REMARK    9  A    between atoms: C_15  and  C_17
REMARK   10  A    between atoms: C_22  and  O_23
REMARK                            x       y       z     vdW  Elec       q    Type
REMARK                         _______ _______ _______ _____ _____    ______ ____
ROOT
ATOM      1  C   UNL     1      -0.018   1.448   0.010  0.00  0.00    +0.268 C 
ENDROOT
BRANCH   1   5
ATOM      2  C   UNL     1      -2.019   2.828   3.528  0.00  0.00    +0.059 A 
ATOM      3  C   UNL     1      -0.640   2.612   3.545  0.00  0.00    +0.015 A 
ATOM      4  C   UNL     1      -0.000   2.167   2.407  0.00  0.00    +0.008 A 
ATOM      5  C   UNL     1      -0.723   1.934   1.250  0.00  0.00    -0.010 A 
ATOM      6  C   UNL     1      -2.089   2.150   1.225  0.00  0.00    +0.008 A 
ATOM      7  C   UNL     1      -2.742   2.591   2.357  0.00  0.00    +0.015 A 
BRANCH   2   8
ATOM      8  C   UNL     1      -2.711   3.304   4.744  0.00  0.00    +0.339 C 
ATOM      9  O   UNL     1      -2.079   3.509   5.761  0.00  0.00    -0.245 OA
BRANCH   8  10
ATOM     10  O   UNL     1      -4.042   3.511   4.724  0.00  0.00    -0.458 OA
BRANCH  10  12
ATOM     11  C   UNL     1      -4.651   5.509   5.976  0.00  0.00    +0.052 C 
ATOM     12  C   UNL     1      -4.654   3.979   5.954  0.00  0.00    +0.171 C 
ATOM     13  C   UNL     1      -6.095   3.471   6.032  0.00  0.00    +0.052 C 
ENDBRANCH  10  12
ENDBRANCH   8  10
ENDBRANCH   2   8
ENDBRANCH   1   5
BRANCH   1  14
ATOM     14  O   UNL     1       0.002  -0.004   0.002  0.00  0.00    -0.456 OA
BRANCH  14  15
ATOM     15  C   UNL     1       0.601  -0.602  -1.047  0.00  0.00    +0.343 C 
ATOM     16  O   UNL     1       1.093   0.071  -1.930  0.00  0.00    -0.245 OA
BRANCH  15  17
ATOM     17  C   UNL     1       0.659  -2.073  -1.122  0.00  0.00    +0.101 A 
ATOM     18  C   UNL     1       0.099  -2.851  -0.105  0.00  0.00    +0.034 A 
ATOM     19  C   UNL     1       0.153  -4.226  -0.184  0.00  0.00    +0.019 A 
ATOM     20  C   UNL     1       0.769  -4.841  -1.263  0.00  0.00    +0.019 A 
ATOM     21  C   UNL     1       1.329  -4.084  -2.272  0.00  0.00    +0.047 A 
ATOM     22  C   UNL     1       1.280  -2.699  -2.211  0.00  0.00    +0.131 A 
ATOM     23 BR   UNL     1      -0.611  -5.279   1.189  0.00  0.00    -0.050 Br
BRANCH  22  24
ATOM     24  O   UNL     1       1.832  -1.954  -3.202  0.00  0.00    -0.506 OA
ATOM     25  H   UNL     1       2.761  -1.730  -3.054  0.00  0.00    +0.292 HD
ENDBRANCH  22  24
ENDBRANCH  15  17
ENDBRANCH  14  15
ENDBRANCH   1  14
TORSDOF 8
