REMARK  Name = ZINC47881614
REMARK  9 active torsions:
REMARK  status: ('A' for Active; 'I' for Inactive)
REMARK    1  A    between atoms: C_1  and  C_2
REMARK    2  A    between atoms: C_5  and  C_7
REMARK    3  A    between atoms: C_12  and  N_13
REMARK    4  A    between atoms: N_16  and  C_17
REMARK    5  A    between atoms: C_17  and  C_18
REMARK    6  A    between atoms: C_18  and  C_20
REMARK    7  A    between atoms: C_18  and  C_26
REMARK    8  A    between atoms: C_26  and  C_27
REMARK    9  A    between atoms: C_26  and  C_28
REMARK                            x       y       z     vdW  Elec       q    Type
REMARK                         _______ _______ _______ _____ _____    ______ ____
ROOT
ATOM      1  N   UNL     1      -0.027  -4.635  -0.608  0.00  0.00    -0.269 N 
ATOM      2  C   UNL     1       0.126  -5.839  -1.194  0.00  0.00    +0.304 C 
ATOM      3  O   UNL     1       0.168  -6.846  -0.514  0.00  0.00    -0.253 OA
ATOM      4  N   UNL     1       0.233  -5.927  -2.535  0.00  0.00    -0.299 N 
ATOM      5  H   UNL     1      -0.120  -3.838  -1.153  0.00  0.00    +0.156 HD
ATOM      6  H   UNL     1       0.199  -5.123  -3.078  0.00  0.00    +0.150 HD
ENDROOT
BRANCH   1  12
ATOM      7  C   UNL     1       0.511  -3.420   1.421  0.00  0.00    +0.060 A 
ATOM      8  C   UNL     1       0.475  -3.328   2.813  0.00  0.00    +0.015 A 
ATOM      9  C   UNL     1      -0.107  -4.335   3.554  0.00  0.00    +0.001 A 
ATOM     10  C   UNL     1      -0.657  -5.438   2.923  0.00  0.00    +0.002 A 
ATOM     11  C   UNL     1      -0.628  -5.542   1.546  0.00  0.00    +0.024 A 
ATOM     12  C   UNL     1      -0.051  -4.535   0.785  0.00  0.00    +0.047 A 
BRANCH   7  17
ATOM     13  C   UNL     1       2.852   0.795   0.055  0.00  0.00    +0.111 C 
ATOM     14  C   UNL     1       2.139  -0.533   0.029  0.00  0.00    +0.215 A 
ATOM     15  N   UNL     1       1.831  -1.220  -1.034  0.00  0.00    -0.112 NA
ATOM     16  N   UNL     1       1.230  -2.303  -0.688  0.00  0.00    -0.107 NA
ATOM     17  C   UNL     1       1.134  -2.345   0.621  0.00  0.00    +0.250 A 
ATOM     18  O   UNL     1       1.713  -1.226   1.100  0.00  0.00    -0.420 OA
ENDBRANCH   7  17
ENDBRANCH   1  12
BRANCH   4  19
ATOM     19  C   UNL     1       0.399  -7.235  -3.172  0.00  0.00    +0.114 C 
BRANCH  19  20
ATOM     20  C   UNL     1       0.619  -7.046  -4.675  0.00  0.00    +0.039 C 
BRANCH  20  21
ATOM     21  C   UNL     1       1.878  -6.250  -4.901  0.00  0.00    -0.043 A 
ATOM     22  C   UNL     1       3.092  -6.733  -4.449  0.00  0.00    +0.004 A 
ATOM     23  C   UNL     1       4.247  -6.003  -4.657  0.00  0.00    +0.000 A 
ATOM     24  C   UNL     1       4.189  -4.790  -5.318  0.00  0.00    +0.000 A 
ATOM     25  C   UNL     1       2.975  -4.308  -5.771  0.00  0.00    +0.000 A 
ATOM     26  C   UNL     1       1.821  -5.040  -5.567  0.00  0.00    +0.004 A 
ENDBRANCH  20  21
BRANCH  20  27
ATOM     27  C   UNL     1       0.752  -8.414  -5.346  0.00  0.00    -0.008 C 
ATOM     28  C   UNL     1      -0.570  -9.174  -5.223  0.00  0.00    +0.008 C 
ATOM     29  C   UNL     1       1.095  -8.225  -6.825  0.00  0.00    +0.008 C 
ENDBRANCH  20  27
ENDBRANCH  19  20
ENDBRANCH   4  19
TORSDOF 6
