REMARK  Name = ZINC63425954
REMARK  15 active torsions:
REMARK  status: ('A' for Active; 'I' for Inactive)
REMARK    1  A    between atoms: C_1  and  C_2
REMARK    2  A    between atoms: C_6  and  C_40
REMARK    3  A    between atoms: C_7  and  N_8
REMARK    4  A    between atoms: C_9  and  C_11
REMARK    5  A    between atoms: C_11  and  S_12
REMARK    6  A    between atoms: S_12  and  C_13
REMARK    7  A    between atoms: C_17  and  C_20
REMARK    8  A    between atoms: C_20  and  C_22
REMARK    9  A    between atoms: C_20  and  N_32
REMARK   10  A    between atoms: C_22  and  C_23
REMARK   11  A    between atoms: C_33  and  O_35
REMARK   12  A    between atoms: O_35  and  C_36
REMARK   13  A    between atoms: C_36  and  C_37
REMARK   14  A    between atoms: C_36  and  C_38
REMARK   15  A    between atoms: C_36  and  C_39
REMARK                            x       y       z     vdW  Elec       q    Type
REMARK                         _______ _______ _______ _____ _____    ______ ____
ROOT
ATOM      1  C   UNL     1      -1.725   2.379   9.560  0.00  0.00    +0.133 C 
ENDROOT
BRANCH   1   5
ATOM      2  C   UNL     1      -0.726   0.196   7.623  0.00  0.00    +0.319 C 
ATOM      3  N   UNL     1       0.505   0.974   7.811  0.00  0.00    -0.146 NA
ATOM      4  N   UNL     1       0.228   2.150   8.082  0.00  0.00    -0.155 NA
ATOM      5  C   UNL     1      -1.229   2.330   8.114  0.00  0.00    +0.280 C 
ATOM      6  O   UNL     1      -1.770   1.175   7.438  0.00  0.00    -0.316 OA
BRANCH   2   7
ATOM      7  S   UNL     1      -0.585  -0.859   6.154  0.00  0.00    -0.095 S 
BRANCH   7   8
ATOM      8  C   UNL     1      -0.231   0.305   4.809  0.00  0.00    +0.169 C 
BRANCH   8  10
ATOM      9  N   UNL     1       0.177   0.212   2.371  0.00  0.00    -0.284 N 
ATOM     10  C   UNL     1      -0.089  -0.451   3.514  0.00  0.00    +0.227 C 
ATOM     11  O   UNL     1      -0.213  -1.658   3.499  0.00  0.00    -0.275 OA
ATOM     12  H   UNL     1       0.322   1.171   2.390  0.00  0.00    +0.155 HD
BRANCH   9  19
ATOM     13  C   UNL     1       2.361   0.758   0.630  0.00  0.00    +0.045 C 
ATOM     14  C   UNL     1       1.294  -0.246   0.279  0.00  0.00    -0.029 A 
ATOM     15  C   UNL     1       1.360  -0.938  -0.915  0.00  0.00    +0.005 A 
ATOM     16  C   UNL     1       0.381  -1.859  -1.238  0.00  0.00    +0.001 A 
ATOM     17  C   UNL     1      -0.668  -2.092  -0.367  0.00  0.00    +0.005 A 
ATOM     18  C   UNL     1      -0.740  -1.404   0.829  0.00  0.00    -0.029 A 
ATOM     19  C   UNL     1       0.245  -0.482   1.158  0.00  0.00    +0.039 A 
ATOM     20  C   UNL     1      -1.884  -1.658   1.777  0.00  0.00    +0.045 C 
ENDBRANCH   9  19
ENDBRANCH   8  10
ENDBRANCH   7   8
ENDBRANCH   2   7
ENDBRANCH   1   5
BRANCH   1  21
ATOM     21  N   UNL     1      -1.336   1.148  10.252  0.00  0.00    -0.274 N 
ATOM     22  C   UNL     1      -2.282   0.317  10.734  0.00  0.00    +0.401 C 
ATOM     23  O   UNL     1      -3.456   0.547  10.524  0.00  0.00    -0.226 OA
ATOM     24  H   UNL     1      -0.397   0.930  10.364  0.00  0.00    +0.152 HD
BRANCH  22  25
ATOM     25  O   UNL     1      -1.925  -0.768  11.447  0.00  0.00    -0.445 OA
BRANCH  25  26
ATOM     26  C   UNL     1      -2.980  -1.604  11.927  0.00  0.00    +0.107 C 
ATOM     27  C   UNL     1      -3.787  -2.138  10.741  0.00  0.00    +0.055 C 
ATOM     28  C   UNL     1      -2.385  -2.777  12.709  0.00  0.00    +0.055 C 
ATOM     29  C   UNL     1      -3.898  -0.793  12.844  0.00  0.00    +0.055 C 
ENDBRANCH  25  26
ENDBRANCH  22  25
ENDBRANCH   1  21
BRANCH   1  30
ATOM     30  C   UNL     1      -1.105   3.582  10.273  0.00  0.00    +0.060 C 
BRANCH  30  31
ATOM     31  C   UNL     1      -1.687   3.702  11.657  0.00  0.00    -0.040 C 
ATOM     32  C   UNL     1      -1.162   3.216  12.805  0.00  0.00    -0.001 A 
ATOM     33  C   UNL     1       0.061   2.459  13.097  0.00  0.00    +0.010 A 
ATOM     34  C   UNL     1       0.324   2.104  14.375  0.00  0.00    +0.001 A 
ATOM     35  C   UNL     1      -0.540   2.440  15.426  0.00  0.00    +0.002 A 
ATOM     36  C   UNL     1      -1.682   3.134  15.237  0.00  0.00    +0.026 A 
ATOM     37  C   UNL     1      -2.058   3.559  13.933  0.00  0.00    +0.043 A 
ATOM     38  N   UNL     1      -3.096   4.231  13.499  0.00  0.00    -0.380 N 
ATOM     39  C   UNL     1      -2.974   4.396  12.046  0.00  0.00    +0.144 C 
ATOM     40  H   UNL     1      -3.823   4.567  14.047  0.00  0.00    +0.160 HD
ENDBRANCH  30  31
ENDBRANCH   1  30
TORSDOF 10
