REMARK  Name = ZINC35778721
REMARK  15 active torsions:
REMARK  status: ('A' for Active; 'I' for Inactive)
REMARK    1  A    between atoms: C_1  and  C_2
REMARK    2  A    between atoms: C_5  and  O_8
REMARK    3  A    between atoms: O_8  and  C_9
REMARK    4  A    between atoms: C_9  and  C_10
REMARK    5  A    between atoms: C_20  and  C_22
REMARK    6  A    between atoms: C_22  and  N_23
REMARK    7  A    between atoms: N_23  and  C_24
REMARK    8  A    between atoms: N_23  and  C_27
REMARK    9  A    between atoms: C_24  and  C_25
REMARK   10  A    between atoms: C_27  and  C_28
REMARK   11  A    between atoms: C_28  and  C_30
REMARK   12  A    between atoms: C_28  and  O_39
REMARK   13  A    between atoms: C_30  and  O_31
REMARK   14  A    between atoms: O_31  and  C_32
REMARK   15  A    between atoms: C_32  and  C_33
REMARK                            x       y       z     vdW  Elec       q    Type
REMARK                         _______ _______ _______ _____ _____    ______ ____
ROOT
ATOM      1  C   UNL     1      -1.247  -4.518   2.312  0.00  0.00    +0.144 C 
ATOM      2  C   UNL     1       0.196  -4.389   1.829  0.00  0.00    -0.014 A 
ATOM      3  C   UNL     1       1.231  -3.916   2.634  0.00  0.00    +0.013 A 
ATOM      4  C   UNL     1       2.486  -3.824   2.138  0.00  0.00    +0.046 A 
ATOM      5  S   UNL     1       2.266  -4.417   0.468  0.00  0.00    -0.101 S 
ATOM      6  C   UNL     1       0.525  -4.743   0.557  0.00  0.00    -0.004 A 
ATOM      7  C   UNL     1      -0.374  -5.283  -0.507  0.00  0.00    +0.061 C 
ATOM      8  C   UNL     1      -1.832  -5.015  -0.103  0.00  0.00    +0.113 C 
ATOM      9  N   UNL     1      -1.980  -5.326   1.328  0.00  0.00    -0.292 N 
ATOM     10  C   UNL     1      -2.775  -6.337   1.730  0.00  0.00    +0.200 C 
ATOM     11  O   UNL     1      -2.889  -6.586   2.911  0.00  0.00    -0.278 OA
ENDROOT
BRANCH   1  12
ATOM     12  C   UNL     1      -1.883  -3.131   2.420  0.00  0.00    +0.256 C 
BRANCH  12  13
ATOM     13  O   UNL     1      -1.747  -2.445   1.173  0.00  0.00    -0.490 OA
BRANCH  13  18
ATOM     14  C   UNL     1      -3.888   2.755   0.867  0.00  0.00    +0.044 C 
ATOM     15  C   UNL     1      -3.315   1.364   0.949  0.00  0.00    -0.050 A 
ATOM     16  C   UNL     1      -2.692   0.808  -0.153  0.00  0.00    +0.007 A 
ATOM     17  C   UNL     1      -2.167  -0.468  -0.081  0.00  0.00    +0.046 A 
ATOM     18  C   UNL     1      -2.263  -1.190   1.099  0.00  0.00    +0.121 A 
ATOM     19  C   UNL     1      -2.888  -0.630   2.204  0.00  0.00    +0.046 A 
ATOM     20  C   UNL     1      -3.408   0.648   2.128  0.00  0.00    +0.007 A 
ENDBRANCH  13  18
ENDBRANCH  12  13
ENDBRANCH   1  12
BRANCH  10  21
ATOM     21  C   UNL     1      -3.522  -7.159   0.711  0.00  0.00    +0.019 C 
BRANCH  21  22
ATOM     22  N   UNL     1      -4.196  -8.278   1.384  0.00  0.00    +0.389 N 
ATOM     23  H   UNL     1      -4.758  -7.925   2.144  0.00  0.00    -0.081 HD
BRANCH  22  24
ATOM     24  C   UNL     1      -3.189  -9.209   1.911  0.00  0.00    -0.051 C 
BRANCH  24  25
ATOM     25  C   UNL     1      -2.418  -9.816   0.767  0.00  0.00    -0.053 C 
ATOM     26  C   UNL     1      -1.112  -9.723   0.736  0.00  0.00    +0.002 C 
ENDBRANCH  24  25
ENDBRANCH  22  24
BRANCH  22  27
ATOM     27  C   UNL     1      -5.057  -8.980   0.423  0.00  0.00    -0.044 C 
BRANCH  27  28
ATOM     28  C   UNL     1      -5.888 -10.034   1.158  0.00  0.00    +0.124 C 
BRANCH  28  29
ATOM     29  O   UNL     1      -5.027 -11.065   1.645  0.00  0.00    -0.391 OA
ATOM     30  H   UNL     1      -4.532 -11.524   0.952  0.00  0.00    +0.210 HD
ENDBRANCH  28  29
BRANCH  28  31
ATOM     31  C   UNL     1      -6.913 -10.637   0.196  0.00  0.00    +0.189 C 
BRANCH  31  32
ATOM     32  O   UNL     1      -7.765 -11.536   0.909  0.00  0.00    -0.373 OA
BRANCH  32  33
ATOM     33  C   UNL     1      -8.764 -12.157   0.098  0.00  0.00    +0.195 C 
BRANCH  33  34
ATOM     34  C   UNL     1      -9.600 -13.079   0.948  0.00  0.00    -0.022 A 
ATOM     35  C   UNL     1      -9.228 -14.400   1.107  0.00  0.00    +0.006 A 
ATOM     36  C   UNL     1      -9.995 -15.245   1.887  0.00  0.00    +0.000 A 
ATOM     37  C   UNL     1     -11.133 -14.768   2.509  0.00  0.00    +0.000 A 
ATOM     38  C   UNL     1     -11.505 -13.446   2.351  0.00  0.00    +0.000 A 
ATOM     39  C   UNL     1     -10.736 -12.600   1.574  0.00  0.00    +0.006 A 
ENDBRANCH  33  34
ENDBRANCH  32  33
ENDBRANCH  31  32
ENDBRANCH  28  31
ENDBRANCH  27  28
ENDBRANCH  22  27
ENDBRANCH  21  22
ENDBRANCH  10  21
TORSDOF 14
