REMARK  Name = ZINC21786606
REMARK  7 active torsions:
REMARK  status: ('A' for Active; 'I' for Inactive)
REMARK    1  A    between atoms: C_1  and  C_2
REMARK    2  A    between atoms: C_4  and  S_10
REMARK    3  A    between atoms: C_6  and  N_9
REMARK    4  A    between atoms: C_7  and  C_8
REMARK    5  A    between atoms: S_10  and  N_13
REMARK    6  A    between atoms: C_14  and  C_22
REMARK    7  A    between atoms: C_19  and  C_21
REMARK                            x       y       z     vdW  Elec       q    Type
REMARK                         _______ _______ _______ _____ _____    ______ ____
ROOT
ATOM      1  C   UNL     1      -5.443   5.710  -4.197  0.00  0.00    +0.044 C 
ATOM      2  C   UNL     1      -4.399   4.633  -4.341  0.00  0.00    -0.044 A 
ATOM      3  C   UNL     1      -3.245   4.681  -3.579  0.00  0.00    +0.032 A 
ATOM      4  C   UNL     1      -2.284   3.696  -3.710  0.00  0.00    +0.107 A 
ATOM      5  C   UNL     1      -2.471   2.661  -4.606  0.00  0.00    +0.051 A 
ATOM      6  C   UNL     1      -3.631   2.606  -5.369  0.00  0.00    +0.030 A 
ATOM      7  C   UNL     1      -4.594   3.598  -5.235  0.00  0.00    -0.027 A 
ATOM      8  C   UNL     1      -5.851   3.546  -6.066  0.00  0.00    +0.046 C 
ENDROOT
BRANCH   6   9
ATOM      9  N   UNL     1      -3.825   1.558  -6.272  0.00  0.00    -0.358 N 
ATOM     10  H   UNL     1      -4.744   1.516  -6.875  0.00  0.00    +0.142 HD
ATOM     11  H   UNL     1      -3.060   0.776  -6.380  0.00  0.00    +0.142 HD
ENDBRANCH   6   9
BRANCH   4  12
ATOM     12  S   UNL     1      -0.817   3.763  -2.737  0.00  0.00    +0.061 S 
ATOM     13  O   UNL     1      -0.632   5.125  -2.375  0.00  0.00    -0.153 OA
ATOM     14  O   UNL     1       0.170   3.020  -3.439  0.00  0.00    -0.153 OA
BRANCH  12  15
ATOM     15  N   UNL     1      -1.121   2.938  -1.334  0.00  0.00    -0.171 NA
ATOM     16  C   UNL     1      -0.984   1.476  -1.281  0.00  0.00    +0.077 C 
ATOM     17  C   UNL     1      -0.050   1.110  -0.122  0.00  0.00    +0.020 C 
ATOM     18  C   UNL     1      -0.576   1.740   1.170  0.00  0.00    +0.003 C 
ATOM     19  C   UNL     1      -0.595   3.263   1.026  0.00  0.00    +0.020 C 
ATOM     20  C   UNL     1      -1.534   3.653  -0.119  0.00  0.00    +0.077 C 
ATOM     21  C   UNL     1      -2.970   3.266   0.241  0.00  0.00    +0.026 C 
ATOM     22  C   UNL     1      -0.391   0.968  -2.597  0.00  0.00    +0.026 C 
ENDBRANCH  12  15
ENDBRANCH   4  12
TORSDOF 3
