REMARK  Name = ZINC14406106
REMARK  7 active torsions:
REMARK  status: ('A' for Active; 'I' for Inactive)
REMARK    1  A    between atoms: C_1  and  C_2
REMARK    2  A    between atoms: N_6  and  C_14
REMARK    3  A    between atoms: C_14  and  C_15
REMARK    4  A    between atoms: N_17  and  C_18
REMARK    5  A    between atoms: C_18  and  C_20
REMARK    6  A    between atoms: C_18  and  C_27
REMARK    7  A    between atoms: N_31  and  C_32
REMARK                            x       y       z     vdW  Elec       q    Type
REMARK                         _______ _______ _______ _____ _____    ______ ____
ROOT
ATOM      1  C   UNL     1       1.138   6.281  -1.799  0.00  0.00    +0.232 C 
ATOM      2  O   UNL     1       0.241   5.863  -2.500  0.00  0.00    -0.274 OA
ATOM      3  N   UNL     1       2.151   6.981  -2.348  0.00  0.00    -0.300 N 
ATOM      4  H   UNL     1       2.869   7.316  -1.787  0.00  0.00    +0.150 HD
ENDROOT
BRANCH   1   5
ATOM      5  C   UNL     1       1.120   6.019  -0.315  0.00  0.00    +0.209 C 
BRANCH   5  10
ATOM      6  C   UNL     1      -2.409   4.795   2.255  0.00  0.00    +0.062 C 
ATOM      7  C   UNL     1      -2.434   5.056   0.747  0.00  0.00    +0.256 C 
ATOM      8  C   UNL     1      -1.226   5.870   0.359  0.00  0.00    +0.261 C 
ATOM      9  O   UNL     1      -1.287   7.081   0.342  0.00  0.00    -0.271 OA
ATOM     10  N   UNL     1      -0.074   5.244   0.030  0.00  0.00    -0.256 N 
ATOM     11  C   UNL     1      -0.041   3.843   0.023  0.00  0.00    +0.079 A 
ATOM     12  C   UNL     1       1.166   3.164   0.008  0.00  0.00    +0.027 A 
ATOM     13  C   UNL     1       1.177   1.781   0.000  0.00  0.00    +0.002 A 
ATOM     14  C   UNL     1      -0.013   1.076   0.008  0.00  0.00    +0.004 A 
ATOM     15  C   UNL     1      -1.221   1.748   0.017  0.00  0.00    +0.047 A 
ATOM     16  C   UNL     1      -1.240   3.132   0.031  0.00  0.00    +0.143 A 
ATOM     17  O   UNL     1      -2.419   3.809   0.048  0.00  0.00    -0.478 OA
ENDBRANCH   5  10
ENDBRANCH   1   5
BRANCH   3  18
ATOM     18  C   UNL     1       2.168   7.236  -3.790  0.00  0.00    +0.169 C 
BRANCH  18  19
ATOM     19  C   UNL     1       3.588   7.456  -4.244  0.00  0.00    -0.020 A 
ATOM     20  C   UNL     1       4.457   8.195  -3.462  0.00  0.00    +0.009 A 
ATOM     21  C   UNL     1       5.760   8.393  -3.876  0.00  0.00    +0.038 A 
ATOM     22  C   UNL     1       6.194   7.862  -5.078  0.00  0.00    +0.123 A 
ATOM     23  C   UNL     1       5.321   7.127  -5.863  0.00  0.00    +0.038 A 
ATOM     24  C   UNL     1       4.019   6.925  -5.445  0.00  0.00    +0.009 A 
ATOM     25  F   UNL     1       7.466   8.059  -5.486  0.00  0.00    -0.205 F 
ENDBRANCH  18  19
BRANCH  18  26
ATOM     26  C   UNL     1       1.348   8.463  -4.093  0.00  0.00    +0.134 A 
ATOM     27  N   UNL     1       1.386   9.586  -3.429  0.00  0.00    -0.238 NA
ATOM     28  C   UNL     1       0.525  10.455  -3.981  0.00  0.00    +0.130 A 
ATOM     29  C   UNL     1      -0.074   9.845  -5.021  0.00  0.00    +0.106 A 
ATOM     30  N   UNL     1       0.447   8.581  -5.092  0.00  0.00    -0.336 N 
ATOM     31  C   UNL     1       0.093   7.549  -6.070  0.00  0.00    +0.150 C 
ENDBRANCH  18  26
ENDBRANCH   3  18
TORSDOF 5
