REMARK  Name = ZINC22617164
REMARK  8 active torsions:
REMARK  status: ('A' for Active; 'I' for Inactive)
REMARK    1  A    between atoms: C_3  and  S_14
REMARK    2  A    between atoms: C_4  and  N_11
REMARK    3  A    between atoms: C_6  and  C_7
REMARK    4  A    between atoms: S_14  and  C_15
REMARK    5  A    between atoms: C_15  and  C_16
REMARK    6  A    between atoms: N_18  and  N_19
REMARK    7  A    between atoms: C_20  and  C_22
REMARK    8  A    between atoms: C_22  and  C_23
REMARK                            x       y       z     vdW  Elec       q    Type
REMARK                         _______ _______ _______ _____ _____    ______ ____
ROOT
ATOM      1  C   UNL     1      -8.268   1.276   2.889  0.00  0.00    +0.239 C 
ATOM      2  O   UNL     1      -8.856   0.575   2.092  0.00  0.00    -0.273 OA
ATOM      3  N   UNL     1      -6.984   1.621   2.665  0.00  0.00    -0.234 N 
ATOM      4  H   UNL     1      -6.452   2.256   3.388  0.00  0.00    +0.173 HD
ENDROOT
BRANCH   3   5
ATOM      5  N   UNL     1      -6.329   1.169   1.513  0.00  0.00    -0.234 N 
ATOM      6  C   UNL     1      -5.045   1.513   1.289  0.00  0.00    +0.230 C 
ATOM      7  O   UNL     1      -4.457   2.214   2.085  0.00  0.00    -0.274 OA
ATOM      8  H   UNL     1      -6.862   0.533   0.790  0.00  0.00    +0.173 HD
BRANCH   6   9
ATOM      9  C   UNL     1      -4.340   1.027   0.049  0.00  0.00    +0.104 C 
BRANCH   9  10
ATOM     10  C   UNL     1      -2.904   1.556   0.038  0.00  0.00    -0.020 C 
ATOM     11  C   UNL     1      -2.188   1.063  -1.221  0.00  0.00    +0.011 C 
ATOM     12  C   UNL     1      -0.753   1.593  -1.232  0.00  0.00    -0.010 C 
ATOM     13  C   UNL     1      -0.013   1.086   0.008  0.00  0.00    +0.007 C 
ATOM     14  C   UNL     1      -0.729   1.579   1.267  0.00  0.00    -0.010 C 
ATOM     15  C   UNL     1      -2.164   1.050   1.278  0.00  0.00    +0.011 C 
ATOM     16  C   UNL     1      -0.750   3.109   1.275  0.00  0.00    +0.007 C 
ATOM     17  C   UNL     1      -1.490   3.616   0.036  0.00  0.00    -0.010 C 
ATOM     18  C   UNL     1      -0.773   3.123  -1.223  0.00  0.00    +0.007 C 
ATOM     19  C   UNL     1      -2.925   3.086   0.047  0.00  0.00    +0.011 C 
ENDBRANCH   9  10
ENDBRANCH   6   9
ENDBRANCH   3   5
BRANCH   1  20
ATOM     20  C   UNL     1      -8.973   1.762   4.129  0.00  0.00    +0.171 C 
BRANCH  20  21
ATOM     21  S   UNL     1     -10.675   1.134   4.142  0.00  0.00    -0.114 S 
BRANCH  21  24
ATOM     22  C   UNL     1     -11.117   3.080   7.634  0.00  0.00    +0.013 A 
ATOM     23  C   UNL     1     -10.580   2.575   6.466  0.00  0.00    +0.017 A 
ATOM     24  C   UNL     1     -11.357   1.781   5.632  0.00  0.00    +0.039 A 
ATOM     25  C   UNL     1     -12.675   1.502   5.974  0.00  0.00    +0.140 A 
ATOM     26  C   UNL     1     -13.204   2.006   7.146  0.00  0.00    +0.046 A 
ATOM     27  C   UNL     1     -12.427   2.796   7.973  0.00  0.00    +0.057 A 
BRANCH  27  28
ATOM     28  C   UNL     1     -13.011   3.349   9.248  0.00  0.00    +0.417 C 
ATOM     29  F   UNL     1     -12.043   4.112   9.911  0.00  0.00    -0.166 F 
ATOM     30  F   UNL     1     -14.113   4.156   8.945  0.00  0.00    -0.166 F 
ATOM     31  F   UNL     1     -13.417   2.294  10.072  0.00  0.00    -0.166 F 
ENDBRANCH  27  28
BRANCH  25  32
ATOM     32  N   UNL     1     -13.509   0.662   5.086  0.00  0.00    +0.058 N 
ATOM     33  O   UNL     1     -14.664   0.418   5.386  0.00  0.00    -0.126 OA
ATOM     34  O   UNL     1     -13.040   0.214   4.054  0.00  0.00    -0.126 OA
ENDBRANCH  25  32
ENDBRANCH  21  24
ENDBRANCH  20  21
ENDBRANCH   1  20
TORSDOF 8
