REMARK  Name = ZINC39197379
REMARK  11 active torsions:
REMARK  status: ('A' for Active; 'I' for Inactive)
REMARK    1  A    between atoms: C_1  and  C_2
REMARK    2  A    between atoms: C_2  and  C_3
REMARK    3  A    between atoms: C_8  and  N_9
REMARK    4  A    between atoms: C_10  and  C_31
REMARK    5  A    between atoms: C_12  and  C_14
REMARK    6  A    between atoms: N_16  and  C_17
REMARK    7  A    between atoms: C_17  and  C_19
REMARK    8  A    between atoms: C_17  and  C_20
REMARK    9  A    between atoms: N_22  and  N_23
REMARK   10  A    between atoms: N_23  and  C_24
REMARK   11  A    between atoms: N_23  and  C_25
REMARK                            x       y       z     vdW  Elec       q    Type
REMARK                         _______ _______ _______ _____ _____    ______ ____
ROOT
ATOM      1  N   UNL     1       3.001  -0.384  -0.152  0.00  0.00    -0.231 N 
ATOM      2  C   UNL     1       4.327  -0.076  -0.272  0.00  0.00    +0.075 A 
ATOM      3  C   UNL     1       4.690   0.560   0.882  0.00  0.00    +0.063 A 
ATOM      4  C   UNL     1       3.520   0.606   1.671  0.00  0.00    +0.148 A 
ATOM      5  N   UNL     1       2.556   0.027   0.981  0.00  0.00    -0.161 NA
ENDROOT
BRANCH   2   6
ATOM      6  C   UNL     1       5.202  -0.375  -1.427  0.00  0.00    +0.004 A 
ATOM      7  C   UNL     1       4.646  -0.581  -2.690  0.00  0.00    +0.014 A 
ATOM      8  C   UNL     1       5.463  -0.860  -3.765  0.00  0.00    +0.050 A 
ATOM      9  C   UNL     1       6.839  -0.938  -3.596  0.00  0.00    +0.162 A 
ATOM     10  C   UNL     1       7.400  -0.731  -2.340  0.00  0.00    +0.163 A 
ATOM     11  C   UNL     1       6.584  -0.446  -1.258  0.00  0.00    +0.059 A 
ATOM     12  O   UNL     1       8.747  -0.795  -2.159  0.00  0.00    -0.485 OA
ATOM     13  C   UNL     1       9.505  -1.443  -3.187  0.00  0.00    +0.270 C 
ATOM     14  C   UNL     1       9.020  -0.917  -4.544  0.00  0.00    +0.270 C 
ATOM     15  O   UNL     1       7.627  -1.219  -4.671  0.00  0.00    -0.485 OA
ENDBRANCH   2   6
BRANCH   1  21
ATOM     16  C   UNL     1       1.100  -0.443  -1.642  0.00  0.00    -0.022 A 
ATOM     17  C   UNL     1       0.354  -1.095  -2.604  0.00  0.00    +0.006 A 
ATOM     18  C   UNL     1       0.735  -2.348  -3.046  0.00  0.00    +0.000 A 
ATOM     19  C   UNL     1       1.865  -2.953  -2.526  0.00  0.00    +0.002 A 
ATOM     20  C   UNL     1       2.616  -2.307  -1.565  0.00  0.00    +0.028 A 
ATOM     21  C   UNL     1       2.239  -1.045  -1.123  0.00  0.00    +0.069 A 
BRANCH  16  23
ATOM     22  C   UNL     1       1.513   1.991  -1.877  0.00  0.00    +0.009 C 
ATOM     23  C   UNL     1       0.683   0.923  -1.161  0.00  0.00    +0.034 C 
ENDBRANCH  16  23
ENDBRANCH   1  21
BRANCH   4  24
ATOM     24  C   UNL     1       3.395   1.199   3.018  0.00  0.00    +0.265 C 
ATOM     25  O   UNL     1       4.362   1.711   3.549  0.00  0.00    -0.268 OA
ATOM     26  N   UNL     1       2.210   1.173   3.659  0.00  0.00    -0.299 N 
ATOM     27  H   UNL     1       1.439   0.764   3.236  0.00  0.00    +0.150 HD
BRANCH  26  28
ATOM     28  C   UNL     1       2.087   1.760   4.995  0.00  0.00    +0.158 C 
ATOM     29  C   UNL     1       2.512   0.733   6.046  0.00  0.00    +0.038 C 
BRANCH  28  30
ATOM     30  C   UNL     1       0.655   2.163   5.237  0.00  0.00    +0.249 C 
ATOM     31  O   UNL     1      -0.181   1.977   4.378  0.00  0.00    -0.272 OA
ATOM     32  N   UNL     1       0.302   2.729   6.408  0.00  0.00    -0.233 N 
ATOM     33  H   UNL     1       0.971   2.878   7.095  0.00  0.00    +0.173 HD
BRANCH  32  34
ATOM     34  N   UNL     1      -1.029   3.103   6.633  0.00  0.00    -0.254 N 
ATOM     35  C   UNL     1      -2.039   2.081   6.918  0.00  0.00    +0.154 C 
BRANCH  34  36
ATOM     36  C   UNL     1      -1.393   4.451   6.585  0.00  0.00    +0.047 A 
ATOM     37  C   UNL     1      -0.438   5.421   6.309  0.00  0.00    +0.025 A 
ATOM     38  C   UNL     1      -0.802   6.753   6.263  0.00  0.00    +0.002 A 
ATOM     39  C   UNL     1      -2.115   7.120   6.490  0.00  0.00    +0.000 A 
ATOM     40  C   UNL     1      -3.069   6.157   6.765  0.00  0.00    +0.002 A 
ATOM     41  C   UNL     1      -2.713   4.824   6.808  0.00  0.00    +0.025 A 
ENDBRANCH  34  36
ENDBRANCH  32  34
ENDBRANCH  28  30
ENDBRANCH  26  28
ENDBRANCH   4  24
TORSDOF 8
