REMARK  Name = ZINC20685428
REMARK  6 active torsions:
REMARK  status: ('A' for Active; 'I' for Inactive)
REMARK    1  A    between atoms: C_1  and  C_2
REMARK    2  A    between atoms: C_2  and  N_3
REMARK    3  A    between atoms: C_14  and  C_16
REMARK    4  A    between atoms: C_29  and  O_32
REMARK    5  A    between atoms: O_32  and  C_33
REMARK    6  A    between atoms: C_33  and  C_34
REMARK                            x       y       z     vdW  Elec       q    Type
REMARK                         _______ _______ _______ _____ _____    ______ ____
ROOT
ATOM      1  C   UNL     1      -3.847   2.311  -6.708  0.00  0.00    +0.105 C 
ATOM      2  C   UNL     1      -3.556   1.778  -8.096  0.00  0.00    +0.029 C 
ATOM      3  C   UNL     1      -4.244   2.456  -9.286  0.00  0.00    +0.033 C 
ATOM      4  C   UNL     1      -4.351   1.295 -10.278  0.00  0.00    -0.030 C 
ATOM      5  C   UNL     1      -4.377   0.140  -9.622  0.00  0.00    -0.023 C 
ATOM      6  C   UNL     1      -4.328   0.423  -8.166  0.00  0.00    +0.049 C 
ATOM      7  C   UNL     1      -3.677  -0.487  -7.199  0.00  0.00    -0.016 A 
ATOM      8  C   UNL     1      -3.606  -1.849  -7.418  0.00  0.00    +0.006 A 
ATOM      9  C   UNL     1      -3.011  -2.680  -6.489  0.00  0.00    +0.004 A 
ATOM     10  C   UNL     1      -2.474  -2.142  -5.333  0.00  0.00    +0.047 A 
ATOM     11  C   UNL     1      -2.538  -0.782  -5.106  0.00  0.00    +0.142 A 
ATOM     12  C   UNL     1      -3.138   0.072  -6.040  0.00  0.00    +0.074 A 
ATOM     13  N   UNL     1      -3.144   1.439  -5.754  0.00  0.00    -0.334 N 
ATOM     14  H   UNL     1      -2.656   1.873  -4.869  0.00  0.00    +0.147 HD
ENDROOT
BRANCH   1  26
ATOM     15  N   UNL     1      -9.374   1.942  -5.603  0.00  0.00    -0.340 N 
ATOM     16  C   UNL     1      -9.444   0.706  -4.984  0.00  0.00    +0.050 A 
ATOM     17  C   UNL     1     -10.508  -0.016  -4.452  0.00  0.00    +0.026 A 
ATOM     18  C   UNL     1     -10.287  -1.252  -3.883  0.00  0.00    +0.002 A 
ATOM     19  C   UNL     1      -9.008  -1.787  -3.834  0.00  0.00    +0.001 A 
ATOM     20  C   UNL     1      -7.942  -1.087  -4.356  0.00  0.00    +0.010 A 
ATOM     21  C   UNL     1      -8.152   0.162  -4.934  0.00  0.00    +0.008 A 
ATOM     22  C   UNL     1      -7.258   1.149  -5.568  0.00  0.00    +0.008 A 
ATOM     23  C   UNL     1      -8.068   2.225  -5.961  0.00  0.00    +0.050 A 
ATOM     24  C   UNL     1      -7.486   3.319  -6.594  0.00  0.00    +0.027 A 
ATOM     25  C   UNL     1      -6.128   3.341  -6.826  0.00  0.00    +0.007 A 
ATOM     26  C   UNL     1      -5.330   2.274  -6.442  0.00  0.00    -0.026 A 
ATOM     27  C   UNL     1      -5.887   1.181  -5.813  0.00  0.00    +0.016 A 
BRANCH  15  29
ATOM     28  C   UNL     1     -11.131   2.501  -7.209  0.00  0.00    +0.027 C 
ATOM     29  C   UNL     1     -10.518   2.823  -5.844  0.00  0.00    +0.119 C 
ENDBRANCH  15  29
ENDBRANCH   1  26
BRANCH  11  30
ATOM     30  O   UNL     1      -2.007  -0.265  -3.965  0.00  0.00    -0.488 OA
BRANCH  30  31
ATOM     31  C   UNL     1      -1.409  -1.188  -3.052  0.00  0.00    +0.260 C 
BRANCH  31  32
ATOM     32  C   UNL     1      -0.871  -0.427  -1.838  0.00  0.00    +0.156 C 
ATOM     33  C   UNL     1      -0.115  -1.394  -0.907  0.00  0.00    +0.037 C 
ATOM     34  C   UNL     1      -0.858  -1.283   0.446  0.00  0.00    +0.031 C 
ATOM     35  C   UNL     1      -1.578   0.085   0.307  0.00  0.00    +0.160 C 
ATOM     36  O   UNL     1      -1.964   0.125  -1.084  0.00  0.00    -0.373 OA
ENDBRANCH  31  32
ENDBRANCH  30  31
ENDBRANCH  11  30
TORSDOF 5
