REMARK  Name = ZINC38729678
REMARK  8 active torsions:
REMARK  status: ('A' for Active; 'I' for Inactive)
REMARK    1  A    between atoms: C_4  and  C_7
REMARK    2  A    between atoms: C_7  and  C_41
REMARK    3  A    between atoms: C_13  and  C_15
REMARK    4  A    between atoms: C_21  and  C_23
REMARK    5  A    between atoms: N_25  and  C_26
REMARK    6  A    between atoms: C_26  and  C_28
REMARK    7  A    between atoms: C_26  and  C_38
REMARK    8  A    between atoms: C_28  and  C_29
REMARK                            x       y       z     vdW  Elec       q    Type
REMARK                         _______ _______ _______ _____ _____    ______ ____
ROOT
ATOM      1  C   UNL     1       5.832  -4.840   1.780  0.00  0.00    +0.091 C 
ATOM      2  C   UNL     1       6.362  -5.405   0.460  0.00  0.00    +0.040 C 
ATOM      3  C   UNL     1       6.263  -6.903   0.463  0.00  0.00    -0.030 C 
ATOM      4  C   UNL     1       6.103  -7.617   1.530  0.00  0.00    -0.030 C 
ATOM      5  C   UNL     1       5.982  -7.047   2.913  0.00  0.00    +0.040 C 
ATOM      6  C   UNL     1       6.486  -5.604   2.938  0.00  0.00    +0.091 C 
ENDROOT
BRANCH   1  13
ATOM      7  C   UNL     1       3.135  -0.669   1.336  0.00  0.00    +0.085 C 
ATOM      8  C   UNL     1       4.361  -0.366   2.201  0.00  0.00    +0.045 C 
ATOM      9  C   UNL     1       5.597  -1.017   1.574  0.00  0.00    +0.109 C 
ATOM     10  N   UNL     1       5.332  -2.450   1.384  0.00  0.00    -0.301 N 
ATOM     11  C   UNL     1       4.129  -2.853   0.643  0.00  0.00    +0.109 C 
ATOM     12  C   UNL     1       2.909  -2.181   1.281  0.00  0.00    +0.045 C 
ATOM     13  C   UNL     1       6.176  -3.376   1.879  0.00  0.00    +0.220 C 
ATOM     14  O   UNL     1       7.214  -3.032   2.404  0.00  0.00    -0.275 OA
BRANCH   7  18
ATOM     15  C   UNL     1      -0.303   1.224   3.023  0.00  0.00    +0.000 A 
ATOM     16  C   UNL     1       0.782   1.985   2.630  0.00  0.00    +0.000 A 
ATOM     17  C   UNL     1       1.895   1.373   2.084  0.00  0.00    +0.005 A 
ATOM     18  C   UNL     1       1.923  -0.001   1.932  0.00  0.00    -0.027 A 
ATOM     19  C   UNL     1       0.838  -0.762   2.326  0.00  0.00    +0.005 A 
ATOM     20  C   UNL     1      -0.275  -0.150   2.871  0.00  0.00    +0.000 A 
ENDBRANCH   7  18
BRANCH   7  21
ATOM     21  C   UNL     1       3.358  -0.156  -0.026  0.00  0.00    +0.074 C 
ATOM     22  N   UNL     1       3.530   0.239  -1.077  0.00  0.00    -0.196 NA
ENDBRANCH   7  21
ENDBRANCH   1  13
BRANCH   6  23
ATOM     23  C   UNL     1       6.114  -4.955   4.247  0.00  0.00    +0.218 C 
ATOM     24  O   UNL     1       5.395  -3.978   4.256  0.00  0.00    -0.275 OA
ATOM     25  N   UNL     1       6.579  -5.461   5.406  0.00  0.00    -0.303 N 
ATOM     26  H   UNL     1       7.153  -6.243   5.398  0.00  0.00    +0.149 HD
BRANCH  25  27
ATOM     27  C   UNL     1       6.217  -4.831   6.678  0.00  0.00    +0.163 C 
BRANCH  27  28
ATOM     28  C   UNL     1       7.163  -3.694   6.962  0.00  0.00    +0.231 C 
ATOM     29  O   UNL     1       8.053  -3.435   6.179  0.00  0.00    -0.274 OA
ATOM     30  N   UNL     1       7.022  -2.964   8.086  0.00  0.00    -0.328 N 
ATOM     31  H   UNL     1       6.311  -3.171   8.712  0.00  0.00    +0.145 HD
ATOM     32  H   UNL     1       7.631  -2.232   8.269  0.00  0.00    +0.145 HD
ENDBRANCH  27  28
BRANCH  27  33
ATOM     33  C   UNL     1       6.308  -5.864   7.803  0.00  0.00    +0.069 C 
BRANCH  33  34
ATOM     34  C   UNL     1       5.276  -6.939   7.583  0.00  0.00    -0.020 A 
ATOM     35  C   UNL     1       5.423  -8.130   6.742  0.00  0.00    +0.003 A 
ATOM     36  C   UNL     1       6.450  -8.631   5.941  0.00  0.00    +0.010 A 
ATOM     37  C   UNL     1       6.271  -9.803   5.262  0.00  0.00    +0.001 A 
ATOM     38  C   UNL     1       5.076 -10.501   5.363  0.00  0.00    +0.002 A 
ATOM     39  C   UNL     1       4.048 -10.024   6.148  0.00  0.00    +0.026 A 
ATOM     40  C   UNL     1       4.209  -8.833   6.847  0.00  0.00    +0.047 A 
ATOM     41  N   UNL     1       3.394  -8.112   7.692  0.00  0.00    -0.360 N 
ATOM     42  C   UNL     1       4.049  -6.991   8.125  0.00  0.00    +0.087 A 
ATOM     43  H   UNL     1       2.493  -8.364   7.946  0.00  0.00    +0.165 HD
ENDBRANCH  33  34
ENDBRANCH  27  33
ENDBRANCH  25  27
ENDBRANCH   6  23
TORSDOF 8
