REMARK  Name = ZINC00124000
REMARK  7 active torsions:
REMARK  status: ('A' for Active; 'I' for Inactive)
REMARK    1  A    between atoms: C_1  and  C_2
REMARK    2  A    between atoms: C_2  and  C_3
REMARK    3  A    between atoms: C_6  and  C_9
REMARK    4  A    between atoms: C_18  and  C_24
REMARK    5  A    between atoms: C_19  and  C_20
REMARK    6  A    between atoms: C_20  and  O_22
REMARK    7  A    between atoms: O_22  and  C_23
REMARK                            x       y       z     vdW  Elec       q    Type
REMARK                         _______ _______ _______ _____ _____    ______ ____
ROOT
ATOM      1  C   UNL     1       2.707  -1.868  -4.752  0.00  0.00    +0.093 C 
ATOM      2  C   UNL     1       3.697  -0.803  -5.184  0.00  0.00    +0.028 C 
ATOM      3  C   UNL     1       3.273   0.441  -5.464  0.00  0.00    +0.162 C 
ATOM      4  C   UNL     1       4.235   1.516  -5.896  0.00  0.00    +0.080 C 
ATOM      5  C   UNL     1       5.609   1.244  -5.277  0.00  0.00    +0.014 C 
ATOM      6  C   UNL     1       6.077  -0.151  -5.702  0.00  0.00    +0.056 C 
ATOM      7  C   UNL     1       5.050  -1.171  -5.273  0.00  0.00    +0.049 C 
ATOM      8  N   UNL     1       5.436  -2.394  -4.989  0.00  0.00    -0.256 NA
ATOM      9  C   UNL     1       4.643  -3.384  -4.605  0.00  0.00    +0.049 C 
ATOM     10  C   UNL     1       3.300  -3.234  -4.456  0.00  0.00    +0.069 C 
ATOM     11  C   UNL     1       5.257  -4.730  -4.319  0.00  0.00    +0.066 C 
ATOM     12  O   UNL     1       1.962   0.732  -5.356  0.00  0.00    -0.292 OA
ENDROOT
BRANCH   1  16
ATOM     13  C   UNL     1       0.707  -0.490  -1.238  0.00  0.00    -0.048 A 
ATOM     14  C   UNL     1      -0.011  -0.719  -2.397  0.00  0.00    +0.004 A 
ATOM     15  C   UNL     1       0.636  -1.164  -3.534  0.00  0.00    +0.005 A 
ATOM     16  C   UNL     1       2.002  -1.381  -3.513  0.00  0.00    -0.035 A 
ATOM     17  C   UNL     1       2.720  -1.152  -2.354  0.00  0.00    +0.005 A 
ATOM     18  C   UNL     1       2.073  -0.702  -1.218  0.00  0.00    +0.004 A 
BRANCH  13  20
ATOM     19  C   UNL     1      -0.019   1.526   0.010  0.00  0.00    +0.009 C 
ATOM     20  C   UNL     1       0.002  -0.004   0.002  0.00  0.00    +0.032 C 
ENDBRANCH  13  20
ENDBRANCH   1  16
BRANCH  10  21
ATOM     21  C   UNL     1       2.490  -4.310  -4.043  0.00  0.00    +0.338 C 
ATOM     22  O   UNL     1       2.991  -5.395  -3.811  0.00  0.00    -0.245 OA
BRANCH  21  23
ATOM     23  O   UNL     1       1.158  -4.138  -3.904  0.00  0.00    -0.465 OA
ATOM     24  C   UNL     1       0.398  -5.271  -3.482  0.00  0.00    +0.280 C 
ENDBRANCH  21  23
ENDBRANCH  10  21
TORSDOF 4
