REMARK  Name = ZINC65387421
REMARK  5 active torsions:
REMARK  status: ('A' for Active; 'I' for Inactive)
REMARK    1  A    between atoms: C_1  and  C_2
REMARK    2  A    between atoms: C_2  and  C_3
REMARK    3  A    between atoms: C_9  and  C_14
REMARK    4  A    between atoms: C_14  and  N_15
REMARK    5  A    between atoms: C_24  and  C_26
REMARK                            x       y       z     vdW  Elec       q    Type
REMARK                         _______ _______ _______ _____ _____    ______ ____
ROOT
ATOM      1  N   UNL     1      -3.687  -0.227  -4.428  0.00  0.00    -0.283 NA
ATOM      2  C   UNL     1      -5.043   0.103  -4.879  0.00  0.00    +0.121 C 
ATOM      3  C   UNL     1      -5.248   1.595  -4.886  0.00  0.00    -0.030 A 
ATOM      4  C   UNL     1      -6.546   2.083  -4.919  0.00  0.00    +0.005 A 
ATOM      5  C   UNL     1      -6.780   3.444  -4.931  0.00  0.00    +0.000 A 
ATOM      6  C   UNL     1      -5.715   4.326  -4.909  0.00  0.00    +0.000 A 
ATOM      7  C   UNL     1      -4.423   3.842  -4.874  0.00  0.00    +0.004 A 
ATOM      8  C   UNL     1      -4.187   2.475  -4.860  0.00  0.00    -0.041 A 
ATOM      9  C   UNL     1      -2.760   1.993  -4.811  0.00  0.00    +0.063 C 
ATOM     10  C   UNL     1      -2.693   0.520  -5.215  0.00  0.00    +0.148 C 
ENDROOT
BRANCH  10  11
ATOM     11  C   UNL     1      -1.314  -0.020  -4.932  0.00  0.00    +0.228 C 
ATOM     12  O   UNL     1      -1.030  -0.404  -3.817  0.00  0.00    -0.274 OA
ATOM     13  N   UNL     1      -0.397  -0.076  -5.918  0.00  0.00    -0.328 N 
ATOM     14  H   UNL     1      -0.624   0.231  -6.810  0.00  0.00    +0.145 HD
ATOM     15  H   UNL     1       0.490  -0.424  -5.736  0.00  0.00    +0.145 HD
ENDBRANCH  10  11
BRANCH   1  16
ATOM     16  C   UNL     1      -3.443  -1.673  -4.508  0.00  0.00    +0.121 C 
BRANCH  16  23
ATOM     17  C   UNL     1      -2.685  -2.263  -0.286  0.00  0.00    -0.047 A 
ATOM     18  C   UNL     1      -3.599  -2.934   0.514  0.00  0.00    +0.007 A 
ATOM     19  C   UNL     1      -4.770  -3.428  -0.019  0.00  0.00    +0.047 A 
ATOM     20  C   UNL     1      -5.042  -3.255  -1.370  0.00  0.00    +0.139 A 
ATOM     21  C   UNL     1      -4.114  -2.574  -2.178  0.00  0.00    +0.022 A 
ATOM     22  C   UNL     1      -2.933  -2.076  -1.617  0.00  0.00    +0.015 A 
ATOM     23  C   UNL     1      -4.408  -2.396  -3.603  0.00  0.00    -0.016 A 
ATOM     24  C   UNL     1      -5.572  -2.898  -4.085  0.00  0.00    +0.097 A 
ATOM     25  C   UNL     1      -6.459  -3.571  -3.216  0.00  0.00    +0.338 A 
ATOM     26  O   UNL     1      -7.501  -4.017  -3.660  0.00  0.00    -0.245 OA
ATOM     27  O   UNL     1      -6.183  -3.731  -1.912  0.00  0.00    -0.422 OA
BRANCH  17  29
ATOM     28  C   UNL     1      -1.642  -0.304   0.822  0.00  0.00    +0.009 C 
ATOM     29  C   UNL     1      -1.411  -1.731   0.319  0.00  0.00    +0.032 C 
ENDBRANCH  17  29
ENDBRANCH  16  23
ENDBRANCH   1  16
TORSDOF 4
