REMARK  Name = ZINC38687585
REMARK  13 active torsions:
REMARK  status: ('A' for Active; 'I' for Inactive)
REMARK    1  A    between atoms: C_1  and  C_2
REMARK    2  A    between atoms: C_2  and  C_3
REMARK    3  A    between atoms: C_3  and  C_4
REMARK    4  A    between atoms: C_4  and  O_5
REMARK    5  A    between atoms: O_5  and  C_6
REMARK    6  A    between atoms: C_9  and  C_12
REMARK    7  A    between atoms: C_17  and  O_26
REMARK    8  A    between atoms: C_21  and  N_25
REMARK    9  A    between atoms: C_22  and  C_23
REMARK   10  A    between atoms: O_26  and  C_27
REMARK   11  A    between atoms: C_27  and  C_29
REMARK   12  A    between atoms: C_30  and  C_39
REMARK   13  A    between atoms: C_33  and  C_38
REMARK                            x       y       z     vdW  Elec       q    Type
REMARK                         _______ _______ _______ _____ _____    ______ ____
ROOT
ATOM      1  C   UNL     1      -3.471  -8.134  -0.036  0.00  0.00    +0.098 C 
ATOM      2  C   UNL     1      -4.208  -8.556   1.208  0.00  0.00    +0.008 A 
ATOM      3  C   UNL     1      -3.514  -8.691   2.397  0.00  0.00    +0.012 A 
ATOM      4  C   UNL     1      -4.173  -9.078   3.547  0.00  0.00    +0.047 A 
ATOM      5  C   UNL     1      -5.537  -9.333   3.513  0.00  0.00    +0.136 A 
ATOM      6  C   UNL     1      -6.235  -9.198   2.324  0.00  0.00    +0.093 A 
ATOM      7  C   UNL     1      -5.571  -8.809   1.168  0.00  0.00    +0.138 A 
ATOM      8  O   UNL     1      -6.268  -8.682   0.012  0.00  0.00    -0.441 OA
ATOM      9  C   UNL     1      -5.621  -8.693  -1.166  0.00  0.00    +0.199 C 
ATOM     10  C   UNL     1      -4.296  -8.440  -1.254  0.00  0.00    +0.098 C 
ENDROOT
BRANCH   1  14
ATOM     11  C   UNL     1      -2.699  -3.934   0.133  0.00  0.00    +0.121 A 
ATOM     12  C   UNL     1      -1.645  -4.832   0.052  0.00  0.00    +0.046 A 
ATOM     13  C   UNL     1      -1.897  -6.189  -0.002  0.00  0.00    +0.008 A 
ATOM     14  C   UNL     1      -3.199  -6.653   0.024  0.00  0.00    -0.034 A 
ATOM     15  C   UNL     1      -4.252  -5.761   0.104  0.00  0.00    +0.008 A 
ATOM     16  C   UNL     1      -4.005  -4.403   0.164  0.00  0.00    +0.046 A 
BRANCH  11  17
ATOM     17  O   UNL     1      -2.454  -2.599   0.187  0.00  0.00    -0.492 OA
BRANCH  17  18
ATOM     18  C   UNL     1      -1.085  -2.189   0.150  0.00  0.00    +0.229 C 
BRANCH  18  19
ATOM     19  C   UNL     1      -1.008  -0.662   0.220  0.00  0.00    +0.041 C 
BRANCH  19  21
ATOM     20  C   UNL     1       0.534   1.303   0.250  0.00  0.00    +0.004 C 
ATOM     21  C   UNL     1       0.457  -0.223   0.180  0.00  0.00    -0.000 C 
ENDBRANCH  19  21
ENDBRANCH  18  19
ENDBRANCH  17  18
ENDBRANCH  11  17
ENDBRANCH   1  14
BRANCH   9  22
ATOM     22  N   UNL     1      -6.326  -8.967  -2.311  0.00  0.00    -0.328 N 
ATOM     23  H   UNL     1      -7.277  -9.149  -2.262  0.00  0.00    +0.145 HD
ATOM     24  H   UNL     1      -5.873  -8.978  -3.168  0.00  0.00    +0.145 HD
ENDBRANCH   9  22
BRANCH  10  25
ATOM     25  C   UNL     1      -3.667  -8.466  -2.540  0.00  0.00    +0.101 C 
ATOM     26  N   UNL     1      -3.167  -8.486  -3.560  0.00  0.00    -0.191 NA
ENDBRANCH  10  25
BRANCH   5  27
ATOM     27  O   UNL     1      -6.187  -9.714   4.644  0.00  0.00    -0.420 OA
BRANCH  27  28
ATOM     28  C   UNL     1      -6.646 -10.981   4.714  0.00  0.00    +0.380 C 
ATOM     29  O   UNL     1      -6.383 -11.772   3.829  0.00  0.00    -0.241 OA
BRANCH  28  30
ATOM     30  C   UNL     1      -7.463 -11.403   5.858  0.00  0.00    +0.216 A 
ATOM     31  C   UNL     1      -7.973 -12.650   6.037  0.00  0.00    +0.010 A 
ATOM     32  C   UNL     1      -8.710 -12.609   7.299  0.00  0.00    +0.024 A 
ATOM     33  C   UNL     1      -9.446 -13.546   8.028  0.00  0.00    +0.015 A 
ATOM     34  C   UNL     1     -10.029 -13.180   9.208  0.00  0.00    -0.050 A 
ATOM     35  C   UNL     1      -9.894 -11.884   9.687  0.00  0.00    +0.007 A 
ATOM     36  C   UNL     1      -9.171 -10.944   8.984  0.00  0.00    +0.047 A 
ATOM     37  C   UNL     1      -8.569 -11.293   7.780  0.00  0.00    +0.136 A 
ATOM     38  O   UNL     1      -7.816 -10.614   6.894  0.00  0.00    -0.448 OA
ATOM     39  C   UNL     1     -10.825 -14.189   9.995  0.00  0.00    +0.044 C 
ATOM     40  C   UNL     1      -7.812 -13.835   5.120  0.00  0.00    +0.048 C 
ENDBRANCH  28  30
ENDBRANCH  27  28
ENDBRANCH   5  27
TORSDOF 10
