REMARK  Name = ZINC09663383
REMARK  6 active torsions:
REMARK  status: ('A' for Active; 'I' for Inactive)
REMARK    1  A    between atoms: C_1  and  C_2
REMARK    2  A    between atoms: C_5  and  N_9
REMARK    3  A    between atoms: C_6  and  C_8
REMARK    4  A    between atoms: C_10  and  C_12
REMARK    5  A    between atoms: C_13  and  C_35
REMARK    6  A    between atoms: C_19  and  C_23
REMARK                            x       y       z     vdW  Elec       q    Type
REMARK                         _______ _______ _______ _____ _____    ______ ____
ROOT
ATOM      1  C   UNL     1      -0.132  -6.300  -1.187  0.00  0.00    +0.080 A 
ATOM      2  C   UNL     1      -0.231  -7.147  -2.253  0.00  0.00    -0.017 A 
ATOM      3  C   UNL     1      -0.306  -8.525  -2.042  0.00  0.00    +0.076 A 
ATOM      4  C   UNL     1      -0.418  -9.616  -3.036  0.00  0.00    +0.260 A 
ATOM      5  O   UNL     1      -0.455  -9.371  -4.229  0.00  0.00    -0.267 OA
ATOM      6  N   UNL     1      -0.477 -10.886  -2.591  0.00  0.00    -0.306 N 
ATOM      7  H   UNL     1      -0.550 -11.612  -3.230  0.00  0.00    +0.170 HD
ATOM      8  C   UNL     1      -0.436 -11.171  -1.254  0.00  0.00    +0.149 A 
ATOM      9  N   UNL     1      -0.337 -10.219  -0.348  0.00  0.00    -0.222 NA
ATOM     10  C   UNL     1      -0.273  -8.943  -0.689  0.00  0.00    +0.117 A 
ATOM     11  S   UNL     1      -0.132  -7.416   0.206  0.00  0.00    -0.064 S 
ATOM     12  C   UNL     1      -0.259  -6.596  -3.655  0.00  0.00    +0.046 C 
ENDROOT
BRANCH   8  13
ATOM     13  C   UNL     1      -0.504 -12.575  -0.817  0.00  0.00    +0.102 A 
ATOM     14  C   UNL     1      -0.472 -12.913   0.529  0.00  0.00    +0.030 A 
ATOM     15  C   UNL     1      -0.509 -14.290   0.872  0.00  0.00    +0.020 A 
ATOM     16  C   UNL     1      -0.681 -14.686   2.206  0.00  0.00    +0.031 A 
ATOM     17  C   UNL     1      -0.757 -16.014   2.516  0.00  0.00    +0.042 A 
ATOM     18  C   UNL     1      -0.659 -16.978   1.520  0.00  0.00    +0.023 A 
ATOM     19  C   UNL     1      -0.470 -16.610   0.203  0.00  0.00    +0.048 A 
ATOM     20  C   UNL     1      -0.383 -15.266  -0.133  0.00  0.00    +0.139 A 
ATOM     21  O   UNL     1      -0.154 -14.895  -1.416  0.00  0.00    -0.422 OA
ATOM     22  C   UNL     1      -0.615 -13.677  -1.791  0.00  0.00    +0.348 A 
ATOM     23  O   UNL     1      -1.100 -13.496  -2.892  0.00  0.00    -0.244 OA
ATOM     24 CL   UNL     1      -0.978 -16.503   4.167  0.00  0.00    -0.084 Cl
ENDBRANCH   8  13
BRANCH   1  26
ATOM     25  N   UNL     1       0.058  -4.169  -0.021  0.00  0.00    -0.281 N 
ATOM     26  C   UNL     1      -0.041  -4.838  -1.187  0.00  0.00    +0.255 C 
ATOM     27  O   UNL     1      -0.054  -4.227  -2.240  0.00  0.00    -0.269 OA
ATOM     28  H   UNL     1       0.135  -4.657   0.814  0.00  0.00    +0.155 HD
BRANCH  25  33
ATOM     29  C   UNL     1       0.024   1.503   0.006  0.00  0.00    +0.044 C 
ATOM     30  C   UNL     1       0.033  -0.004  -0.001  0.00  0.00    -0.050 A 
ATOM     31  C   UNL     1       0.631  -0.685  -1.046  0.00  0.00    +0.005 A 
ATOM     32  C   UNL     1       0.641  -2.066  -1.055  0.00  0.00    +0.024 A 
ATOM     33  C   UNL     1       0.050  -2.771  -0.014  0.00  0.00    +0.037 A 
ATOM     34  C   UNL     1      -0.550  -2.083   1.033  0.00  0.00    -0.029 A 
ATOM     35  C   UNL     1      -0.551  -0.702   1.039  0.00  0.00    +0.008 A 
ATOM     36  C   UNL     1      -1.193  -2.843   2.164  0.00  0.00    +0.045 C 
ENDBRANCH  25  33
ENDBRANCH   1  26
TORSDOF 3
