REMARK  Name = ZINC63686430
REMARK  7 active torsions:
REMARK  status: ('A' for Active; 'I' for Inactive)
REMARK    1  A    between atoms: C_1  and  C_2
REMARK    2  A    between atoms: C_5  and  C_28
REMARK    3  A    between atoms: C_11  and  C_13
REMARK    4  A    between atoms: C_13  and  S_14
REMARK    5  A    between atoms: S_14  and  C_15
REMARK    6  A    between atoms: C_19  and  C_23
REMARK    7  A    between atoms: N_21  and  C_22
REMARK                            x       y       z     vdW  Elec       q    Type
REMARK                         _______ _______ _______ _____ _____    ______ ____
ROOT
ATOM      1  C   UNL     1      -0.169  -2.420   4.983  0.00  0.00    +0.122 C 
ENDROOT
BRANCH   1  12
ATOM      2  C   UNL     1      -1.718   2.227   0.574  0.00  0.00    +0.044 C 
ATOM      3  C   UNL     1      -1.416   0.756   0.440  0.00  0.00    -0.038 A 
ATOM      4  C   UNL     1      -1.431   0.161  -0.791  0.00  0.00    +0.004 A 
ATOM      5  C   UNL     1      -1.154  -1.192  -0.923  0.00  0.00    +0.005 A 
ATOM      6  C   UNL     1      -0.858  -1.961   0.181  0.00  0.00    -0.026 A 
ATOM      7  C   UNL     1      -0.836  -1.375   1.443  0.00  0.00    +0.054 A 
ATOM      8  C   UNL     1      -1.113  -0.002   1.570  0.00  0.00    +0.048 A 
ATOM      9  C   UNL     1      -1.079   0.599   2.915  0.00  0.00    +0.190 A 
ATOM     10  O   UNL     1      -1.316   1.784   3.081  0.00  0.00    -0.287 OA
ATOM     11  C   UNL     1      -0.762  -0.243   4.006  0.00  0.00    +0.073 A 
ATOM     12  C   UNL     1      -0.503  -1.551   3.799  0.00  0.00    +0.030 A 
ATOM     13  N   UNL     1      -0.543  -2.115   2.567  0.00  0.00    -0.357 N 
ATOM     14  C   UNL     1      -0.559  -3.429   0.023  0.00  0.00    +0.046 C 
ATOM     15  H   UNL     1      -0.349  -3.061   2.474  0.00  0.00    +0.166 HD
ENDBRANCH   1  12
BRANCH   1  16
ATOM     16  S   UNL     1      -1.595  -3.467   5.387  0.00  0.00    -0.154 S 
BRANCH  16  17
ATOM     17  C   UNL     1      -1.091  -4.329   6.901  0.00  0.00    +0.077 C 
ATOM     18  N   UNL     1      -0.158  -5.431   6.571  0.00  0.00    -0.261 NA
ATOM     19  N   UNL     1      -0.518  -6.509   7.506  0.00  0.00    -0.264 NA
ATOM     20  C   UNL     1      -1.999  -6.408   7.580  0.00  0.00    +0.085 C 
ATOM     21  N   UNL     1      -2.267  -4.951   7.545  0.00  0.00    +0.411 N 
ATOM     22  C   UNL     1      -2.427  -4.433   8.910  0.00  0.00    -0.090 C 
ATOM     23  H   UNL     1      -0.274  -5.728   5.614  0.00  0.00    +0.140 HD
ATOM     24  H   UNL     1      -0.234  -7.409   7.146  0.00  0.00    +0.139 HD
ATOM     25  H   UNL     1      -3.098  -4.764   7.003  0.00  0.00    -0.076 HD
BRANCH  20  26
ATOM     26  C   UNL     1      -2.635  -7.094   6.399  0.00  0.00    +0.106 A 
ATOM     27  C   UNL     1      -2.183  -8.211   5.800  0.00  0.00    +0.044 A 
ATOM     28  C   UNL     1      -3.077  -8.500   4.744  0.00  0.00    +0.041 A 
ATOM     29  C   UNL     1      -4.021  -7.542   4.760  0.00  0.00    +0.195 A 
ATOM     30  O   UNL     1      -3.752  -6.697   5.768  0.00  0.00    -0.468 OA
ENDBRANCH  20  26
ENDBRANCH  16  17
ENDBRANCH   1  16
TORSDOF 4
