REMARK  Name = ZINC50702426
REMARK  6 active torsions:
REMARK  status: ('A' for Active; 'I' for Inactive)
REMARK    1  A    between atoms: C_1  and  C_2
REMARK    2  A    between atoms: C_2  and  C_4
REMARK    3  A    between atoms: C_2  and  N_9
REMARK    4  A    between atoms: C_10  and  C_12
REMARK    5  A    between atoms: C_14  and  N_20
REMARK    6  A    between atoms: C_15  and  N_19
REMARK                            x       y       z     vdW  Elec       q    Type
REMARK                         _______ _______ _______ _____ _____    ______ ____
ROOT
ATOM      1  C   UNL     1       0.735  -1.337  -3.484  0.00  0.00    +0.040 A 
ATOM      2  C   UNL     1      -0.043  -1.531  -4.630  0.00  0.00    +0.047 A 
ATOM      3  C   UNL     1       0.566  -1.722  -5.849  0.00  0.00    +0.149 A 
ATOM      4  C   UNL     1       1.955  -1.722  -5.943  0.00  0.00    +0.074 A 
ATOM      5  C   UNL     1       2.733  -1.529  -4.803  0.00  0.00    +0.065 A 
ATOM      6  C   UNL     1       2.129  -1.331  -3.582  0.00  0.00    +0.035 A 
ATOM      7 CL   UNL     1       4.465  -1.530  -4.925  0.00  0.00    -0.082 Cl
ENDROOT
BRANCH   1   9
ATOM      8  N   UNL     1       0.835  -0.939  -1.073  0.00  0.00    -0.302 N 
ATOM      9  C   UNL     1       0.084  -1.132  -2.176  0.00  0.00    +0.245 C 
ATOM     10  O   UNL     1      -1.129  -1.137  -2.092  0.00  0.00    -0.270 OA
ATOM     11  H   UNL     1       1.803  -0.935  -1.140  0.00  0.00    +0.150 HD
BRANCH   8  13
ATOM     12  C   UNL     1      -0.170   0.743   0.391  0.00  0.00    +0.036 C 
ATOM     13  C   UNL     1       0.189  -0.736   0.226  0.00  0.00    +0.136 C 
BRANCH  13  14
ATOM     14  C   UNL     1       1.133  -1.149   1.326  0.00  0.00    +0.125 A 
ATOM     15  C   UNL     1       0.794  -1.817   2.443  0.00  0.00    +0.046 A 
ATOM     16  C   UNL     1       1.981  -1.993   3.191  0.00  0.00    +0.041 A 
ATOM     17  C   UNL     1       2.974  -1.422   2.486  0.00  0.00    +0.195 A 
ATOM     18  O   UNL     1       2.455  -0.917   1.355  0.00  0.00    -0.466 OA
ENDBRANCH  13  14
ENDBRANCH   8  13
ENDBRANCH   1   9
BRANCH   4  19
ATOM     19  N   UNL     1       2.567  -1.915  -7.177  0.00  0.00    -0.355 N 
ATOM     20  H   UNL     1       2.034  -1.923  -7.987  0.00  0.00    +0.142 HD
ATOM     21  H   UNL     1       3.528  -2.042  -7.227  0.00  0.00    +0.142 HD
ENDBRANCH   4  19
BRANCH   3  22
ATOM     22  N   UNL     1      -0.257  -1.929  -7.062  0.00  0.00    +0.058 N 
ATOM     23  O   UNL     1      -1.288  -1.314  -7.205  0.00  0.00    -0.126 OA
ATOM     24  O   UNL     1       0.102  -2.712  -7.910  0.00  0.00    -0.126 OA
ENDBRANCH   3  22
TORSDOF 5
