REMARK  Name = ZINC21487354
REMARK  4 active torsions:
REMARK  status: ('A' for Active; 'I' for Inactive)
REMARK    1  A    between atoms: C_1  and  C_2
REMARK    2  A    between atoms: C_4  and  N_18
REMARK    3  A    between atoms: C_6  and  S_8
REMARK    4  A    between atoms: S_8  and  C_9
REMARK                            x       y       z     vdW  Elec       q    Type
REMARK                         _______ _______ _______ _____ _____    ______ ____
ROOT
ATOM      1  C   UNL     1      -6.282   2.684   4.285  0.00  0.00    +0.066 C 
ATOM      2  C   UNL     1      -4.803   2.526   4.043  0.00  0.00    +0.044 A 
ATOM      3  C   UNL     1      -3.903   2.717   5.074  0.00  0.00    +0.066 A 
ATOM      4  C   UNL     1      -2.541   2.560   4.807  0.00  0.00    +0.121 A 
ATOM      5  N   UNL     1      -2.158   2.233   3.577  0.00  0.00    -0.207 NA
ATOM      6  C   UNL     1      -3.054   2.058   2.615  0.00  0.00    +0.191 A 
ATOM      7  N   UNL     1      -4.352   2.206   2.839  0.00  0.00    -0.227 NA
ENDROOT
BRANCH   4   8
ATOM      8  N   UNL     1      -1.603   2.742   5.810  0.00  0.00    -0.343 N 
ATOM      9  H   UNL     1      -0.532   2.616   5.591  0.00  0.00    +0.144 HD
ATOM     10  H   UNL     1      -1.929   3.012   6.825  0.00  0.00    +0.144 HD
ENDBRANCH   4   8
BRANCH   6  11
ATOM     11  S   UNL     1      -2.505   1.626   0.998  0.00  0.00    -0.073 S 
BRANCH  11  12
ATOM     12  C   UNL     1      -0.717   1.573   1.277  0.00  0.00    +0.140 C 
ATOM     13  C   UNL     1      -0.013   1.086   0.008  0.00  0.00    +0.024 C 
ATOM     14  C   UNL     1      -0.735   1.583  -1.231  0.00  0.00    +0.003 C 
ATOM     15  C   UNL     1      -0.668   3.087  -1.417  0.00  0.00    +0.019 C 
ATOM     16  C   UNL     1      -1.450   3.808  -0.317  0.00  0.00    +0.104 C 
ATOM     17  N   UNL     1      -0.562   4.000   0.842  0.00  0.00    -0.314 N 
ATOM     18  C   UNL     1      -0.211   2.963   1.603  0.00  0.00    +0.226 C 
ATOM     19  O   UNL     1       0.517   3.134   2.558  0.00  0.00    -0.275 OA
ATOM     20  H   UNL     1      -0.185   5.005   1.085  0.00  0.00    +0.149 HD
ENDBRANCH  11  12
ENDBRANCH   6  11
TORSDOF 3
