REMARK  Name = ZINC39531361
REMARK  11 active torsions:
REMARK  status: ('A' for Active; 'I' for Inactive)
REMARK    1  A    between atoms: C_1  and  C_2
REMARK    2  A    between atoms: C_2  and  O_3
REMARK    3  A    between atoms: O_3  and  C_4
REMARK    4  A    between atoms: N_7  and  C_11
REMARK    5  A    between atoms: C_11  and  C_13
REMARK    6  A    between atoms: C_11  and  C_22
REMARK    7  A    between atoms: C_13  and  N_14
REMARK    8  A    between atoms: N_14  and  C_15
REMARK    9  A    between atoms: C_15  and  C_16
REMARK   10  A    between atoms: C_25  and  C_28
REMARK   11  A    between atoms: C_28  and  C_29
REMARK                            x       y       z     vdW  Elec       q    Type
REMARK                         _______ _______ _______ _____ _____    ______ ____
ROOT
ATOM      1  C   UNL     1      -4.327  -4.206  -0.707  0.00  0.00    -0.023 C 
ENDROOT
BRANCH   1   4
ATOM      2  C   UNL     1      -0.915  -2.709  -0.251  0.00  0.00    +0.169 C 
ATOM      3  C   UNL     1      -2.435  -2.760  -0.414  0.00  0.00    -0.030 C 
ATOM      4  N   UNL     1      -2.869  -4.159  -0.532  0.00  0.00    +0.388 N 
ATOM      5  C   UNL     1      -2.498  -4.892   0.685  0.00  0.00    -0.062 C 
ATOM      6  C   UNL     1      -0.978  -4.859   0.858  0.00  0.00    +0.065 C 
ATOM      7  N   UNL     1      -0.528  -3.463   0.950  0.00  0.00    -0.295 NA
ATOM      8  H   UNL     1       0.468  -3.413   1.103  0.00  0.00    +0.124 HD
ATOM      9  H   UNL     1      -2.421  -4.583  -1.330  0.00  0.00    -0.081 HD
BRANCH   2  10
ATOM     10  O   UNL     1      -0.495  -1.350  -0.117  0.00  0.00    -0.364 OA
BRANCH  10  12
ATOM     11  C   UNL     1       1.244   0.329  -0.130  0.00  0.00    +0.034 C 
ATOM     12  C   UNL     1       0.910  -1.155  -0.295  0.00  0.00    +0.158 C 
ENDBRANCH  10  12
ENDBRANCH   2  10
ENDBRANCH   1   4
BRANCH   1  13
ATOM     13  C   UNL     1      -4.790  -5.640  -0.674  0.00  0.00    -0.060 A 
ATOM     14  C   UNL     1      -4.041  -6.623  -1.293  0.00  0.00    +0.002 A 
ATOM     15  C   UNL     1      -4.466  -7.938  -1.263  0.00  0.00    +0.004 A 
ATOM     16  C   UNL     1      -5.640  -8.270  -0.613  0.00  0.00    -0.043 A 
ATOM     17  C   UNL     1      -6.388  -7.287   0.008  0.00  0.00    +0.004 A 
ATOM     18  C   UNL     1      -5.961  -5.972  -0.019  0.00  0.00    +0.002 A 
BRANCH  16  19
ATOM     19  C   UNL     1      -6.104  -9.703  -0.580  0.00  0.00    +0.070 C 
BRANCH  19  20
ATOM     20  C   UNL     1      -5.533 -10.389   0.634  0.00  0.00    -0.043 A 
ATOM     21  C   UNL     1      -4.308 -11.024   0.557  0.00  0.00    +0.004 A 
ATOM     22  C   UNL     1      -3.784 -11.653   1.671  0.00  0.00    +0.000 A 
ATOM     23  C   UNL     1      -4.485 -11.646   2.862  0.00  0.00    +0.000 A 
ATOM     24  C   UNL     1      -5.710 -11.010   2.940  0.00  0.00    +0.000 A 
ATOM     25  C   UNL     1      -6.232 -10.378   1.827  0.00  0.00    +0.004 A 
ENDBRANCH  19  20
ENDBRANCH  16  19
ENDBRANCH   1  13
BRANCH   1  26
ATOM     26  C   UNL     1      -4.699  -3.580  -2.052  0.00  0.00    +0.070 C 
BRANCH  26  27
ATOM     27  N   UNL     1      -4.401  -2.142  -2.023  0.00  0.00    -0.313 NA
ATOM     28  H   UNL     1      -4.874  -1.690  -1.255  0.00  0.00    +0.122 HD
BRANCH  27  29
ATOM     29  C   UNL     1      -4.747  -1.507  -3.301  0.00  0.00    +0.116 C 
BRANCH  29  30
ATOM     30  C   UNL     1      -4.428  -0.036  -3.234  0.00  0.00    -0.034 A 
ATOM     31  C   UNL     1      -5.383   0.859  -2.789  0.00  0.00    +0.005 A 
ATOM     32  C   UNL     1      -5.090   2.209  -2.727  0.00  0.00    +0.000 A 
ATOM     33  C   UNL     1      -3.841   2.663  -3.109  0.00  0.00    +0.000 A 
ATOM     34  C   UNL     1      -2.886   1.768  -3.553  0.00  0.00    +0.000 A 
ATOM     35  C   UNL     1      -3.178   0.418  -3.611  0.00  0.00    +0.005 A 
ENDBRANCH  29  30
ENDBRANCH  27  29
ENDBRANCH  26  27
ENDBRANCH   1  26
TORSDOF 10
