REMARK  Name = ZINC45644767
REMARK  7 active torsions:
REMARK  status: ('A' for Active; 'I' for Inactive)
REMARK    1  A    between atoms: C_1  and  N_2
REMARK    2  A    between atoms: N_2  and  C_3
REMARK    3  A    between atoms: C_3  and  C_4
REMARK    4  A    between atoms: N_16  and  C_17
REMARK    5  A    between atoms: C_19  and  C_25
REMARK    6  A    between atoms: C_22  and  O_23
REMARK    7  A    between atoms: O_23  and  C_24
REMARK                            x       y       z     vdW  Elec       q    Type
REMARK                         _______ _______ _______ _____ _____    ______ ____
ROOT
ATOM      1  C   UNL     1      -0.040   1.460   0.011  0.00  0.00    +0.134 C 
ATOM      2  N   UNL     1      -0.015  -0.005   0.002  0.00  0.00    -0.284 N 
ATOM      3  C   UNL     1      -0.006  -0.672  -1.169  0.00  0.00    +0.307 C 
ATOM      4  O   UNL     1       0.015  -1.888  -1.176  0.00  0.00    -0.252 OA
ATOM      5  N   UNL     1      -0.020   0.009  -2.332  0.00  0.00    -0.266 N 
ATOM      6  H   UNL     1      -0.102   0.975  -2.328  0.00  0.00    +0.156 HD
ENDROOT
BRANCH   5   7
ATOM      7  C   UNL     1       0.084  -0.680  -3.549  0.00  0.00    +0.077 A 
ATOM      8  C   UNL     1      -0.490  -1.931  -3.687  0.00  0.00    +0.040 A 
ATOM      9  C   UNL     1      -0.385  -2.614  -4.901  0.00  0.00    +0.038 A 
ATOM     10  C   UNL     1       0.299  -2.031  -5.970  0.00  0.00    +0.017 A 
ATOM     11  C   UNL     1       0.869  -0.784  -5.827  0.00  0.00    +0.048 A 
ATOM     12  C   UNL     1       0.760  -0.102  -4.623  0.00  0.00    +0.141 A 
BRANCH   9  13
ATOM     13  C   UNL     1      -0.995  -3.950  -5.053  0.00  0.00    +0.242 C 
ATOM     14  O   UNL     1      -1.589  -4.456  -4.122  0.00  0.00    -0.270 OA
ATOM     15  N   UNL     1      -0.892  -4.607  -6.225  0.00  0.00    -0.325 N 
ATOM     16  H   UNL     1      -0.418  -4.203  -6.968  0.00  0.00    +0.145 HD
ATOM     17  H   UNL     1      -1.293  -5.485  -6.325  0.00  0.00    +0.145 HD
ENDBRANCH   9  13
BRANCH  12  18
ATOM     18  O   UNL     1       1.319   1.129  -4.489  0.00  0.00    -0.493 OA
ATOM     19  C   UNL     1       1.997   1.661  -5.628  0.00  0.00    +0.277 C 
ENDBRANCH  12  18
ENDBRANCH   5   7
BRANCH   2  20
ATOM     20  C   UNL     1       0.000  -0.745   1.266  0.00  0.00    +0.144 C 
BRANCH  20  21
ATOM     21  C   UNL     1      -1.415  -1.023   1.703  0.00  0.00    -0.026 A 
ATOM     22  C   UNL     1      -2.082  -0.114   2.503  0.00  0.00    +0.009 A 
ATOM     23  C   UNL     1      -3.379  -0.366   2.907  0.00  0.00    +0.050 A 
ATOM     24  C   UNL     1      -4.016  -1.533   2.509  0.00  0.00    +0.162 A 
ATOM     25  C   UNL     1      -3.347  -2.445   1.703  0.00  0.00    +0.162 A 
ATOM     26  C   UNL     1      -2.046  -2.184   1.298  0.00  0.00    +0.054 A 
ATOM     27  O   UNL     1      -3.956  -3.592   1.295  0.00  0.00    -0.485 OA
ATOM     28  C   UNL     1      -5.125  -3.993   2.018  0.00  0.00    +0.270 C 
ATOM     29  C   UNL     1      -6.026  -2.763   2.194  0.00  0.00    +0.270 C 
ATOM     30  O   UNL     1      -5.293  -1.769   2.918  0.00  0.00    -0.485 OA
ENDBRANCH  20  21
ENDBRANCH   2  20
TORSDOF 5
