REMARK  Name = ZINC32831100
REMARK  5 active torsions:
REMARK  status: ('A' for Active; 'I' for Inactive)
REMARK    1  A    between atoms: C_3  and  S_21
REMARK    2  A    between atoms: C_5  and  C_6
REMARK    3  A    between atoms: C_6  and  C_7
REMARK    4  A    between atoms: N_9  and  C_10
REMARK    5  A    between atoms: S_21  and  N_24
REMARK                            x       y       z     vdW  Elec       q    Type
REMARK                         _______ _______ _______ _____ _____    ______ ____
ROOT
ATOM      1  C   UNL     1       4.257  -0.539  -1.462  0.00  0.00    +0.222 C 
ATOM      2  O   UNL     1       3.498  -0.292  -2.376  0.00  0.00    -0.275 OA
ATOM      3  N   UNL     1       5.511  -0.958  -1.722  0.00  0.00    -0.284 N 
ATOM      4  H   UNL     1       6.222  -1.111  -0.896  0.00  0.00    +0.155 HD
ENDROOT
BRANCH   3   5
ATOM      5  C   UNL     1       5.910  -1.198  -3.044  0.00  0.00    +0.051 A 
ATOM      6  C   UNL     1       5.414  -0.410  -4.073  0.00  0.00    +0.073 A 
ATOM      7  C   UNL     1       5.810  -0.646  -5.380  0.00  0.00    +0.164 A 
ATOM      8  C   UNL     1       6.705  -1.673  -5.658  0.00  0.00    +0.163 A 
ATOM      9  C   UNL     1       7.198  -2.459  -4.628  0.00  0.00    +0.066 A 
ATOM     10  C   UNL     1       6.807  -2.220  -3.324  0.00  0.00    +0.043 A 
ATOM     11 BR   UNL     1       7.489  -3.291  -1.922  0.00  0.00    -0.048 Br
ATOM     12  O   UNL     1       7.109  -1.917  -6.936  0.00  0.00    -0.485 OA
ATOM     13  C   UNL     1       6.310  -1.355  -7.982  0.00  0.00    +0.270 C 
ATOM     14  C   UNL     1       6.014   0.108  -7.626  0.00  0.00    +0.270 C 
ATOM     15  O   UNL     1       5.311   0.133  -6.379  0.00  0.00    -0.485 OA
ENDBRANCH   3   5
BRANCH   1  16
ATOM     16  C   UNL     1       3.796  -0.379  -0.036  0.00  0.00    +0.138 C 
BRANCH  16  21
ATOM     17  C   UNL     1       1.224  -0.634  -0.007  0.00  0.00    +0.013 A 
ATOM     18  C   UNL     1       0.008   0.024   0.006  0.00  0.00    +0.036 A 
ATOM     19  C   UNL     1      -0.006   1.379   0.004  0.00  0.00    +0.142 A 
ATOM     20  S   UNL     1       1.736   1.767  -0.016  0.00  0.00    -0.073 S 
ATOM     21  C   UNL     1       2.366   0.096  -0.021  0.00  0.00    +0.000 A 
BRANCH  19  22
ATOM     22  S   UNL     1      -1.387   2.474   0.012  0.00  0.00    +0.062 S 
ATOM     23  O   UNL     1      -0.935   3.702  -0.543  0.00  0.00    -0.153 OA
ATOM     24  O   UNL     1      -2.482   1.750  -0.530  0.00  0.00    -0.153 OA
BRANCH  22  25
ATOM     25  N   UNL     1      -1.759   2.780   1.596  0.00  0.00    -0.203 NA
ATOM     26  H   UNL     1      -2.620   3.464   1.645  0.00  0.00    +0.144 HD
ATOM     27  H   UNL     1      -0.895   3.244   2.093  0.00  0.00    +0.144 HD
ENDBRANCH  22  25
ENDBRANCH  19  22
ENDBRANCH  16  21
ENDBRANCH   1  16
TORSDOF 5
