REMARK  Name = ZINC36698397
REMARK  9 active torsions:
REMARK  status: ('A' for Active; 'I' for Inactive)
REMARK    1  A    between atoms: C_1  and  C_2
REMARK    2  A    between atoms: C_7  and  C_8
REMARK    3  A    between atoms: N_11  and  C_12
REMARK    4  A    between atoms: C_12  and  C_14
REMARK    5  A    between atoms: C_19  and  N_20
REMARK    6  A    between atoms: N_20  and  S_21
REMARK    7  A    between atoms: S_21  and  C_24
REMARK    8  A    between atoms: N_31  and  C_32
REMARK    9  A    between atoms: C_32  and  C_33
REMARK                            x       y       z     vdW  Elec       q    Type
REMARK                         _______ _______ _______ _____ _____    ______ ____
ROOT
ATOM      1  C   UNL     1       0.355  -7.435  -3.595  0.00  0.00    +0.061 A 
ATOM      2  C   UNL     1       0.516  -6.993  -4.909  0.00  0.00    +0.015 A 
ATOM      3  C   UNL     1       0.592  -7.907  -5.937  0.00  0.00    +0.001 A 
ATOM      4  C   UNL     1       0.507  -9.265  -5.674  0.00  0.00    +0.002 A 
ATOM      5  C   UNL     1       0.348  -9.717  -4.380  0.00  0.00    +0.025 A 
ATOM      6  C   UNL     1       0.276  -8.810  -3.330  0.00  0.00    +0.060 A 
ENDROOT
BRANCH   1   7
ATOM      7  C   UNL     1       0.274  -6.460  -2.487  0.00  0.00    +0.271 C 
ATOM      8  O   UNL     1       0.139  -6.849  -1.340  0.00  0.00    -0.268 OA
BRANCH   7  19
ATOM      9  C   UNL     1       0.213   1.311   0.847  0.00  0.00    +0.044 C 
ATOM     10  C   UNL     1       0.170  -0.190   0.719  0.00  0.00    -0.046 A 
ATOM     11  C   UNL     1       0.281  -0.765  -0.526  0.00  0.00    +0.030 A 
ATOM     12  C   UNL     1       0.244  -2.159  -0.674  0.00  0.00    +0.058 A 
ATOM     13  C   UNL     1       0.091  -2.920   0.494  0.00  0.00    +0.039 A 
ATOM     14  C   UNL     1      -0.019  -2.344   1.737  0.00  0.00    +0.020 A 
ATOM     15  C   UNL     1       0.025  -0.965   1.857  0.00  0.00    -0.046 A 
ATOM     16  C   UNL     1      -0.087  -0.315   3.211  0.00  0.00    +0.044 C 
ATOM     17  S   UNL     1       0.092  -4.588  -0.108  0.00  0.00    -0.052 S 
ATOM     18  C   UNL     1       0.277  -4.272  -1.749  0.00  0.00    +0.167 A 
ATOM     19  N   UNL     1       0.350  -5.149  -2.744  0.00  0.00    -0.152 NA
ATOM     20  N   UNL     1       0.337  -2.917  -1.826  0.00  0.00    -0.317 N 
BRANCH  20  21
ATOM     21  C   UNL     1       0.499  -2.261  -3.126  0.00  0.00    +0.151 C 
BRANCH  21  22
ATOM     22  C   UNL     1       1.966  -2.090  -3.423  0.00  0.00    -0.013 C 
ATOM     23  C   UNL     1       2.469  -2.563  -4.536  0.00  0.00    +0.005 C 
ENDBRANCH  21  22
ENDBRANCH  20  21
ENDBRANCH   7  19
ENDBRANCH   1   7
BRANCH   6  24
ATOM     24  N   UNL     1       0.121  -9.263  -2.025  0.00  0.00    -0.216 N 
ATOM     25  H   UNL     1      -0.417  -8.756  -1.397  0.00  0.00    +0.174 HD
BRANCH  24  26
ATOM     26  S   UNL     1       0.854 -10.667  -1.544  0.00  0.00    +0.072 S 
ATOM     27  O   UNL     1       0.621 -10.789  -0.147  0.00  0.00    -0.150 OA
ATOM     28  O   UNL     1       0.462 -11.669  -2.471  0.00  0.00    -0.150 OA
BRANCH  26  29
ATOM     29  C   UNL     1       2.590 -10.445  -1.746  0.00  0.00    +0.109 A 
ATOM     30  C   UNL     1       3.193 -10.775  -2.946  0.00  0.00    +0.031 A 
ATOM     31  C   UNL     1       4.555 -10.601  -3.106  0.00  0.00    +0.040 A 
ATOM     32  C   UNL     1       5.315 -10.095  -2.066  0.00  0.00    +0.124 A 
ATOM     33  C   UNL     1       4.710  -9.764  -0.865  0.00  0.00    +0.040 A 
ATOM     34  C   UNL     1       3.347  -9.934  -0.709  0.00  0.00    +0.031 A 
ATOM     35  F   UNL     1       6.646  -9.924  -2.221  0.00  0.00    -0.205 F 
ENDBRANCH  26  29
ENDBRANCH  24  26
ENDBRANCH   6  24
TORSDOF 7
