REMARK  Name = ZINC40682028
REMARK  7 active torsions:
REMARK  status: ('A' for Active; 'I' for Inactive)
REMARK    1  A    between atoms: C_1  and  C_2
REMARK    2  A    between atoms: C_4  and  C_24
REMARK    3  A    between atoms: C_6  and  N_8
REMARK    4  A    between atoms: C_10  and  N_23
REMARK    5  A    between atoms: C_11  and  N_15
REMARK    6  A    between atoms: C_18  and  C_22
REMARK    7  A    between atoms: C_19  and  C_21
REMARK                            x       y       z     vdW  Elec       q    Type
REMARK                         _______ _______ _______ _____ _____    ______ ____
ROOT
ATOM      1  N   UNL     1       0.051  -2.797   2.391  0.00  0.00    -0.298 N 
ATOM      2  C   UNL     1       0.153  -2.113   3.597  0.00  0.00    +0.149 A 
ATOM      3  C   UNL     1       0.279  -2.812   4.800  0.00  0.00    +0.106 A 
ATOM      4  C   UNL     1       0.378  -2.077   5.982  0.00  0.00    +0.150 A 
ATOM      5  N   UNL     1       0.348  -0.747   5.919  0.00  0.00    -0.219 NA
ATOM      6  C   UNL     1       0.227  -0.127   4.763  0.00  0.00    +0.225 A 
ATOM      7  N   UNL     1       0.137  -0.783   3.624  0.00  0.00    -0.219 NA
ATOM      8  H   UNL     1      -0.014  -3.765   2.386  0.00  0.00    +0.154 HD
ENDROOT
BRANCH   4   9
ATOM      9  N   UNL     1       0.504  -2.723   7.208  0.00  0.00    -0.277 N 
ATOM     10  C   UNL     1       0.602  -1.981   8.376  0.00  0.00    +0.164 A 
ATOM     11  N   UNL     1       0.586  -0.673   8.518  0.00  0.00    -0.230 NA
ATOM     12  C   UNL     1       0.689  -0.115   9.711  0.00  0.00    +0.050 A 
ATOM     13  C   UNL     1       0.811  -0.949  10.772  0.00  0.00    +0.011 A 
ATOM     14  S   UNL     1       0.760  -2.536   9.957  0.00  0.00    -0.057 S 
ATOM     15  C   UNL     1       0.946  -0.625  12.238  0.00  0.00    +0.053 C 
ATOM     16  C   UNL     1       0.673   1.382   9.884  0.00  0.00    +0.066 C 
ATOM     17  H   UNL     1       0.525  -3.692   7.245  0.00  0.00    +0.156 HD
ENDBRANCH   4   9
BRANCH   1  23
ATOM     18  C   UNL     1      -1.494  -2.375  -2.256  0.00  0.00    +0.044 C 
ATOM     19  C   UNL     1      -0.697  -1.862  -1.084  0.00  0.00    -0.048 A 
ATOM     20  C   UNL     1       0.028  -0.690  -1.201  0.00  0.00    +0.006 A 
ATOM     21  C   UNL     1       0.760  -0.216  -0.128  0.00  0.00    -0.048 A 
ATOM     22  C   UNL     1       0.770  -0.912   1.064  0.00  0.00    +0.026 A 
ATOM     23  C   UNL     1       0.043  -2.090   1.186  0.00  0.00    +0.033 A 
ATOM     24  C   UNL     1      -0.696  -2.560   0.108  0.00  0.00    +0.026 A 
ATOM     25  C   UNL     1       1.548   1.061  -0.261  0.00  0.00    +0.044 C 
ENDBRANCH   1  23
BRANCH   3  26
ATOM     26  N   UNL     1       0.306  -4.215   4.819  0.00  0.00    -0.353 N 
ATOM     27  H   UNL     1       0.236  -4.713   3.990  0.00  0.00    +0.143 HD
ATOM     28  H   UNL     1       0.394  -4.687   5.662  0.00  0.00    +0.143 HD
ENDBRANCH   3  26
TORSDOF 3
