REMARK  Name = ZINC19734395
REMARK  5 active torsions:
REMARK  status: ('A' for Active; 'I' for Inactive)
REMARK    1  A    between atoms: C_1  and  C_2
REMARK    2  A    between atoms: C_2  and  C_4
REMARK    3  A    between atoms: C_2  and  N_7
REMARK    4  A    between atoms: C_15  and  C_16
REMARK    5  A    between atoms: C_19  and  N_22
REMARK                            x       y       z     vdW  Elec       q    Type
REMARK                         _______ _______ _______ _____ _____    ______ ____
ROOT
ATOM      1  N   UNL     1       3.766   1.759  -0.211  0.00  0.00    -0.311 N 
ATOM      2  C   UNL     1       4.745   0.826  -0.493  0.00  0.00    +0.068 A 
ATOM      3  C   UNL     1       6.122   0.792  -0.319  0.00  0.00    +0.028 A 
ATOM      4  C   UNL     1       6.835  -0.317  -0.723  0.00  0.00    +0.002 A 
ATOM      5  C   UNL     1       6.185  -1.398  -1.302  0.00  0.00    +0.002 A 
ATOM      6  C   UNL     1       4.831  -1.383  -1.482  0.00  0.00    +0.028 A 
ATOM      7  C   UNL     1       4.087  -0.269  -1.079  0.00  0.00    +0.065 A 
ATOM      8  N   UNL     1       2.767   0.034  -1.124  0.00  0.00    -0.339 N 
ATOM      9  C   UNL     1       2.570   1.224  -0.611  0.00  0.00    +0.120 A 
ATOM     10  H   UNL     1       2.051  -0.686  -1.548  0.00  0.00    +0.167 HD
ENDROOT
BRANCH   9  11
ATOM     11  C   UNL     1       1.258   1.892  -0.490  0.00  0.00    +0.016 A 
ATOM     12  C   UNL     1       0.111   1.138  -0.230  0.00  0.00    +0.013 A 
ATOM     13  C   UNL     1      -1.112   1.762  -0.123  0.00  0.00    +0.023 A 
ATOM     14  C   UNL     1      -1.204   3.143  -0.263  0.00  0.00    +0.025 A 
ATOM     15  C   UNL     1      -0.064   3.897  -0.522  0.00  0.00    +0.023 A 
ATOM     16  C   UNL     1       1.161   3.277  -0.635  0.00  0.00    +0.013 A 
BRANCH  14  17
ATOM     17  N   UNL     1      -2.442   3.773  -0.149  0.00  0.00    -0.358 N 
ATOM     18  H   UNL     1      -2.517   4.864  -0.259  0.00  0.00    +0.142 HD
ATOM     19  H   UNL     1      -3.346   3.178   0.052  0.00  0.00    +0.142 HD
ENDBRANCH  14  17
ENDBRANCH   9  11
BRANCH   1  21
ATOM     20  C   UNL     1       5.467   3.356   0.521  0.00  0.00    +0.043 C 
ATOM     21  C   UNL     1       3.968   3.073   0.404  0.00  0.00    +0.199 C 
BRANCH  21  22
ATOM     22  C   UNL     1       3.345   3.087   1.777  0.00  0.00    +0.378 C 
ATOM     23  O   UNL     1       4.041   3.225   2.754  0.00  0.00    -0.244 OA
ATOM     24  O   UNL     1       2.017   2.945   1.913  0.00  0.00    -0.244 OA
ENDBRANCH  21  22
ENDBRANCH   1  21
TORSDOF 4
