REMARK  Name = ZINC01106301
REMARK  8 active torsions:
REMARK  status: ('A' for Active; 'I' for Inactive)
REMARK    1  A    between atoms: C_1  and  C_2
REMARK    2  A    between atoms: C_2  and  C_3
REMARK    3  A    between atoms: C_5  and  N_32
REMARK    4  A    between atoms: C_6  and  C_19
REMARK    5  A    between atoms: C_15  and  C_17
REMARK    6  A    between atoms: C_15  and  C_18
REMARK    7  A    between atoms: N_21  and  C_22
REMARK    8  A    between atoms: C_22  and  C_23
REMARK                            x       y       z     vdW  Elec       q    Type
REMARK                         _______ _______ _______ _____ _____    ______ ____
ROOT
ATOM      1  C   UNL     1      11.118  -3.881  -0.169  0.00  0.00    -0.024 A 
ATOM      2  C   UNL     1      10.026  -2.994  -0.274  0.00  0.00    +0.033 A 
ATOM      3  C   UNL     1       9.554  -2.014   0.695  0.00  0.00    +0.054 A 
ATOM      4  C   UNL     1       8.457  -1.249   0.369  0.00  0.00    +0.097 A 
ATOM      5  S   UNL     1       8.016  -1.829  -1.257  0.00  0.00    -0.062 S 
ATOM      6  C   UNL     1       9.283  -3.054  -1.478  0.00  0.00    +0.111 A 
ATOM      7  N   UNL     1       9.575  -3.887  -2.455  0.00  0.00    -0.244 NA
ATOM      8  C   UNL     1      10.588  -4.728  -2.379  0.00  0.00    +0.054 A 
ATOM      9  C   UNL     1      11.391  -4.742  -1.229  0.00  0.00    +0.043 A 
ATOM     10  C   UNL     1      12.533  -5.669  -1.139  0.00  0.00    +0.166 C 
ATOM     11  O   UNL     1      13.361  -5.560  -0.259  0.00  0.00    -0.292 OA
ATOM     12  C   UNL     1      12.638  -6.761  -2.182  0.00  0.00    +0.086 C 
ATOM     13  C   UNL     1      12.302  -6.133  -3.541  0.00  0.00    -0.022 C 
ATOM     14  C   UNL     1      10.852  -5.656  -3.534  0.00  0.00    +0.063 C 
ATOM     15  C   UNL     1      12.493  -7.173  -4.646  0.00  0.00    +0.011 C 
ATOM     16  C   UNL     1      13.229  -4.942  -3.795  0.00  0.00    +0.011 C 
ENDROOT
BRANCH   4  17
ATOM     17  C   UNL     1       7.827  -0.244   1.144  0.00  0.00    +0.253 C 
ATOM     18  O   UNL     1       8.256   0.031   2.250  0.00  0.00    -0.270 OA
ATOM     19  N   UNL     1       6.752   0.408   0.657  0.00  0.00    -0.307 N 
ATOM     20  H   UNL     1       6.410   0.189  -0.224  0.00  0.00    +0.149 HD
BRANCH  19  21
ATOM     21  C   UNL     1       6.100   1.447   1.458  0.00  0.00    +0.140 C 
BRANCH  21  22
ATOM     22  C   UNL     1       4.934   2.014   0.691  0.00  0.00    -0.027 A 
ATOM     23  C   UNL     1       3.679   1.448   0.825  0.00  0.00    +0.009 A 
ATOM     24  C   UNL     1       2.606   1.965   0.123  0.00  0.00    +0.050 A 
ATOM     25  C   UNL     1       2.786   3.053  -0.717  0.00  0.00    +0.166 A 
ATOM     26  C   UNL     1       4.049   3.623  -0.851  0.00  0.00    +0.167 A 
ATOM     27  C   UNL     1       5.120   3.100  -0.144  0.00  0.00    +0.054 A 
ATOM     28  O   UNL     1       3.965   4.669  -1.724  0.00  0.00    -0.453 OA
ATOM     29  C   UNL     1       2.564   4.988  -1.809  0.00  0.00    +0.466 C 
ATOM     30  O   UNL     1       1.911   3.741  -1.506  0.00  0.00    -0.453 OA
ENDBRANCH  21  22
ENDBRANCH  19  21
ENDBRANCH   4  17
BRANCH   3  31
ATOM     31  N   UNL     1      10.194  -1.857   1.915  0.00  0.00    -0.356 N 
ATOM     32  H   UNL     1       9.687  -1.592   2.699  0.00  0.00    +0.142 HD
ATOM     33  H   UNL     1      11.149  -2.011   1.986  0.00  0.00    +0.142 HD
ENDBRANCH   3  31
BRANCH   1  35
ATOM     34  C   UNL     1      13.137  -2.917   0.901  0.00  0.00    +0.009 C 
ATOM     35  C   UNL     1      11.975  -3.898   1.071  0.00  0.00    +0.033 C 
ENDBRANCH   1  35
TORSDOF 5
