REMARK  Name = ZINC12604645
REMARK  10 active torsions:
REMARK  status: ('A' for Active; 'I' for Inactive)
REMARK    1  A    between atoms: C_1  and  C_2
REMARK    2  A    between atoms: C_2  and  N_3
REMARK    3  A    between atoms: C_7  and  C_8
REMARK    4  A    between atoms: C_11  and  N_14
REMARK    5  A    between atoms: C_19  and  C_20
REMARK    6  A    between atoms: C_19  and  C_22
REMARK    7  A    between atoms: C_22  and  C_24
REMARK    8  A    between atoms: C_24  and  C_25
REMARK    9  A    between atoms: C_24  and  C_26
REMARK   10  A    between atoms: C_24  and  C_27
REMARK                            x       y       z     vdW  Elec       q    Type
REMARK                         _______ _______ _______ _____ _____    ______ ____
ROOT
ATOM      1  N   UNL     1      -1.237   1.667   0.930  0.00  0.00    -0.301 N 
ATOM      2  C   UNL     1      -0.621   2.643   1.580  0.00  0.00    +0.266 A 
ATOM      3  O   UNL     1       0.046   3.484   1.007  0.00  0.00    -0.266 OA
ATOM      4  C   UNL     1      -0.800   2.644   3.046  0.00  0.00    +0.079 A 
ATOM      5  C   UNL     1      -0.306   3.502   3.975  0.00  0.00    +0.028 C 
ATOM      6  S   UNL     1      -1.837   1.207   3.267  0.00  0.00    -0.065 S 
ATOM      7  C   UNL     1      -1.973   0.734   1.604  0.00  0.00    +0.105 A 
ATOM      8  C   UNL     1      -2.677  -0.357   1.073  0.00  0.00    +0.125 C 
ENDROOT
BRANCH   5   9
ATOM      9  C   UNL     1       0.677   4.522   3.584  0.00  0.00    -0.024 A 
ATOM     10  C   UNL     1       1.704   4.202   2.688  0.00  0.00    +0.010 A 
ATOM     11  C   UNL     1       2.619   5.166   2.322  0.00  0.00    +0.033 A 
ATOM     12  C   UNL     1       2.531   6.444   2.846  0.00  0.00    +0.126 A 
ATOM     13  C   UNL     1       1.522   6.767   3.737  0.00  0.00    +0.033 A 
ATOM     14  C   UNL     1       0.596   5.816   4.109  0.00  0.00    +0.010 A 
BRANCH  12  15
ATOM     15  N   UNL     1       3.521   7.471   2.452  0.00  0.00    +0.056 N 
ATOM     16  O   UNL     1       3.447   8.597   2.910  0.00  0.00    -0.126 OA
ATOM     17  O   UNL     1       4.411   7.191   1.668  0.00  0.00    -0.126 OA
ENDBRANCH  12  15
ENDBRANCH   5   9
BRANCH   1  19
ATOM     18  C   UNL     1      -2.176   2.486  -1.174  0.00  0.00    +0.027 C 
ATOM     19  C   UNL     1      -1.123   1.584  -0.528  0.00  0.00    +0.122 C 
ENDBRANCH   1  19
BRANCH   8  20
ATOM     20  C   UNL     1      -3.415  -1.224   1.941  0.00  0.00    +0.105 C 
ATOM     21  N   UNL     1      -4.000  -1.913   2.629  0.00  0.00    -0.191 NA
ENDBRANCH   8  20
BRANCH   8  22
ATOM     22  C   UNL     1      -2.658  -0.598  -0.314  0.00  0.00    +0.181 C 
ATOM     23  O   UNL     1      -3.259   0.141  -1.068  0.00  0.00    -0.291 OA
BRANCH  22  24
ATOM     24  C   UNL     1      -1.893  -1.774  -0.864  0.00  0.00    +0.026 C 
ATOM     25  C   UNL     1      -2.035  -1.808  -2.387  0.00  0.00    +0.019 C 
ATOM     26  C   UNL     1      -0.415  -1.640  -0.492  0.00  0.00    +0.019 C 
ATOM     27  C   UNL     1      -2.452  -3.069  -0.270  0.00  0.00    +0.019 C 
ENDBRANCH  22  24
ENDBRANCH   8  22
TORSDOF 6
