REMARK  Name = ZINC62772783
REMARK  5 active torsions:
REMARK  status: ('A' for Active; 'I' for Inactive)
REMARK    1  A    between atoms: C_1  and  C_2
REMARK    2  A    between atoms: C_2  and  C_3
REMARK    3  A    between atoms: C_2  and  C_4
REMARK    4  A    between atoms: C_2  and  C_10
REMARK    5  A    between atoms: C_16  and  N_18
REMARK                            x       y       z     vdW  Elec       q    Type
REMARK                         _______ _______ _______ _____ _____    ______ ____
ROOT
ATOM      1  C   UNL     1       0.699  -0.213  -1.318  0.00  0.00    +0.122 A 
ATOM      2  N   UNL     1       1.994   0.138  -1.440  0.00  0.00    -0.310 N 
ATOM      3  H   UNL     1       2.464   0.521  -0.682  0.00  0.00    +0.170 HD
ATOM      4  C   UNL     1       2.641  -0.039  -2.611  0.00  0.00    +0.253 A 
ATOM      5  O   UNL     1       3.814   0.277  -2.727  0.00  0.00    -0.268 OA
ATOM      6  C   UNL     1       1.940  -0.593  -3.690  0.00  0.00    +0.113 A 
ATOM      7  C   UNL     1       0.610  -0.935  -3.507  0.00  0.00    +0.123 A 
ATOM      8  N   UNL     1       0.034  -0.735  -2.312  0.00  0.00    -0.219 NA
ENDROOT
BRANCH   1  10
ATOM      9  C   UNL     1      -0.093   1.494   0.297  0.00  0.00    +0.024 C 
ATOM     10  C   UNL     1       0.002  -0.004   0.002  0.00  0.00    +0.048 C 
ATOM     11  C   UNL     1       0.797  -0.693   1.113  0.00  0.00    +0.024 C 
BRANCH  10  12
ATOM     12  C   UNL     1      -1.384  -0.592  -0.063  0.00  0.00    -0.034 A 
ATOM     13  C   UNL     1      -1.550  -1.958  -0.196  0.00  0.00    +0.004 A 
ATOM     14  C   UNL     1      -2.821  -2.497  -0.256  0.00  0.00    +0.000 A 
ATOM     15  C   UNL     1      -3.927  -1.671  -0.181  0.00  0.00    +0.000 A 
ATOM     16  C   UNL     1      -3.761  -0.305  -0.046  0.00  0.00    +0.000 A 
ATOM     17  C   UNL     1      -2.490   0.234   0.017  0.00  0.00    +0.004 A 
ENDBRANCH  10  12
ENDBRANCH   1  10
BRANCH   7  18
ATOM     18  N   UNL     1      -0.116  -1.483  -4.545  0.00  0.00    -0.343 N 
ATOM     19  H   UNL     1       0.305  -1.630  -5.407  0.00  0.00    +0.144 HD
ATOM     20  H   UNL     1      -1.047  -1.721  -4.413  0.00  0.00    +0.144 HD
ENDBRANCH   7  18
TORSDOF 3
