REMARK  Name = ZINC27301296
REMARK  2 active torsions:
REMARK  status: ('A' for Active; 'I' for Inactive)
REMARK    1  A    between atoms: C_4  and  O_7
REMARK    2  A    between atoms: O_7  and  C_8
REMARK                            x       y       z     vdW  Elec       q    Type
REMARK                         _______ _______ _______ _____ _____    ______ ____
ROOT
ATOM      1  C   UNL     1       4.701   0.114  -0.148  0.00  0.00    +0.419 C 
ATOM      2  O   UNL     1       4.624   1.326  -0.138  0.00  0.00    -0.225 OA
ATOM      3  N   UNL     1       5.902  -0.484  -0.272  0.00  0.00    -0.170 N 
ATOM      4  C   UNL     1       6.728  -0.840   0.793  0.00  0.00    +0.070 A 
ATOM      5  C   UNL     1       6.692  -0.756   2.173  0.00  0.00    +0.041 A 
ATOM      6  C   UNL     1       7.758  -1.244   2.929  0.00  0.00    +0.033 A 
ATOM      7  C   UNL     1       8.870  -1.819   2.373  0.00  0.00    +0.027 A 
ATOM      8  C   UNL     1       8.943  -1.923   0.974  0.00  0.00    -0.001 A 
ATOM      9  C   UNL     1       7.862  -1.426   0.244  0.00  0.00    +0.018 A 
ATOM     10  C   UNL     1       7.776  -1.451  -1.157  0.00  0.00    +0.047 A 
ATOM     11  C   UNL     1       8.845  -2.011  -1.836  0.00  0.00    +0.014 A 
ATOM     12  C   UNL     1       9.931  -2.513  -1.121  0.00  0.00    +0.001 A 
ATOM     13  C   UNL     1      10.006  -2.483   0.246  0.00  0.00    +0.010 A 
ATOM     14  C   UNL     1       6.480  -0.831  -1.452  0.00  0.00    +0.260 C 
ATOM     15  O   UNL     1       6.006  -0.656  -2.558  0.00  0.00    -0.269 OA
ATOM     16 BR   UNL     1      10.276  -2.457   3.465  0.00  0.00    -0.050 Br
ATOM     17 BR   UNL     1       5.199   0.021   3.035  0.00  0.00    -0.048 Br
ENDROOT
BRANCH   1  18
ATOM     18  O   UNL     1       3.586  -0.632  -0.037  0.00  0.00    -0.411 OA
BRANCH  18  22
ATOM     19  C   UNL     1      -0.020   1.374  -0.038  0.00  0.00    +0.000 A 
ATOM     20  C   UNL     1       0.743   1.324  -1.190  0.00  0.00    +0.004 A 
ATOM     21  C   UNL     1       1.950   0.653  -1.192  0.00  0.00    +0.046 A 
ATOM     22  C   UNL     1       2.398   0.029  -0.037  0.00  0.00    +0.133 A 
ATOM     23  C   UNL     1       1.631   0.081   1.118  0.00  0.00    +0.046 A 
ATOM     24  C   UNL     1       0.424   0.753   1.115  0.00  0.00    +0.004 A 
ENDBRANCH  18  22
ENDBRANCH   1  18
TORSDOF 2
