REMARK  Name = ZINC44022343
REMARK  6 active torsions:
REMARK  status: ('A' for Active; 'I' for Inactive)
REMARK    1  A    between atoms: C_1  and  C_2
REMARK    2  A    between atoms: C_2  and  C_3
REMARK    3  A    between atoms: C_3  and  C_4
REMARK    4  A    between atoms: C_4  and  N_5
REMARK    5  A    between atoms: C_9  and  N_14
REMARK    6  A    between atoms: N_14  and  C_15
REMARK                            x       y       z     vdW  Elec       q    Type
REMARK                         _______ _______ _______ _____ _____    ______ ____
ROOT
ATOM      1  N   UNL     1      -2.797  -2.543  -0.014  0.00  0.00    -0.261 N 
ATOM      2  C   UNL     1      -3.352  -2.918   1.155  0.00  0.00    +0.258 A 
ATOM      3  O   UNL     1      -2.718  -2.825   2.193  0.00  0.00    -0.267 OA
ATOM      4  C   UNL     1      -4.665  -3.415   1.172  0.00  0.00    +0.112 A 
ATOM      5  C   UNL     1      -5.354  -3.509  -0.004  0.00  0.00    +0.109 A 
ATOM      6  N   UNL     1      -4.750  -3.115  -1.174  0.00  0.00    -0.296 N 
ATOM      7  H   UNL     1      -5.234  -3.179  -2.012  0.00  0.00    +0.172 HD
ATOM      8  C   UNL     1      -3.492  -2.637  -1.162  0.00  0.00    +0.331 A 
ATOM      9  O   UNL     1      -2.974  -2.288  -2.206  0.00  0.00    -0.246 OA
ENDROOT
BRANCH   5  10
ATOM     10  N   UNL     1      -6.639  -3.992  -0.017  0.00  0.00    -0.300 N 
ATOM     11  H   UNL     1      -7.323  -3.567   0.524  0.00  0.00    +0.154 HD
BRANCH  10  12
ATOM     12  C   UNL     1      -6.962  -5.095  -0.809  0.00  0.00    +0.040 A 
ATOM     13  C   UNL     1      -5.974  -5.778  -1.485  0.00  0.00    +0.024 A 
ATOM     14  C   UNL     1      -6.285  -6.878  -2.278  0.00  0.00    +0.002 A 
ATOM     15  C   UNL     1      -7.570  -7.311  -2.407  0.00  0.00    +0.008 A 
ATOM     16  C   UNL     1      -8.606  -6.643  -1.734  0.00  0.00    -0.016 A 
ATOM     17  C   UNL     1      -8.302  -5.524  -0.919  0.00  0.00    +0.003 A 
ATOM     18  C   UNL     1      -9.337  -4.861  -0.243  0.00  0.00    +0.010 A 
ATOM     19  C   UNL     1     -10.619  -5.302  -0.374  0.00  0.00    +0.001 A 
ATOM     20  C   UNL     1     -10.919  -6.406  -1.169  0.00  0.00    +0.001 A 
ATOM     21  C   UNL     1      -9.942  -7.067  -1.849  0.00  0.00    +0.008 A 
ENDBRANCH  10  12
ENDBRANCH   5  10
BRANCH   1  22
ATOM     22  C   UNL     1      -1.427  -2.024  -0.035  0.00  0.00    +0.130 C 
BRANCH  22  23
ATOM     23  C   UNL     1      -1.455  -0.506   0.154  0.00  0.00    +0.022 C 
BRANCH  23  25
ATOM     24  C   UNL     1      -0.052   1.555   0.322  0.00  0.00    +0.004 C 
ATOM     25  C   UNL     1      -0.024   0.037   0.133  0.00  0.00    -0.002 C 
ENDBRANCH  23  25
ENDBRANCH  22  23
ENDBRANCH   1  22
TORSDOF 5
