REMARK  Name = ZINC65265666
REMARK  5 active torsions:
REMARK  status: ('A' for Active; 'I' for Inactive)
REMARK    1  A    between atoms: C_1  and  C_2
REMARK    2  A    between atoms: C_2  and  N_3
REMARK    3  A    between atoms: C_4  and  C_8
REMARK    4  A    between atoms: N_25  and  C_26
REMARK    5  A    between atoms: C_26  and  C_27
REMARK                            x       y       z     vdW  Elec       q    Type
REMARK                         _______ _______ _______ _____ _____    ______ ____
ROOT
ATOM      1  C   UNL     1      -1.702  -0.796   2.765  0.00  0.00    +0.265 C 
ATOM      2  O   UNL     1      -2.457  -1.276   3.589  0.00  0.00    -0.268 OA
ATOM      3  N   UNL     1      -0.505  -0.309   3.150  0.00  0.00    -0.296 N 
ATOM      4  C   UNL     1       0.495   0.092   2.152  0.00  0.00    +0.110 C 
ATOM      5  C   UNL     1       1.809  -0.637   2.451  0.00  0.00    +0.052 C 
ATOM      6  C   UNL     1       2.216  -0.376   3.900  0.00  0.00    +0.089 C 
ATOM      7  C   UNL     1       1.142  -0.896   4.852  0.00  0.00    +0.052 C 
ATOM      8  C   UNL     1      -0.180  -0.164   4.576  0.00  0.00    +0.110 C 
ATOM      9  C   UNL     1       3.532  -1.067   4.191  0.00  0.00    +0.098 C 
ATOM     10  N   UNL     1       4.655  -0.544   3.574  0.00  0.00    -0.286 N 
ATOM     11  C   UNL     1       4.745   0.848   3.455  0.00  0.00    +0.145 A 
ATOM     12  C   UNL     1       3.627   1.643   3.712  0.00  0.00    +0.069 A 
ATOM     13  C   UNL     1       3.729   3.021   3.580  0.00  0.00    +0.028 A 
ATOM     14  C   UNL     1       4.953   3.557   3.200  0.00  0.00    +0.022 A 
ATOM     15  C   UNL     1       6.018   2.711   2.967  0.00  0.00    +0.113 A 
ATOM     16  N   UNL     1       5.892   1.403   3.097  0.00  0.00    -0.238 NA
ATOM     17  N   UNL     1       2.414   1.065   4.110  0.00  0.00    -0.329 N 
ATOM     18  N   UNL     1       3.603  -2.093   4.975  0.00  0.00    -0.371 N 
ATOM     19  H   UNL     1       1.718   1.605   4.516  0.00  0.00    +0.147 HD
ATOM     20  H   UNL     1       2.799  -2.438   5.395  0.00  0.00    +0.161 HD
ATOM     21  H   UNL     1       5.356  -1.123   3.235  0.00  0.00    +0.155 HD
ENDROOT
BRANCH   1  23
ATOM     22  N   UNL     1      -2.941  -1.604   0.702  0.00  0.00    -0.260 N 
ATOM     23  C   UNL     1      -2.094  -0.749   1.348  0.00  0.00    +0.123 A 
ATOM     24  C   UNL     1      -1.679   0.172   0.401  0.00  0.00    +0.054 A 
ATOM     25  C   UNL     1      -2.320  -0.199  -0.782  0.00  0.00    +0.135 A 
ATOM     26  N   UNL     1      -3.045  -1.260  -0.531  0.00  0.00    -0.179 NA
BRANCH  22  28
ATOM     27  C   UNL     1      -2.682  -3.951   1.340  0.00  0.00    +0.029 C 
ATOM     28  C   UNL     1      -3.622  -2.744   1.320  0.00  0.00    +0.141 C 
ENDBRANCH  22  28
ENDBRANCH   1  23
BRANCH  18  29
ATOM     29  C   UNL     1       4.896  -2.732   5.231  0.00  0.00    +0.149 C 
BRANCH  29  30
ATOM     30  C   UNL     1       4.705  -3.895   6.170  0.00  0.00    -0.028 A 
ATOM     31  C   UNL     1       4.786  -3.700   7.536  0.00  0.00    +0.005 A 
ATOM     32  C   UNL     1       4.611  -4.766   8.399  0.00  0.00    +0.000 A 
ATOM     33  C   UNL     1       4.353  -6.027   7.894  0.00  0.00    +0.000 A 
ATOM     34  C   UNL     1       4.271  -6.222   6.528  0.00  0.00    +0.000 A 
ATOM     35  C   UNL     1       4.442  -5.155   5.667  0.00  0.00    +0.005 A 
ENDBRANCH  29  30
ENDBRANCH  18  29
TORSDOF 4
