REMARK  Name = ZINC19927949
REMARK  8 active torsions:
REMARK  status: ('A' for Active; 'I' for Inactive)
REMARK    1  A    between atoms: C_1  and  C_2
REMARK    2  A    between atoms: C_5  and  C_8
REMARK    3  A    between atoms: C_10  and  C_26
REMARK    4  A    between atoms: C_11  and  N_13
REMARK    5  A    between atoms: N_13  and  N_14
REMARK    6  A    between atoms: N_14  and  C_15
REMARK    7  A    between atoms: C_18  and  O_24
REMARK    8  A    between atoms: O_24  and  C_25
REMARK                            x       y       z     vdW  Elec       q    Type
REMARK                         _______ _______ _______ _____ _____    ______ ____
ROOT
ATOM      1  N   UNL     1       0.100  -7.432   1.485  0.00  0.00    -0.235 N 
ATOM      2  H   UNL     1       0.111  -8.318   1.091  0.00  0.00    +0.173 HD
ENDROOT
BRANCH   1   6
ATOM      3  C   UNL     1       0.059  -4.251  -0.021  0.00  0.00    +0.231 A 
ATOM      4  N   UNL     1       0.070  -4.999  -1.094  0.00  0.00    -0.196 NA
ATOM      5  C   UNL     1       0.087  -6.303  -0.712  0.00  0.00    +0.202 A 
ATOM      6  C   UNL     1       0.086  -6.318   0.675  0.00  0.00    +0.241 A 
ATOM      7  O   UNL     1       0.075  -5.034   1.075  0.00  0.00    -0.419 OA
BRANCH   3  12
ATOM      8  C   UNL     1      -0.018   1.503   0.010  0.00  0.00    +0.044 C 
ATOM      9  C   UNL     1       0.002  -0.004   0.002  0.00  0.00    -0.050 A 
ATOM     10  C   UNL     1       0.006  -0.686  -1.202  0.00  0.00    +0.004 A 
ATOM     11  C   UNL     1       0.024  -2.066  -1.216  0.00  0.00    +0.013 A 
ATOM     12  C   UNL     1       0.040  -2.773  -0.013  0.00  0.00    +0.037 A 
ATOM     13  C   UNL     1       0.036  -2.079   1.198  0.00  0.00    +0.013 A 
ATOM     14  C   UNL     1       0.023  -0.699   1.198  0.00  0.00    +0.004 A 
ENDBRANCH   3  12
BRANCH   5  15
ATOM     15  C   UNL     1       0.102  -7.445  -1.577  0.00  0.00    +0.124 C 
ATOM     16  N   UNL     1       0.114  -8.350  -2.263  0.00  0.00    -0.189 NA
ENDBRANCH   5  15
ENDBRANCH   1   6
BRANCH   1  17
ATOM     17  N   UNL     1       0.098  -7.284   2.878  0.00  0.00    -0.271 N 
ATOM     18  H   UNL     1       0.086  -6.398   3.272  0.00  0.00    +0.169 HD
BRANCH  17  19
ATOM     19  C   UNL     1       0.111  -8.369   3.668  0.00  0.00    +0.095 C 
ATOM     20  C   UNL     1       0.109  -8.222   5.059  0.00  0.00    -0.005 C 
ATOM     21  C   UNL     1       0.086  -6.931   5.634  0.00  0.00    +0.058 C 
ATOM     22  C   UNL     1       0.083  -6.791   6.987  0.00  0.00    +0.168 C 
ATOM     23  C   UNL     1       0.103  -7.934   7.814  0.00  0.00    +0.234 C 
ATOM     24  O   UNL     1       0.100  -7.807   9.033  0.00  0.00    -0.283 OA
ATOM     25  C   UNL     1       0.125  -9.219   7.242  0.00  0.00    +0.069 C 
ATOM     26  C   UNL     1       0.123  -9.363   5.891  0.00  0.00    +0.028 C 
ATOM     27 BR   UNL     1       0.152 -10.748   8.354  0.00  0.00    -0.046 Br
BRANCH  22  28
ATOM     28  O   UNL     1       0.062  -5.549   7.542  0.00  0.00    -0.491 OA
ATOM     29  C   UNL     1       0.044  -4.437   6.645  0.00  0.00    +0.277 C 
ENDBRANCH  22  28
ENDBRANCH  17  19
ENDBRANCH   1  17
TORSDOF 6
