REMARK  Name = ZINC20863784
REMARK  12 active torsions:
REMARK  status: ('A' for Active; 'I' for Inactive)
REMARK    1  A    between atoms: C_1  and  C_2
REMARK    2  A    between atoms: C_2  and  C_3
REMARK    3  A    between atoms: C_6  and  C_9
REMARK    4  A    between atoms: C_15  and  C_32
REMARK    5  A    between atoms: C_15  and  C_33
REMARK    6  A    between atoms: N_16  and  C_19
REMARK    7  A    between atoms: C_19  and  C_20
REMARK    8  A    between atoms: C_20  and  C_21
REMARK    9  A    between atoms: C_21  and  N_22
REMARK   10  A    between atoms: C_24  and  C_31
REMARK   11  A    between atoms: C_27  and  C_30
REMARK   12  A    between atoms: N_35  and  C_36
REMARK                            x       y       z     vdW  Elec       q    Type
REMARK                         _______ _______ _______ _____ _____    ______ ____
ROOT
ATOM      1  C   UNL     1      -2.149   3.737   5.108  0.00  0.00    +0.093 A 
ATOM      2  C   UNL     1      -1.070   3.962   4.227  0.00  0.00    +0.062 A 
ATOM      3  C   UNL     1      -1.031   2.856   3.429  0.00  0.00    +0.124 A 
ATOM      4  N   UNL     1      -2.042   2.018   3.843  0.00  0.00    -0.256 N 
ATOM      5  N   UNL     1      -2.673   2.563   4.809  0.00  0.00    -0.170 NA
ATOM      6  C   UNL     1      -2.259   0.715   3.201  0.00  0.00    +0.179 C 
ATOM      7  C   UNL     1      -1.826   0.794   1.738  0.00  0.00    +0.130 C 
ATOM      8  N   UNL     1      -0.518   1.419   1.574  0.00  0.00    -0.281 N 
ATOM      9  C   UNL     1      -0.150   2.498   2.306  0.00  0.00    +0.266 C 
ATOM     10  O   UNL     1       0.851   3.138   2.048  0.00  0.00    -0.268 OA
ATOM     11  C   UNL     1      -2.863   1.607   0.961  0.00  0.00    +0.044 C 
ENDROOT
BRANCH   1  15
ATOM     12  C   UNL     1      -3.474   6.366   8.177  0.00  0.00    -0.048 A 
ATOM     13  C   UNL     1      -4.122   5.161   7.975  0.00  0.00    +0.004 A 
ATOM     14  C   UNL     1      -3.696   4.304   6.980  0.00  0.00    +0.010 A 
ATOM     15  C   UNL     1      -2.612   4.655   6.179  0.00  0.00    +0.002 A 
ATOM     16  C   UNL     1      -1.959   5.867   6.391  0.00  0.00    +0.010 A 
ATOM     17  C   UNL     1      -2.396   6.719   7.385  0.00  0.00    +0.004 A 
BRANCH  12  19
ATOM     18  C   UNL     1      -3.206   6.975  10.566  0.00  0.00    +0.009 C 
ATOM     19  C   UNL     1      -3.943   7.298   9.265  0.00  0.00    +0.032 C 
ENDBRANCH  12  19
ENDBRANCH   1  15
BRANCH   7  20
ATOM     20  C   UNL     1      -1.774  -0.600   1.169  0.00  0.00    +0.238 C 
ATOM     21  O   UNL     1      -2.654  -0.986   0.429  0.00  0.00    -0.273 OA
ATOM     22  N   UNL     1      -0.751  -1.419   1.483  0.00  0.00    -0.311 N 
ATOM     23  H   UNL     1       0.003  -1.100   2.217  0.00  0.00    +0.149 HD
BRANCH  22  24
ATOM     24  C   UNL     1      -0.643  -2.734   0.846  0.00  0.00    +0.073 C 
ATOM     25  C   UNL     1      -1.563  -3.725   1.588  0.00  0.00    +0.022 C 
ATOM     26  C   UNL     1      -1.851  -4.886   0.674  0.00  0.00    +0.002 C 
ATOM     27  C   UNL     1      -0.883  -6.064   0.893  0.00  0.00    +0.000 C 
ATOM     28  C   UNL     1       0.576  -5.609   1.092  0.00  0.00    +0.000 C 
ATOM     29  C   UNL     1       0.968  -4.503   0.149  0.00  0.00    +0.002 C 
ATOM     30  C   UNL     1       0.751  -3.152   0.862  0.00  0.00    +0.022 C 
ENDBRANCH  22  24
ENDBRANCH   7  20
BRANCH   8  31
ATOM     31  C   UNL     1       0.423   0.863   0.598  0.00  0.00    +0.107 C 
BRANCH  31  32
ATOM     32  C   UNL     1       0.116   1.433  -0.788  0.00  0.00    +0.000 C 
BRANCH  32  33
ATOM     33  C   UNL     1       1.098   0.852  -1.808  0.00  0.00    -0.077 C 
BRANCH  33  34
ATOM     34  N   UNL     1       0.804   1.399  -3.139  0.00  0.00    +0.380 N 
ATOM     35  C   UNL     1      -0.510   0.947  -3.615  0.00  0.00    -0.076 C 
ATOM     36  C   UNL     1      -0.846   1.649  -4.932  0.00  0.00    -0.031 C 
ATOM     37  C   UNL     1       0.233   1.322  -5.968  0.00  0.00    +0.003 C 
ATOM     38  C   UNL     1       1.598   1.759  -5.428  0.00  0.00    -0.031 C 
ATOM     39  C   UNL     1       1.863   1.054  -4.096  0.00  0.00    -0.076 C 
ATOM     40  C   UNL     1       2.690   1.383  -6.431  0.00  0.00    +0.005 C 
ATOM     41  C   UNL     1      -0.898   3.161  -4.708  0.00  0.00    +0.005 C 
ATOM     42  H   UNL     1       0.771   2.495  -3.055  0.00  0.00    -0.082 HD
ENDBRANCH  33  34
ENDBRANCH  32  33
ENDBRANCH  31  32
ENDBRANCH   8  31
TORSDOF 8
