REMARK  Name = ZINC40696125
REMARK  4 active torsions:
REMARK  status: ('A' for Active; 'I' for Inactive)
REMARK    1  A    between atoms: C_1  and  C_2
REMARK    2  A    between atoms: C_3  and  C_13
REMARK    3  A    between atoms: C_5  and  C_7
REMARK    4  A    between atoms: C_21  and  C_24
REMARK                            x       y       z     vdW  Elec       q    Type
REMARK                         _______ _______ _______ _____ _____    ______ ____
ROOT
ATOM      1  C   UNL     1      -1.145  -1.656  -2.485  0.00  0.00    +0.054 C 
ATOM      2  C   UNL     1      -0.511  -1.443  -1.135  0.00  0.00    +0.015 A 
ATOM      3  C   UNL     1      -1.009  -0.812  -0.023  0.00  0.00    +0.082 A 
ATOM      4  N   UNL     1      -0.270  -0.741   1.066  0.00  0.00    -0.237 NA
ATOM      5  C   UNL     1       0.944  -1.267   1.110  0.00  0.00    +0.127 A 
ATOM      6  S   UNL     1       1.096  -1.949  -0.535  0.00  0.00    -0.070 S 
ENDROOT
BRANCH   3   7
ATOM      7  C   UNL     1      -2.367  -0.214  -0.047  0.00  0.00    +0.003 A 
ATOM      8  C   UNL     1      -2.587   1.043   0.513  0.00  0.00    +0.014 A 
ATOM      9  C   UNL     1      -3.849   1.601   0.490  0.00  0.00    +0.048 A 
ATOM     10  C   UNL     1      -4.907   0.914  -0.088  0.00  0.00    +0.142 A 
ATOM     11  C   UNL     1      -4.690  -0.344  -0.647  0.00  0.00    +0.070 A 
ATOM     12  C   UNL     1      -3.425  -0.905  -0.634  0.00  0.00    +0.036 A 
ATOM     13  N   UNL     1      -5.762  -1.043  -1.226  0.00  0.00    -0.337 N 
ATOM     14  C   UNL     1      -7.001  -0.294  -1.498  0.00  0.00    +0.145 C 
ATOM     15  C   UNL     1      -7.268   0.615  -0.290  0.00  0.00    +0.187 C 
ATOM     16  O   UNL     1      -6.144   1.479  -0.106  0.00  0.00    -0.486 OA
ATOM     17  C   UNL     1      -8.524   1.451  -0.545  0.00  0.00    +0.053 C 
ATOM     18  H   UNL     1      -5.689  -1.987  -1.439  0.00  0.00    +0.146 HD
ENDBRANCH   3   7
BRANCH   5  19
ATOM     19  C   UNL     1       1.914  -1.289   2.225  0.00  0.00    +0.096 A 
ATOM     20  C   UNL     1       3.156  -1.901   2.050  0.00  0.00    +0.030 A 
ATOM     21  C   UNL     1       4.053  -1.913   3.104  0.00  0.00    +0.004 A 
ATOM     22  C   UNL     1       3.681  -1.312   4.299  0.00  0.00    +0.020 A 
ATOM     23  C   UNL     1       2.433  -0.724   4.403  0.00  0.00    +0.111 A 
ATOM     24  N   UNL     1       1.599  -0.721   3.384  0.00  0.00    -0.253 NA
ENDBRANCH   5  19
TORSDOF 2
