REMARK  Name = ZINC03216512
REMARK  8 active torsions:
REMARK  status: ('A' for Active; 'I' for Inactive)
REMARK    1  A    between atoms: C_1  and  C_2
REMARK    2  A    between atoms: C_4  and  C_32
REMARK    3  A    between atoms: C_5  and  C_31
REMARK    4  A    between atoms: C_6  and  S_9
REMARK    5  A    between atoms: C_7  and  C_8
REMARK    6  A    between atoms: S_9  and  N_12
REMARK    7  A    between atoms: N_12  and  C_13
REMARK    8  A    between atoms: C_18  and  C_19
REMARK                            x       y       z     vdW  Elec       q    Type
REMARK                         _______ _______ _______ _____ _____    ______ ____
ROOT
ATOM      1  C   UNL     1      -0.292   3.505   4.072  0.00  0.00    +0.060 A 
ATOM      2  C   UNL     1      -1.115   4.087   5.029  0.00  0.00    +0.025 A 
ATOM      3  C   UNL     1      -2.474   4.174   4.811  0.00  0.00    +0.002 A 
ATOM      4  C   UNL     1      -3.030   3.688   3.638  0.00  0.00    +0.001 A 
ATOM      5  C   UNL     1      -2.230   3.113   2.675  0.00  0.00    +0.015 A 
ATOM      6  C   UNL     1      -0.851   3.017   2.881  0.00  0.00    +0.060 A 
ENDROOT
BRANCH   6   7
ATOM      7  C   UNL     1       0.011   2.403   1.855  0.00  0.00    +0.253 C 
ATOM      8  O   UNL     1       1.161   2.775   1.724  0.00  0.00    -0.270 OA
ATOM      9  N   UNL     1      -0.476   1.428   1.061  0.00  0.00    -0.267 N 
ATOM     10  C   UNL     1      -1.836   0.911   1.263  0.00  0.00    +0.114 C 
ATOM     11  C   UNL     1      -1.774  -0.620   1.181  0.00  0.00    +0.024 C 
ATOM     12  C   UNL     1      -1.324  -1.022  -0.223  0.00  0.00    +0.038 C 
ATOM     13  C   UNL     1      -0.067  -0.285  -0.606  0.00  0.00    -0.026 A 
ATOM     14  C   UNL     1       0.306   0.888   0.030  0.00  0.00    +0.040 A 
ATOM     15  C   UNL     1       1.470   1.546  -0.351  0.00  0.00    +0.024 A 
ATOM     16  C   UNL     1       2.257   1.030  -1.361  0.00  0.00    +0.002 A 
ATOM     17  C   UNL     1       1.885  -0.142  -1.993  0.00  0.00    +0.000 A 
ATOM     18  C   UNL     1       0.728  -0.797  -1.617  0.00  0.00    +0.005 A 
ENDBRANCH   6   7
BRANCH   1  19
ATOM     19  N   UNL     1       1.076   3.411   4.292  0.00  0.00    -0.216 N 
ATOM     20  H   UNL     1       1.456   2.590   4.641  0.00  0.00    +0.174 HD
BRANCH  19  21
ATOM     21  S   UNL     1       2.058   4.701   3.957  0.00  0.00    +0.073 S 
ATOM     22  O   UNL     1       3.369   4.330   4.361  0.00  0.00    -0.150 OA
ATOM     23  O   UNL     1       1.758   5.106   2.628  0.00  0.00    -0.150 OA
BRANCH  21  29
ATOM     24  C   UNL     1       2.499   7.463   8.373  0.00  0.00    +0.044 C 
ATOM     25  C   UNL     1       1.806   7.252   7.051  0.00  0.00    -0.045 A 
ATOM     26  C   UNL     1       0.781   8.095   6.665  0.00  0.00    +0.007 A 
ATOM     27  C   UNL     1       0.146   7.903   5.453  0.00  0.00    -0.045 A 
ATOM     28  C   UNL     1       0.536   6.866   4.625  0.00  0.00    -0.021 A 
ATOM     29  C   UNL     1       1.561   6.023   5.011  0.00  0.00    +0.115 A 
ATOM     30  C   UNL     1       2.193   6.212   6.226  0.00  0.00    -0.021 A 
ATOM     31  C   UNL     1       3.306   5.289   6.649  0.00  0.00    +0.046 C 
ATOM     32  C   UNL     1      -0.156   6.656   3.303  0.00  0.00    +0.046 C 
ATOM     33  C   UNL     1      -0.972   8.822   5.033  0.00  0.00    +0.044 C 
ENDBRANCH  21  29
ENDBRANCH  19  21
ENDBRANCH   1  19
TORSDOF 4
