REMARK  Name = ZINC10735076
REMARK  10 active torsions:
REMARK  status: ('A' for Active; 'I' for Inactive)
REMARK    1  A    between atoms: C_4  and  N_7
REMARK    2  A    between atoms: N_7  and  S_8
REMARK    3  A    between atoms: S_8  and  C_11
REMARK    4  A    between atoms: C_14  and  C_17
REMARK    5  A    between atoms: C_17  and  O_19
REMARK    6  A    between atoms: O_19  and  C_20
REMARK    7  A    between atoms: C_20  and  C_21
REMARK    8  A    between atoms: N_23  and  C_24
REMARK    9  A    between atoms: C_27  and  O_30
REMARK   10  A    between atoms: O_30  and  C_31
REMARK                            x       y       z     vdW  Elec       q    Type
REMARK                         _______ _______ _______ _____ _____    ______ ____
ROOT
ATOM      1  C   UNL     1      -0.710   0.753  -0.541  0.00  0.00    +0.340 C 
ATOM      2  O   UNL     1       0.435   0.353  -0.593  0.00  0.00    -0.245 OA
ENDROOT
BRANCH   1   6
ATOM      3  C   UNL     1      -3.911  -2.014  -0.175  0.00  0.00    +0.109 A 
ATOM      4  C   UNL     1      -2.607  -2.473  -0.234  0.00  0.00    +0.029 A 
ATOM      5  C   UNL     1      -1.563  -1.580  -0.353  0.00  0.00    +0.017 A 
ATOM      6  C   UNL     1      -1.824  -0.209  -0.414  0.00  0.00    +0.059 A 
ATOM      7  C   UNL     1      -3.142   0.247  -0.348  0.00  0.00    +0.017 A 
ATOM      8  C   UNL     1      -4.177  -0.657  -0.234  0.00  0.00    +0.029 A 
BRANCH   3   9
ATOM      9  S   UNL     1      -5.239  -3.162  -0.024  0.00  0.00    +0.072 S 
ATOM     10  O   UNL     1      -6.417  -2.476  -0.425  0.00  0.00    -0.150 OA
ATOM     11  O   UNL     1      -4.809  -4.365  -0.645  0.00  0.00    -0.150 OA
BRANCH   9  12
ATOM     12  N   UNL     1      -5.414  -3.498   1.589  0.00  0.00    -0.216 N 
ATOM     13  H   UNL     1      -5.261  -4.399   1.915  0.00  0.00    +0.174 HD
BRANCH  12  17
ATOM     14  C   UNL     1      -6.509  -0.480   4.239  0.00  0.00    +0.000 A 
ATOM     15  C   UNL     1      -7.449  -1.017   3.379  0.00  0.00    +0.002 A 
ATOM     16  C   UNL     1      -7.089  -2.018   2.498  0.00  0.00    +0.024 A 
ATOM     17  C   UNL     1      -5.781  -2.486   2.477  0.00  0.00    +0.048 A 
ATOM     18  C   UNL     1      -4.841  -1.947   3.347  0.00  0.00    +0.024 A 
ATOM     19  C   UNL     1      -5.206  -0.943   4.221  0.00  0.00    +0.002 A 
ENDBRANCH  12  17
ENDBRANCH   9  12
ENDBRANCH   3   9
ENDBRANCH   1   6
BRANCH   1  20
ATOM     20  O   UNL     1      -0.966   2.075  -0.600  0.00  0.00    -0.452 OA
BRANCH  20  21
ATOM     21  C   UNL     1       0.177   2.962  -0.724  0.00  0.00    +0.328 C 
BRANCH  21  22
ATOM     22  C   UNL     1      -0.300   4.391  -0.774  0.00  0.00    +0.255 C 
ATOM     23  O   UNL     1      -1.486   4.637  -0.711  0.00  0.00    -0.272 OA
ATOM     24  N   UNL     1       0.592   5.395  -0.890  0.00  0.00    -0.283 N 
ATOM     25  H   UNL     1       1.542   5.204  -0.872  0.00  0.00    +0.155 HD
BRANCH  24  26
ATOM     26  C   UNL     1       0.145   6.715  -1.034  0.00  0.00    +0.034 A 
ATOM     27  C   UNL     1       0.854   7.605  -1.830  0.00  0.00    +0.027 A 
ATOM     28  C   UNL     1       0.410   8.904  -1.976  0.00  0.00    +0.047 A 
ATOM     29  C   UNL     1      -0.737   9.324  -1.319  0.00  0.00    +0.127 A 
ATOM     30  C   UNL     1      -1.443   8.437  -0.519  0.00  0.00    +0.047 A 
ATOM     31  C   UNL     1      -1.003   7.136  -0.377  0.00  0.00    +0.027 A 
BRANCH  29  32
ATOM     32  O   UNL     1      -1.170  10.605  -1.459  0.00  0.00    -0.434 OA
BRANCH  32  33
ATOM     33  C   UNL     1      -0.395  11.464  -2.297  0.00  0.00    +0.541 C 
ATOM     34  F   UNL     1       0.906  11.560  -1.791  0.00  0.00    -0.166 F 
ATOM     35  F   UNL     1      -0.353  10.938  -3.593  0.00  0.00    -0.166 F 
ENDBRANCH  32  33
ENDBRANCH  29  32
ENDBRANCH  24  26
ENDBRANCH  21  22
ENDBRANCH  20  21
ENDBRANCH   1  20
TORSDOF 10
