REMARK  Name = ZINC00797895
REMARK  11 active torsions:
REMARK  status: ('A' for Active; 'I' for Inactive)
REMARK    1  A    between atoms: C_1  and  C_2
REMARK    2  A    between atoms: C_3  and  C_37
REMARK    3  A    between atoms: C_4  and  C_17
REMARK    4  A    between atoms: C_19  and  O_35
REMARK    5  A    between atoms: C_20  and  O_24
REMARK    6  A    between atoms: O_24  and  C_25
REMARK    7  A    between atoms: C_25  and  C_26
REMARK    8  A    between atoms: C_29  and  N_32
REMARK    9  A    between atoms: O_35  and  C_36
REMARK   10  A    between atoms: C_37  and  O_39
REMARK   11  A    between atoms: O_39  and  C_40
REMARK                            x       y       z     vdW  Elec       q    Type
REMARK                         _______ _______ _______ _____ _____    ______ ____
ROOT
ATOM      1  C   UNL     1      -0.018   1.503   0.010  0.00  0.00    +0.061 C 
ATOM      2  C   UNL     1       0.002  -0.004   0.002  0.00  0.00    +0.016 C 
ATOM      3  C   UNL     1      -1.166  -0.660   0.004  0.00  0.00    +0.065 C 
ATOM      4  C   UNL     1      -1.265  -2.163   0.007  0.00  0.00    +0.093 C 
ATOM      5  C   UNL     1       0.092  -2.745  -0.302  0.00  0.00    +0.034 C 
ATOM      6  C   UNL     1       1.238  -1.990  -0.294  0.00  0.00    +0.047 C 
ATOM      7  N   UNL     1       1.214  -0.642  -0.013  0.00  0.00    -0.317 N 
ATOM      8  C   UNL     1       2.378  -2.850  -0.627  0.00  0.00    +0.007 A 
ATOM      9  C   UNL     1       3.733  -2.586  -0.747  0.00  0.00    +0.010 A 
ATOM     10  C   UNL     1       4.561  -3.659  -1.086  0.00  0.00    +0.001 A 
ATOM     11  C   UNL     1       4.064  -4.925  -1.292  0.00  0.00    +0.001 A 
ATOM     12  C   UNL     1       2.699  -5.208  -1.175  0.00  0.00    +0.012 A 
ATOM     13  C   UNL     1       1.869  -4.156  -0.840  0.00  0.00    +0.031 A 
ATOM     14  C   UNL     1       0.406  -4.082  -0.631  0.00  0.00    +0.193 C 
ATOM     15  O   UNL     1      -0.382  -5.004  -0.725  0.00  0.00    -0.287 OA
ATOM     16  H   UNL     1       2.035  -0.159   0.173  0.00  0.00    +0.152 HD
ENDROOT
BRANCH   4  17
ATOM     17  C   UNL     1      -1.722  -2.635   1.363  0.00  0.00    -0.030 A 
ATOM     18  C   UNL     1      -2.894  -3.360   1.482  0.00  0.00    +0.054 A 
ATOM     19  C   UNL     1      -3.316  -3.796   2.727  0.00  0.00    +0.163 A 
ATOM     20  C   UNL     1      -2.559  -3.502   3.857  0.00  0.00    +0.181 A 
ATOM     21  C   UNL     1      -1.385  -2.776   3.732  0.00  0.00    +0.086 A 
ATOM     22  C   UNL     1      -0.966  -2.348   2.484  0.00  0.00    +0.028 A 
ATOM     23 CL   UNL     1      -0.437  -2.407   5.139  0.00  0.00    -0.080 Cl
BRANCH  19  24
ATOM     24  O   UNL     1      -4.469  -4.508   2.845  0.00  0.00    -0.491 OA
ATOM     25  C   UNL     1      -5.194  -4.771   1.643  0.00  0.00    +0.277 C 
ENDBRANCH  19  24
BRANCH  20  26
ATOM     26  O   UNL     1      -2.970  -3.927   5.082  0.00  0.00    -0.482 OA
BRANCH  26  27
ATOM     27  C   UNL     1      -2.513  -5.212   5.510  0.00  0.00    +0.264 C 
BRANCH  27  28
ATOM     28  C   UNL     1      -3.066  -5.511   6.880  0.00  0.00    -0.010 A 
ATOM     29  C   UNL     1      -2.360  -5.135   8.007  0.00  0.00    +0.009 A 
ATOM     30  C   UNL     1      -2.867  -5.409   9.264  0.00  0.00    +0.033 A 
ATOM     31  C   UNL     1      -4.080  -6.059   9.393  0.00  0.00    +0.126 A 
ATOM     32  C   UNL     1      -4.787  -6.434   8.266  0.00  0.00    +0.033 A 
ATOM     33  C   UNL     1      -4.282  -6.156   7.009  0.00  0.00    +0.009 A 
BRANCH  31  34
ATOM     34  N   UNL     1      -4.622  -6.353  10.738  0.00  0.00    +0.056 N 
ATOM     35  O   UNL     1      -4.004  -6.025  11.724  0.00  0.00    -0.126 OA
ATOM     36  O   UNL     1      -5.683  -6.921  10.851  0.00  0.00    -0.126 OA
ENDBRANCH  31  34
ENDBRANCH  27  28
ENDBRANCH  26  27
ENDBRANCH  20  26
ENDBRANCH   4  17
BRANCH   3  37
ATOM     37  C   UNL     1      -2.363   0.094   0.004  0.00  0.00    +0.337 C 
ATOM     38  O   UNL     1      -2.316   1.310   0.001  0.00  0.00    -0.245 OA
BRANCH  37  39
ATOM     39  O   UNL     1      -3.557  -0.535   0.006  0.00  0.00    -0.465 OA
ATOM     40  C   UNL     1      -4.724   0.289   0.005  0.00  0.00    +0.280 C 
ENDBRANCH  37  39
ENDBRANCH   3  37
TORSDOF 8
