REMARK  Name = ZINC58415808
REMARK  7 active torsions:
REMARK  status: ('A' for Active; 'I' for Inactive)
REMARK    1  A    between atoms: C_1  and  C_2
REMARK    2  A    between atoms: C_2  and  C_3
REMARK    3  A    between atoms: C_2  and  C_4
REMARK    4  A    between atoms: C_7  and  O_21
REMARK    5  A    between atoms: C_8  and  C_10
REMARK    6  A    between atoms: N_12  and  C_13
REMARK    7  A    between atoms: N_18  and  C_20
REMARK                            x       y       z     vdW  Elec       q    Type
REMARK                         _______ _______ _______ _____ _____    ______ ____
ROOT
ATOM      1  C   UNL     1       3.734  -2.519  -2.156  0.00  0.00    +0.252 C 
ATOM      2  O   UNL     1       4.330  -2.874  -3.155  0.00  0.00    -0.270 OA
ATOM      3  N   UNL     1       4.176  -2.892  -0.939  0.00  0.00    -0.280 N 
ATOM      4  H   UNL     1       3.744  -2.551  -0.141  0.00  0.00    +0.155 HD
ENDROOT
BRANCH   3   5
ATOM      5  C   UNL     1       5.262  -3.773  -0.827  0.00  0.00    +0.050 A 
ATOM      6  C   UNL     1       6.499  -3.446  -1.410  0.00  0.00    +0.030 A 
ATOM      7  C   UNL     1       7.543  -4.315  -1.290  0.00  0.00    +0.072 A 
ATOM      8  C   UNL     1       7.362  -5.518  -0.588  0.00  0.00    +0.251 A 
ATOM      9  O   UNL     1       8.290  -6.303  -0.474  0.00  0.00    -0.268 OA
ATOM     10  N   UNL     1       6.167  -5.807  -0.039  0.00  0.00    -0.316 N 
ATOM     11  C   UNL     1       5.123  -4.944  -0.150  0.00  0.00    +0.112 A 
ATOM     12  C   UNL     1       5.991  -7.066   0.690  0.00  0.00    +0.152 C 
ENDBRANCH   3   5
BRANCH   1  17
ATOM     13  C   UNL     1       0.711  -0.487  -1.252  0.00  0.00    -0.044 A 
ATOM     14  C   UNL     1       0.256  -0.103  -2.503  0.00  0.00    +0.007 A 
ATOM     15  C   UNL     1       0.926  -0.501  -3.643  0.00  0.00    +0.046 A 
ATOM     16  C   UNL     1       2.063  -1.290  -3.541  0.00  0.00    +0.129 A 
ATOM     17  C   UNL     1       2.526  -1.680  -2.277  0.00  0.00    +0.079 A 
ATOM     18  C   UNL     1       1.841  -1.266  -1.132  0.00  0.00    +0.020 A 
BRANCH  13  20
ATOM     19  C   UNL     1      -0.056   1.483   0.044  0.00  0.00    +0.012 C 
ATOM     20  C   UNL     1      -0.031  -0.046  -0.017  0.00  0.00    +0.013 C 
ATOM     21  C   UNL     1      -1.464  -0.578  -0.065  0.00  0.00    +0.012 C 
ENDBRANCH  13  20
BRANCH  16  22
ATOM     22  O   UNL     1       2.723  -1.682  -4.660  0.00  0.00    -0.506 OA
ATOM     23  H   UNL     1       3.415  -1.069  -4.943  0.00  0.00    +0.292 HD
ENDBRANCH  16  22
ENDBRANCH   1  17
TORSDOF 4
