REMARK  Name = ZINC64963700
REMARK  6 active torsions:
REMARK  status: ('A' for Active; 'I' for Inactive)
REMARK    1  A    between atoms: C_1  and  C_2
REMARK    2  A    between atoms: C_2  and  C_3
REMARK    3  A    between atoms: C_3  and  N_4
REMARK    4  A    between atoms: C_6  and  C_16
REMARK    5  A    between atoms: C_13  and  C_15
REMARK    6  A    between atoms: C_18  and  C_21
REMARK                            x       y       z     vdW  Elec       q    Type
REMARK                         _______ _______ _______ _____ _____    ______ ____
ROOT
ATOM      1  N   UNL     1       0.738  -1.962  -1.265  0.00  0.00    -0.346 N 
ATOM      2  C   UNL     1       1.770  -2.594  -0.684  0.00  0.00    +0.103 A 
ATOM      3  C   UNL     1       1.863  -3.968  -0.649  0.00  0.00    +0.103 A 
ATOM      4  C   UNL     1       0.796  -4.770  -1.268  0.00  0.00    +0.202 A 
ATOM      5  O   UNL     1       0.833  -5.988  -1.262  0.00  0.00    -0.286 OA
ATOM      6  C   UNL     1      -0.319  -4.038  -1.895  0.00  0.00    +0.046 A 
ATOM      7  C   UNL     1      -0.306  -2.633  -1.863  0.00  0.00    +0.053 A 
ATOM      8  C   UNL     1      -1.356  -1.930  -2.448  0.00  0.00    +0.027 A 
ATOM      9  C   UNL     1      -2.394  -2.613  -3.043  0.00  0.00    +0.005 A 
ATOM     10  C   UNL     1      -2.408  -4.001  -3.068  0.00  0.00    -0.050 A 
ATOM     11  C   UNL     1      -1.374  -4.716  -2.506  0.00  0.00    +0.017 A 
ATOM     12  C   UNL     1      -3.553  -4.728  -3.725  0.00  0.00    +0.044 C 
ENDROOT
BRANCH   3  13
ATOM     13  C   UNL     1       3.013  -4.624  -0.001  0.00  0.00    +0.264 A 
ATOM     14  N   UNL     1       3.211  -5.921   0.089  0.00  0.00    -0.187 NA
ATOM     15  C   UNL     1       4.358  -6.164   0.741  0.00  0.00    +0.203 A 
ATOM     16  N   UNL     1       4.906  -5.021   1.075  0.00  0.00    -0.056 NA
ATOM     17  O   UNL     1       4.045  -4.000   0.594  0.00  0.00    -0.332 OA
BRANCH  15  18
ATOM     18  C   UNL     1       4.915  -7.507   1.037  0.00  0.00    +0.036 A 
ATOM     19  C   UNL     1       4.237  -8.652   0.623  0.00  0.00    +0.013 A 
ATOM     20  C   UNL     1       4.760  -9.899   0.900  0.00  0.00    +0.001 A 
ATOM     21  C   UNL     1       5.954 -10.014   1.588  0.00  0.00    +0.001 A 
ATOM     22  C   UNL     1       6.632  -8.882   2.003  0.00  0.00    +0.016 A 
ATOM     23  C   UNL     1       6.121  -7.629   1.725  0.00  0.00    +0.029 A 
ATOM     24 BR   UNL     1       7.052  -6.081   2.285  0.00  0.00    -0.050 Br
ENDBRANCH  15  18
ENDBRANCH   3  13
BRANCH   1  25
ATOM     25  C   UNL     1       0.718  -0.497  -1.257  0.00  0.00    +0.121 C 
BRANCH  25  27
ATOM     26  C   UNL     1      -0.019   1.526   0.010  0.00  0.00    +0.005 C 
ATOM     27  C   UNL     1       0.002  -0.004   0.002  0.00  0.00    +0.018 C 
ENDBRANCH  25  27
ENDBRANCH   1  25
TORSDOF 4
