REMARK  Name = ZINC25391950
REMARK  14 active torsions:
REMARK  status: ('A' for Active; 'I' for Inactive)
REMARK    1  A    between atoms: C_1  and  C_2
REMARK    2  A    between atoms: C_2  and  C_3
REMARK    3  A    between atoms: C_3  and  C_4
REMARK    4  A    between atoms: C_4  and  N_5
REMARK    5  A    between atoms: C_6  and  N_36
REMARK    6  A    between atoms: C_7  and  N_14
REMARK    7  A    between atoms: N_14  and  C_15
REMARK    8  A    between atoms: C_15  and  C_16
REMARK    9  A    between atoms: C_16  and  C_17
REMARK   10  A    between atoms: C_16  and  C_18
REMARK   11  A    between atoms: C_19  and  C_21
REMARK   12  A    between atoms: C_21  and  N_22
REMARK   13  A    between atoms: N_25  and  C_28
REMARK   14  A    between atoms: C_33  and  C_34
REMARK                            x       y       z     vdW  Elec       q    Type
REMARK                         _______ _______ _______ _____ _____    ______ ____
ROOT
ATOM      1  N   UNL     1      -5.836  -4.120   2.256  0.00  0.00    -0.263 N 
ATOM      2  C   UNL     1      -5.183  -3.450   3.228  0.00  0.00    +0.234 C 
ATOM      3  O   UNL     1      -4.164  -2.845   2.969  0.00  0.00    -0.274 OA
ENDROOT
BRANCH   1   6
ATOM      4  N   UNL     1      -4.925  -2.774  -1.039  0.00  0.00    -0.280 N 
ATOM      5  C   UNL     1      -5.365  -2.824   0.263  0.00  0.00    +0.127 A 
ATOM      6  C   UNL     1      -5.391  -4.037   0.920  0.00  0.00    +0.140 A 
ATOM      7  C   UNL     1      -4.964  -5.190   0.234  0.00  0.00    +0.277 A 
ATOM      8  O   UNL     1      -4.977  -6.275   0.790  0.00  0.00    -0.266 OA
ATOM      9  N   UNL     1      -4.542  -5.086  -1.041  0.00  0.00    -0.273 N 
ATOM     10  H   UNL     1      -4.249  -5.880  -1.515  0.00  0.00    +0.173 HD
ATOM     11  C   UNL     1      -4.530  -3.896  -1.667  0.00  0.00    +0.331 A 
ATOM     12  O   UNL     1      -4.149  -3.832  -2.820  0.00  0.00    -0.246 OA
BRANCH   5  13
ATOM     13  N   UNL     1      -5.774  -1.678   0.903  0.00  0.00    -0.343 N 
ATOM     14  H   UNL     1      -5.667  -0.816   0.471  0.00  0.00    +0.144 HD
ATOM     15  H   UNL     1      -6.170  -1.731   1.787  0.00  0.00    +0.144 HD
ENDBRANCH   5  13
BRANCH   4  16
ATOM     16  C   UNL     1      -4.893  -1.492  -1.748  0.00  0.00    +0.128 C 
BRANCH  16  17
ATOM     17  C   UNL     1      -6.232  -1.266  -2.453  0.00  0.00    +0.021 C 
BRANCH  17  19
ATOM     18  C   UNL     1      -7.537   0.299  -3.899  0.00  0.00    +0.004 C 
ATOM     19  C   UNL     1      -6.198   0.072  -3.194  0.00  0.00    -0.002 C 
ENDBRANCH  17  19
ENDBRANCH  16  17
ENDBRANCH   4  16
ENDBRANCH   1   6
BRANCH   1  20
ATOM     20  C   UNL     1      -7.008  -4.935   2.588  0.00  0.00    +0.117 C 
BRANCH  20  21
ATOM     21  C   UNL     1      -8.254  -4.048   2.617  0.00  0.00    +0.001 C 
ATOM     22  C   UNL     1      -8.542  -3.527   1.207  0.00  0.00    +0.009 C 
ATOM     23  C   UNL     1      -9.450  -4.863   3.114  0.00  0.00    +0.009 C 
ENDBRANCH  20  21
ENDBRANCH   1  20
BRANCH   2  24
ATOM     24  C   UNL     1      -5.719  -3.454   4.637  0.00  0.00    +0.181 C 
BRANCH  24  25
ATOM     25  N   UNL     1      -4.760  -2.787   5.528  0.00  0.00    -0.291 NA
ATOM     26  C   UNL     1      -3.508  -3.552   5.620  0.00  0.00    +0.104 C 
ATOM     27  C   UNL     1      -2.474  -2.739   6.407  0.00  0.00    +0.120 C 
ATOM     28  N   UNL     1      -3.066  -2.356   7.698  0.00  0.00    -0.327 N 
ATOM     29  C   UNL     1      -4.386  -1.707   7.693  0.00  0.00    +0.120 C 
ATOM     30  C   UNL     1      -5.345  -2.560   6.856  0.00  0.00    +0.104 C 
BRANCH  28  31
ATOM     31  C   UNL     1      -2.392  -2.601   8.896  0.00  0.00    +0.034 A 
ATOM     32  C   UNL     1      -1.531  -1.645   9.419  0.00  0.00    +0.043 A 
ATOM     33  C   UNL     1      -0.866  -1.891  10.605  0.00  0.00    +0.043 A 
ATOM     34  C   UNL     1      -1.057  -3.089  11.271  0.00  0.00    +0.020 A 
ATOM     35  C   UNL     1      -1.914  -4.043  10.753  0.00  0.00    +0.006 A 
ATOM     36  C   UNL     1      -2.586  -3.800   9.571  0.00  0.00    -0.029 A 
ATOM     37  C   UNL     1      -3.525  -4.837   9.010  0.00  0.00    +0.045 C 
ATOM     38 CL   UNL     1       0.211  -0.697  11.260  0.00  0.00    -0.083 Cl
ENDBRANCH  28  31
ENDBRANCH  24  25
ENDBRANCH   2  24
TORSDOF 10
