REMARK  Name = ZINC64735085
REMARK  8 active torsions:
REMARK  status: ('A' for Active; 'I' for Inactive)
REMARK    1  A    between atoms: C_1  and  C_2
REMARK    2  A    between atoms: C_2  and  C_3
REMARK    3  A    between atoms: C_2  and  C_4
REMARK    4  A    between atoms: C_2  and  C_5
REMARK    5  A    between atoms: C_8  and  S_11
REMARK    6  A    between atoms: S_11  and  N_14
REMARK    7  A    between atoms: N_14  and  N_15
REMARK    8  A    between atoms: C_16  and  C_18
REMARK                            x       y       z     vdW  Elec       q    Type
REMARK                         _______ _______ _______ _____ _____    ______ ____
ROOT
ATOM      1  N   UNL     1       2.580  -0.816  -6.143  0.00  0.00    -0.108 NA
ATOM      2  H   UNL     1       2.128  -1.063  -6.965  0.00  0.00    +0.172 HD
ENDROOT
BRANCH   1   3
ATOM      3  N   UNL     1       3.023   0.499  -5.955  0.00  0.00    -0.228 N 
ATOM      4  C   UNL     1       3.840   1.071  -6.861  0.00  0.00    +0.257 C 
ATOM      5  O   UNL     1       4.193   0.445  -7.843  0.00  0.00    -0.269 OA
ATOM      6  H   UNL     1       2.742   0.998  -5.172  0.00  0.00    +0.171 HD
BRANCH   4   7
ATOM      7  C   UNL     1       4.304   2.449  -6.664  0.00  0.00    +0.044 C 
ATOM      8  C   UNL     1       5.131   3.175  -7.492  0.00  0.00    +0.008 A 
ATOM      9  C   UNL     1       5.770   2.873  -8.721  0.00  0.00    +0.010 A 
ATOM     10  C   UNL     1       6.545   3.796  -9.330  0.00  0.00    +0.001 A 
ATOM     11  C   UNL     1       6.755   5.077  -8.793  0.00  0.00    +0.002 A 
ATOM     12  C   UNL     1       6.192   5.465  -7.628  0.00  0.00    +0.026 A 
ATOM     13  C   UNL     1       5.333   4.519  -6.899  0.00  0.00    +0.043 A 
ATOM     14  N   UNL     1       4.678   4.626  -5.777  0.00  0.00    -0.380 N 
ATOM     15  C   UNL     1       3.969   3.370  -5.511  0.00  0.00    +0.154 C 
ATOM     16  H   UNL     1       4.659   5.412  -5.210  0.00  0.00    +0.160 HD
ENDBRANCH   4   7
ENDBRANCH   1   3
BRANCH   1  17
ATOM     17  S   UNL     1       2.826  -1.950  -4.962  0.00  0.00    +0.074 S 
ATOM     18  O   UNL     1       4.217  -1.937  -4.669  0.00  0.00    -0.152 OA
ATOM     19  O   UNL     1       2.148  -3.127  -5.380  0.00  0.00    -0.152 OA
BRANCH  17  23
ATOM     20  C   UNL     1       0.707  -0.490  -1.238  0.00  0.00    -0.042 A 
ATOM     21  C   UNL     1       0.036  -1.284  -2.148  0.00  0.00    +0.006 A 
ATOM     22  C   UNL     1       0.683  -1.730  -3.286  0.00  0.00    +0.029 A 
ATOM     23  C   UNL     1       2.001  -1.381  -3.513  0.00  0.00    +0.107 A 
ATOM     24  C   UNL     1       2.672  -0.586  -2.603  0.00  0.00    +0.029 A 
ATOM     25  C   UNL     1       2.024  -0.137  -1.467  0.00  0.00    +0.006 A 
BRANCH  20  27
ATOM     26  C   UNL     1      -0.019   1.526   0.010  0.00  0.00    +0.015 C 
ATOM     27  C   UNL     1       0.002  -0.004   0.002  0.00  0.00    -0.013 C 
ATOM     28  C   UNL     1       0.742  -0.511   1.242  0.00  0.00    +0.015 C 
ATOM     29  C   UNL     1      -1.433  -0.534   0.013  0.00  0.00    +0.015 C 
ENDBRANCH  20  27
ENDBRANCH  17  23
ENDBRANCH   1  17
TORSDOF 5
