REMARK  Name = ZINC12041807
REMARK  13 active torsions:
REMARK  status: ('A' for Active; 'I' for Inactive)
REMARK    1  A    between atoms: C_1  and  C_2
REMARK    2  A    between atoms: C_4  and  C_36
REMARK    3  A    between atoms: C_6  and  C_8
REMARK    4  A    between atoms: N_10  and  C_11
REMARK    5  A    between atoms: C_11  and  C_13
REMARK    6  A    between atoms: C_11  and  C_17
REMARK    7  A    between atoms: C_13  and  C_14
REMARK    8  A    between atoms: C_14  and  C_15
REMARK    9  A    between atoms: C_14  and  C_16
REMARK   10  A    between atoms: C_26  and  C_27
REMARK   11  A    between atoms: C_26  and  N_72
REMARK   12  A    between atoms: C_31  and  O_33
REMARK   13  A    between atoms: O_33  and  C_34
REMARK                            x       y       z     vdW  Elec       q    Type
REMARK                         _______ _______ _______ _____ _____    ______ ____
ROOT
ATOM      1  C   UNL     1      -3.502   6.495   1.683  0.00  0.00    +0.154 A 
ATOM      2  N   UNL     1      -3.000   7.122   2.714  0.00  0.00    -0.132 NA
ATOM      3  N   UNL     1      -2.255   6.318   3.392  0.00  0.00    -0.134 NA
ATOM      4  C   UNL     1      -2.255   5.146   2.827  0.00  0.00    +0.132 A 
ATOM      5  N   UNL     1      -3.031   5.230   1.718  0.00  0.00    -0.315 N 
ATOM      6  C   UNL     1      -3.275   4.156   0.756  0.00  0.00    +0.106 C 
ATOM      7  C   UNL     1      -3.145   2.805   1.466  0.00  0.00    -0.056 C 
ATOM      8  C   UNL     1      -0.837   3.261   2.088  0.00  0.00    -0.071 C 
ATOM      9  C   UNL     1      -1.543   3.900   3.288  0.00  0.00    +0.058 C 
ATOM     10  N   UNL     1      -1.750   2.309   1.420  0.00  0.00    +0.384 N 
ATOM     11  H   UNL     1      -1.703   1.407   1.910  0.00  0.00    -0.081 HD
ENDROOT
BRANCH   1  12
ATOM     12  C   UNL     1      -4.430   7.075   0.647  0.00  0.00    +0.142 C 
BRANCH  12  15
ATOM     13  C   UNL     1      -4.266   8.885  -0.975  0.00  0.00    +0.245 C 
ATOM     14  O   UNL     1      -4.964   8.234  -1.728  0.00  0.00    -0.270 OA
ATOM     15  N   UNL     1      -3.942   8.393   0.237  0.00  0.00    -0.301 N 
ATOM     16  H   UNL     1      -3.385   8.913   0.838  0.00  0.00    +0.150 HD
BRANCH  13  22
ATOM     17  C   UNL     1      -1.649  13.018   0.010  0.00  0.00    +0.044 C 
ATOM     18  C   UNL     1      -2.515  12.207  -0.920  0.00  0.00    -0.049 A 
ATOM     19  C   UNL     1      -2.850  12.709  -2.165  0.00  0.00    +0.006 A 
ATOM     20  C   UNL     1      -3.644  11.971  -3.024  0.00  0.00    -0.049 A 
ATOM     21  C   UNL     1      -4.107  10.728  -2.644  0.00  0.00    +0.016 A 
ATOM     22  C   UNL     1      -3.773  10.216  -1.389  0.00  0.00    +0.037 A 
ATOM     23  C   UNL     1      -2.976  10.968  -0.525  0.00  0.00    +0.016 A 
ATOM     24  C   UNL     1      -4.004  12.525  -4.378  0.00  0.00    +0.044 C 
ENDBRANCH  13  22
ENDBRANCH  12  15
BRANCH  12  25
ATOM     25  C   UNL     1      -5.834   7.213   1.242  0.00  0.00    +0.033 C 
BRANCH  25  26
ATOM     26  C   UNL     1      -6.803   7.684   0.156  0.00  0.00    -0.015 C 
ATOM     27  C   UNL     1      -6.925   6.605  -0.922  0.00  0.00    +0.007 C 
ATOM     28  C   UNL     1      -8.178   7.942   0.776  0.00  0.00    +0.007 C 
ENDBRANCH  25  26
ENDBRANCH  12  25
ENDBRANCH   1  12
BRANCH  10  29
ATOM     29  C   UNL     1      -1.333   2.113   0.020  0.00  0.00    -0.043 C 
BRANCH  29  30
ATOM     30  C   UNL     1      -0.017   1.378   0.010  0.00  0.00    -0.060 A 
ATOM     31  C   UNL     1       0.002  -0.004   0.002  0.00  0.00    +0.005 A 
ATOM     32  C   UNL     1       1.207  -0.682  -0.013  0.00  0.00    +0.042 A 
ATOM     33  C   UNL     1       2.397   0.023  -0.021  0.00  0.00    +0.165 A 
ATOM     34  C   UNL     1       2.380   1.412  -0.013  0.00  0.00    +0.155 A 
ATOM     35  C   UNL     1       1.169   2.087   0.002  0.00  0.00    +0.050 A 
ATOM     36  F   UNL     1       3.575  -0.639  -0.036  0.00  0.00    -0.202 F 
BRANCH  34  37
ATOM     37  O   UNL     1       3.548   2.108  -0.021  0.00  0.00    -0.492 OA
ATOM     38  C   UNL     1       3.454   3.534  -0.012  0.00  0.00    +0.277 C 
ENDBRANCH  34  37
ENDBRANCH  29  30
ENDBRANCH  10  29
TORSDOF 8
