REMARK  Name = ZINC07049057
REMARK  7 active torsions:
REMARK  status: ('A' for Active; 'I' for Inactive)
REMARK    1  A    between atoms: C_1  and  C_2
REMARK    2  A    between atoms: C_5  and  C_14
REMARK    3  A    between atoms: C_12  and  C_13
REMARK    4  A    between atoms: C_14  and  S_15
REMARK    5  A    between atoms: S_15  and  C_16
REMARK    6  A    between atoms: C_18  and  C_23
REMARK    7  A    between atoms: C_20  and  N_22
REMARK                            x       y       z     vdW  Elec       q    Type
REMARK                         _______ _______ _______ _____ _____    ______ ____
ROOT
ATOM      1  C   UNL     1       6.471  -0.016  -5.040  0.00  0.00    +0.044 C 
ATOM      2  C   UNL     1       7.145  -0.276  -3.717  0.00  0.00    -0.047 A 
ATOM      3  C   UNL     1       6.474  -0.024  -2.553  0.00  0.00    +0.015 A 
ATOM      4  C   UNL     1       7.100  -0.264  -1.326  0.00  0.00    +0.022 A 
ATOM      5  C   UNL     1       6.408  -0.004  -0.060  0.00  0.00    -0.020 A 
ATOM      6  C   UNL     1       7.073  -0.253   1.097  0.00  0.00    +0.097 A 
ATOM      7  C   UNL     1       8.390  -0.759   1.054  0.00  0.00    +0.338 A 
ATOM      8  O   UNL     1       8.974  -0.983   2.099  0.00  0.00    -0.245 OA
ATOM      9  O   UNL     1       9.017  -0.995  -0.109  0.00  0.00    -0.422 OA
ATOM     10  C   UNL     1       8.414  -0.763  -1.295  0.00  0.00    +0.140 A 
ATOM     11  C   UNL     1       9.076  -1.012  -2.490  0.00  0.00    +0.050 A 
ATOM     12  C   UNL     1       8.441  -0.768  -3.690  0.00  0.00    -0.044 A 
ATOM     13  C   UNL     1       9.163  -1.040  -4.984  0.00  0.00    +0.044 C 
ENDROOT
BRANCH   5  14
ATOM     14  C   UNL     1       4.999   0.531  -0.043  0.00  0.00    +0.113 C 
BRANCH  14  15
ATOM     15  S   UNL     1       3.829  -0.851  -0.040  0.00  0.00    -0.081 S 
BRANCH  15  16
ATOM     16  C   UNL     1       2.307   0.037  -0.020  0.00  0.00    +0.190 A 
ATOM     17  N   UNL     1       1.166  -0.636  -0.013  0.00  0.00    -0.227 NA
ATOM     18  C   UNL     1       0.002  -0.004   0.002  0.00  0.00    +0.044 A 
ATOM     19  C   UNL     1      -0.017   1.377   0.010  0.00  0.00    +0.066 A 
ATOM     20  C   UNL     1       1.201   2.060   0.002  0.00  0.00    +0.121 A 
ATOM     21  N   UNL     1       2.332   1.362  -0.013  0.00  0.00    -0.207 NA
ATOM     22  C   UNL     1      -1.288  -0.783   0.010  0.00  0.00    +0.066 C 
BRANCH  20  23
ATOM     23  N   UNL     1       1.230   3.445   0.008  0.00  0.00    -0.343 N 
ATOM     24  H   UNL     1       0.401   3.948   0.019  0.00  0.00    +0.144 HD
ATOM     25  H   UNL     1       2.081   3.913   0.003  0.00  0.00    +0.144 HD
ENDBRANCH  20  23
ENDBRANCH  15  16
ENDBRANCH  14  15
ENDBRANCH   5  14
TORSDOF 4
