REMARK  Name = ZINC13865414
REMARK  6 active torsions:
REMARK  status: ('A' for Active; 'I' for Inactive)
REMARK    1  A    between atoms: C_5  and  N_7
REMARK    2  A    between atoms: N_7  and  C_8
REMARK    3  A    between atoms: C_8  and  N_10
REMARK    4  A    between atoms: N_10  and  N_11
REMARK    5  A    between atoms: C_12  and  C_13
REMARK    6  A    between atoms: C_17  and  N_19
REMARK                            x       y       z     vdW  Elec       q    Type
REMARK                         _______ _______ _______ _____ _____    ______ ____
ROOT
ATOM      1  N   UNL     1       0.115  -4.117   0.182  0.00  0.00    -0.218 N 
ATOM      2  H   UNL     1      -0.713  -4.615   0.261  0.00  0.00    +0.176 HD
ENDROOT
BRANCH   1   3
ATOM      3  C   UNL     1       0.086  -2.773   0.088  0.00  0.00    +0.154 C 
ATOM      4  S   UNL     1      -1.413  -1.945   0.107  0.00  0.00    -0.017 S 
BRANCH   3   5
ATOM      5  N   UNL     1       1.237  -2.080  -0.021  0.00  0.00    -0.294 N 
ATOM      6  H   UNL     1       2.080  -2.551  -0.112  0.00  0.00    +0.154 HD
BRANCH   5  11
ATOM      7  C   UNL     1       0.416   1.373   0.943  0.00  0.00    +0.002 A 
ATOM      8  C   UNL     1       1.173   2.086   0.032  0.00  0.00    +0.002 A 
ATOM      9  C   UNL     1       1.952   1.421  -0.897  0.00  0.00    +0.022 A 
ATOM     10  C   UNL     1       1.976   0.039  -0.918  0.00  0.00    +0.062 A 
ATOM     11  C   UNL     1       1.216  -0.681  -0.003  0.00  0.00    +0.051 A 
ATOM     12  C   UNL     1       0.435  -0.008   0.928  0.00  0.00    +0.025 A 
ATOM     13 CL   UNL     1       2.953  -0.796  -2.084  0.00  0.00    -0.082 Cl
ENDBRANCH   5  11
ENDBRANCH   3   5
ENDBRANCH   1   3
BRANCH   1  14
ATOM     14  N   UNL     1       1.342  -4.794   0.167  0.00  0.00    -0.188 NA
ATOM     15  C   UNL     1       1.369  -6.088   0.257  0.00  0.00    +0.138 C 
BRANCH  15  16
ATOM     16  C   UNL     1       2.660  -6.801   0.241  0.00  0.00    -0.003 A 
ATOM     17  C   UNL     1       3.856  -6.085   0.134  0.00  0.00    +0.011 A 
ATOM     18  C   UNL     1       5.059  -6.757   0.119  0.00  0.00    +0.023 A 
ATOM     19  C   UNL     1       5.085  -8.139   0.210  0.00  0.00    +0.071 A 
ATOM     20  C   UNL     1       3.905  -8.854   0.316  0.00  0.00    +0.145 A 
ATOM     21  C   UNL     1       2.694  -8.194   0.338  0.00  0.00    +0.043 A 
ATOM     22 CL   UNL     1       6.605  -8.978   0.190  0.00  0.00    -0.081 Cl
BRANCH  20  23
ATOM     23  N   UNL     1       3.942 -10.331   0.412  0.00  0.00    +0.058 N 
ATOM     24  O   UNL     1       2.912 -10.957   0.505  0.00  0.00    -0.126 OA
ATOM     25  O   UNL     1       5.002 -10.911   0.398  0.00  0.00    -0.126 OA
ENDBRANCH  20  23
ENDBRANCH  15  16
ENDBRANCH   1  14
TORSDOF 6
