REMARK  Name = ZINC38578936
REMARK  12 active torsions:
REMARK  status: ('A' for Active; 'I' for Inactive)
REMARK    1  A    between atoms: C_1  and  C_2
REMARK    2  A    between atoms: C_2  and  N_3
REMARK    3  A    between atoms: N_3  and  C_4
REMARK    4  A    between atoms: N_3  and  C_6
REMARK    5  A    between atoms: C_4  and  C_5
REMARK    6  A    between atoms: C_6  and  C_7
REMARK    7  A    between atoms: C_7  and  C_10
REMARK    8  A    between atoms: C_13  and  N_16
REMARK    9  A    between atoms: N_21  and  C_28
REMARK   10  A    between atoms: C_23  and  C_24
REMARK   11  A    between atoms: C_31  and  O_34
REMARK   12  A    between atoms: O_34  and  C_35
REMARK                            x       y       z     vdW  Elec       q    Type
REMARK                         _______ _______ _______ _____ _____    ______ ____
ROOT
ATOM      1  N   UNL     1      -1.425   0.927   6.381  0.00  0.00    -0.266 N 
ATOM      2  C   UNL     1      -0.354   1.830   6.783  0.00  0.00    +0.119 C 
ATOM      3  C   UNL     1      -0.863   3.228   7.142  0.00  0.00    +0.059 C 
ATOM      4  C   UNL     1      -2.075   3.092   8.019  0.00  0.00    +0.016 A 
ATOM      5  C   UNL     1      -2.914   1.980   7.945  0.00  0.00    +0.133 A 
ATOM      6  N   UNL     1      -3.897   2.182   8.848  0.00  0.00    -0.227 N 
ATOM      7  N   UNL     1      -3.699   3.308   9.449  0.00  0.00    -0.161 NA
ATOM      8  C   UNL     1      -2.616   3.903   8.993  0.00  0.00    +0.170 A 
ATOM      9  C   UNL     1      -2.623   0.888   7.008  0.00  0.00    +0.270 C 
ATOM     10  O   UNL     1      -3.420  -0.009   6.808  0.00  0.00    -0.268 OA
ENDROOT
BRANCH   1  14
ATOM     11  C   UNL     1      -0.773  -1.631   3.158  0.00  0.00    -0.043 A 
ATOM     12  C   UNL     1      -1.716  -0.624   3.061  0.00  0.00    +0.006 A 
ATOM     13  C   UNL     1      -1.935   0.225   4.127  0.00  0.00    +0.024 A 
ATOM     14  C   UNL     1      -1.206   0.068   5.299  0.00  0.00    +0.037 A 
ATOM     15  C   UNL     1      -0.260  -0.944   5.394  0.00  0.00    +0.024 A 
ATOM     16  C   UNL     1      -0.050  -1.794   4.326  0.00  0.00    +0.006 A 
BRANCH  11  17
ATOM     17  C   UNL     1      -0.538  -2.556   1.992  0.00  0.00    -0.019 C 
ATOM     18  C   UNL     1      -0.108  -3.991   2.304  0.00  0.00    +0.010 C 
ATOM     19  C   UNL     1      -1.523  -3.710   1.796  0.00  0.00    +0.010 C 
BRANCH  17  20
ATOM     20  C   UNL     1       0.043  -1.901   0.738  0.00  0.00    -0.067 C 
BRANCH  20  21
ATOM     21  N   UNL     1       1.060  -0.915   1.126  0.00  0.00    +0.380 N 
ATOM     22  H   UNL     1       0.662  -0.264   1.787  0.00  0.00    -0.082 HD
BRANCH  21  24
ATOM     23  C   UNL     1       3.193  -0.570   2.278  0.00  0.00    -0.017 C 
ATOM     24  C   UNL     1       2.201  -1.604   1.743  0.00  0.00    -0.082 C 
ENDBRANCH  21  24
BRANCH  21  25
ATOM     25  C   UNL     1       1.515  -0.185  -0.065  0.00  0.00    -0.082 C 
ATOM     26  C   UNL     1       0.361   0.651  -0.622  0.00  0.00    -0.017 C 
ENDBRANCH  21  25
ENDBRANCH  20  21
ENDBRANCH  17  20
ENDBRANCH  11  17
ENDBRANCH   1  14
BRANCH   6  27
ATOM     27  C   UNL     1      -4.964   1.308   9.094  0.00  0.00    +0.066 A 
ATOM     28  C   UNL     1      -4.736  -0.059   9.184  0.00  0.00    +0.031 A 
ATOM     29  C   UNL     1      -5.788  -0.919   9.427  0.00  0.00    +0.048 A 
ATOM     30  C   UNL     1      -7.073  -0.419   9.581  0.00  0.00    +0.120 A 
ATOM     31  C   UNL     1      -7.302   0.947   9.490  0.00  0.00    +0.048 A 
ATOM     32  C   UNL     1      -6.250   1.809   9.253  0.00  0.00    +0.031 A 
BRANCH  30  33
ATOM     33  O   UNL     1      -8.109  -1.266   9.819  0.00  0.00    -0.495 OA
ATOM     34  C   UNL     1      -9.404  -0.682   9.967  0.00  0.00    +0.277 C 
ENDBRANCH  30  33
ENDBRANCH   6  27
BRANCH   8  35
ATOM     35  C   UNL     1      -2.068   5.229   9.454  0.00  0.00    +0.436 C 
ATOM     36  F   UNL     1      -2.622   6.255   8.681  0.00  0.00    -0.164 F 
ATOM     37  F   UNL     1      -2.398   5.428  10.799  0.00  0.00    -0.164 F 
ATOM     38  F   UNL     1      -0.677   5.234   9.308  0.00  0.00    -0.164 F 
ENDBRANCH   8  35
TORSDOF 9
