REMARK  Name = ZINC27431264
REMARK  6 active torsions:
REMARK  status: ('A' for Active; 'I' for Inactive)
REMARK    1  A    between atoms: C_3  and  C_26
REMARK    2  A    between atoms: C_6  and  C_7
REMARK    3  A    between atoms: C_8  and  C_9
REMARK    4  A    between atoms: C_13  and  C_18
REMARK    5  A    between atoms: N_19  and  N_20
REMARK    6  A    between atoms: N_27  and  N_28
REMARK                            x       y       z     vdW  Elec       q    Type
REMARK                         _______ _______ _______ _____ _____    ______ ____
ROOT
ATOM      1  C   UNL     1      -1.262  -0.757   0.010  0.00  0.00    +0.010 C 
ATOM      2  C   UNL     1      -1.244  -2.101   0.003  0.00  0.00    +0.030 C 
ENDROOT
BRANCH   2   3
ATOM      3  C   UNL     1      -2.510  -2.855   0.011  0.00  0.00    +0.083 A 
ATOM      4  C   UNL     1      -2.632  -4.216   0.010  0.00  0.00    +0.120 A 
ATOM      5  N   UNL     1      -3.970  -4.497   0.020  0.00  0.00    -0.305 N 
ATOM      6  C   UNL     1      -4.656  -5.676   0.024  0.00  0.00    +0.102 A 
ATOM      7  C   UNL     1      -6.032  -5.679   0.034  0.00  0.00    +0.011 A 
ATOM      8  C   UNL     1      -6.739  -4.450   0.041  0.00  0.00    +0.014 A 
ATOM      9  C   UNL     1      -6.051  -3.281   0.037  0.00  0.00    +0.047 A 
ATOM     10  C   UNL     1      -4.639  -3.300   0.026  0.00  0.00    +0.138 A 
ATOM     11  N   UNL     1      -3.745  -2.323   0.026  0.00  0.00    -0.228 NA
BRANCH   7  12
ATOM     12  C   UNL     1      -6.768  -6.954   0.038  0.00  0.00    +0.144 C 
ATOM     13  N   UNL     1      -8.072  -6.954   0.048  0.00  0.00    -0.154 NA
BRANCH  13  14
ATOM     14  N   UNL     1      -8.773  -8.168   0.052  0.00  0.00    -0.116 NA
ATOM     15  C   UNL     1     -10.089  -8.168   0.062  0.00  0.00    +0.220 C 
ATOM     16  N   UNL     1     -10.845  -7.031   0.064  0.00  0.00    -0.313 N 
ATOM     17  C   UNL     1     -12.267  -7.399   0.076  0.00  0.00    +0.125 C 
ATOM     18  C   UNL     1     -12.267  -8.939   0.081  0.00  0.00    +0.149 C 
ATOM     19  N   UNL     1     -10.844  -9.306   0.065  0.00  0.00    -0.217 NA
ATOM     20  H   UNL     1     -10.498  -6.125   0.059  0.00  0.00    +0.149 HD
ENDBRANCH  13  14
ENDBRANCH   7  12
ENDBRANCH   2   3
BRANCH   1  26
ATOM     21  C   UNL     1      -0.017   1.396   0.010  0.00  0.00    +0.008 A 
ATOM     22  C   UNL     1       1.156   2.094   0.002  0.00  0.00    +0.010 A 
ATOM     23  C   UNL     1       2.378   1.411  -0.013  0.00  0.00    -0.005 A 
ATOM     24  C   UNL     1       2.397   0.010  -0.021  0.00  0.00    +0.010 A 
ATOM     25  C   UNL     1       1.224  -0.688  -0.013  0.00  0.00    +0.008 A 
ATOM     26  C   UNL     1       0.002  -0.004   0.002  0.00  0.00    -0.025 A 
BRANCH  23  27
ATOM     27  C   UNL     1       3.640   2.162  -0.022  0.00  0.00    +0.143 C 
ATOM     28  N   UNL     1       4.780   1.524  -0.036  0.00  0.00    -0.154 NA
BRANCH  28  29
ATOM     29  N   UNL     1       5.888   2.184  -0.043  0.00  0.00    -0.118 NA
ATOM     30  C   UNL     1       7.039   1.541  -0.058  0.00  0.00    +0.201 C 
ATOM     31  N   UNL     1       7.141   0.180  -0.072  0.00  0.00    -0.314 N 
ATOM     32  C   UNL     1       8.562  -0.194  -0.085  0.00  0.00    +0.123 C 
ATOM     33  C   UNL     1       9.314   1.150  -0.078  0.00  0.00    +0.123 C 
ATOM     34  N   UNL     1       8.252   2.165  -0.067  0.00  0.00    -0.314 N 
ATOM     35  H   UNL     1       8.391   3.125  -0.063  0.00  0.00    +0.149 HD
ATOM     36  H   UNL     1       6.396  -0.440  -0.072  0.00  0.00    +0.149 HD
ENDBRANCH  28  29
ENDBRANCH  23  27
ENDBRANCH   1  26
TORSDOF 6
