REMARK  Name = ZINC13063732
REMARK  12 active torsions:
REMARK  status: ('A' for Active; 'I' for Inactive)
REMARK    1  A    between atoms: C_1  and  C_2
REMARK    2  A    between atoms: C_2  and  C_3
REMARK    3  A    between atoms: C_10  and  C_15
REMARK    4  A    between atoms: C_15  and  N_16
REMARK    5  A    between atoms: N_16  and  C_17
REMARK    6  A    between atoms: N_16  and  C_25
REMARK    7  A    between atoms: C_17  and  C_18
REMARK    8  A    between atoms: C_25  and  C_27
REMARK    9  A    between atoms: C_25  and  C_29
REMARK   10  A    between atoms: C_27  and  C_28
REMARK   11  A    between atoms: N_33  and  C_34
REMARK   12  A    between atoms: C_34  and  C_35
REMARK                            x       y       z     vdW  Elec       q    Type
REMARK                         _______ _______ _______ _____ _____    ______ ____
ROOT
ATOM      1  N   UNL     1       1.115  -0.113  -0.194  0.00  0.00    +0.392 N 
ATOM      2  H   UNL     1       2.048   0.131   0.336  0.00  0.00    -0.080 HD
ENDROOT
BRANCH   1   3
ATOM      3  C   UNL     1       1.474  -0.655  -1.511  0.00  0.00    -0.036 C 
BRANCH   3  11
ATOM      4  C   UNL     1       6.947   1.663  -3.230  0.00  0.00    -0.047 A 
ATOM      5  C   UNL     1       6.441   2.717  -3.978  0.00  0.00    +0.005 A 
ATOM      6  C   UNL     1       5.082   2.905  -4.100  0.00  0.00    +0.026 A 
ATOM      7  C   UNL     1       4.205   2.031  -3.465  0.00  0.00    +0.049 A 
ATOM      8  C   UNL     1       4.721   0.964  -2.707  0.00  0.00    -0.001 A 
ATOM      9  C   UNL     1       6.105   0.792  -2.598  0.00  0.00    +0.013 A 
ATOM     10  C   UNL     1       3.790   0.053  -2.038  0.00  0.00    +0.017 A 
ATOM     11  C   UNL     1       2.459   0.267  -2.183  0.00  0.00    +0.001 A 
ATOM     12  C   UNL     1       1.993   1.352  -2.954  0.00  0.00    +0.251 A 
ATOM     13  O   UNL     1       0.792   1.529  -3.067  0.00  0.00    -0.268 OA
ATOM     14  N   UNL     1       2.840   2.197  -3.568  0.00  0.00    -0.322 N 
ATOM     15  H   UNL     1       2.430   3.029  -4.159  0.00  0.00    +0.169 HD
BRANCH   4  17
ATOM     16  C   UNL     1       8.931   0.576  -4.246  0.00  0.00    +0.009 C 
ATOM     17  C   UNL     1       8.438   1.478  -3.113  0.00  0.00    +0.032 C 
ENDBRANCH   4  17
ENDBRANCH   3  11
ENDBRANCH   1   3
BRANCH   1  18
ATOM     18  C   UNL     1       0.335   1.124  -0.328  0.00  0.00    -0.042 C 
BRANCH  18  19
ATOM     19  C   UNL     1       0.396   1.899   0.964  0.00  0.00    -0.064 A 
ATOM     20  C   UNL     1      -0.733   2.015   1.753  0.00  0.00    +0.004 A 
ATOM     21  C   UNL     1      -0.677   2.721   2.940  0.00  0.00    +0.038 A 
ATOM     22  C   UNL     1       0.508   3.321   3.333  0.00  0.00    +0.123 A 
ATOM     23  C   UNL     1       1.637   3.207   2.539  0.00  0.00    +0.038 A 
ATOM     24  C   UNL     1       1.580   2.497   1.355  0.00  0.00    +0.004 A 
ATOM     25  F   UNL     1       0.563   4.015   4.490  0.00  0.00    -0.205 F 
ENDBRANCH  18  19
ENDBRANCH   1  18
BRANCH   1  26
ATOM     26  C   UNL     1       0.390  -1.110   0.606  0.00  0.00    +0.003 C 
BRANCH  26  27
ATOM     27  C   UNL     1       0.716  -0.917   2.064  0.00  0.00    +0.138 A 
ATOM     28  N   UNL     1       0.884   0.225   2.685  0.00  0.00    -0.115 NA
ATOM     29  N   UNL     1       1.146  -0.028   3.921  0.00  0.00    -0.023 NA
ATOM     30  N   UNL     1       1.157  -1.303   4.103  0.00  0.00    -0.044 NA
ATOM     31  N   UNL     1       0.895  -1.885   2.982  0.00  0.00    -0.226 N 
BRANCH  31  32
ATOM     32  C   UNL     1       0.811  -3.330   2.751  0.00  0.00    +0.182 C 
BRANCH  32  33
ATOM     33  C   UNL     1       2.169  -3.857   2.366  0.00  0.00    -0.026 A 
ATOM     34  C   UNL     1       2.539  -3.905   1.035  0.00  0.00    +0.008 A 
ATOM     35  C   UNL     1       3.787  -4.384   0.681  0.00  0.00    +0.038 A 
ATOM     36  C   UNL     1       4.661  -4.826   1.659  0.00  0.00    +0.123 A 
ATOM     37  C   UNL     1       4.287  -4.782   2.992  0.00  0.00    +0.038 A 
ATOM     38  C   UNL     1       3.042  -4.298   3.344  0.00  0.00    +0.008 A 
ATOM     39  F   UNL     1       5.879  -5.299   1.314  0.00  0.00    -0.205 F 
ENDBRANCH  32  33
ENDBRANCH  31  32
ENDBRANCH  26  27
BRANCH  26  40
ATOM     40  C   UNL     1      -1.115  -0.936   0.392  0.00  0.00    -0.011 C 
ATOM     41  C   UNL     1      -1.455  -1.194  -1.077  0.00  0.00    +0.002 C 
ENDBRANCH  26  40
ENDBRANCH   1  26
TORSDOF 10
