REMARK  Name = ZINC63641976
REMARK  7 active torsions:
REMARK  status: ('A' for Active; 'I' for Inactive)
REMARK    1  A    between atoms: C_1  and  O_2
REMARK    2  A    between atoms: O_2  and  C_3
REMARK    3  A    between atoms: C_6  and  O_34
REMARK    4  A    between atoms: C_7  and  N_9
REMARK    5  A    between atoms: C_10  and  S_33
REMARK    6  A    between atoms: C_14  and  C_17
REMARK    7  A    between atoms: O_34  and  C_35
REMARK                            x       y       z     vdW  Elec       q    Type
REMARK                         _______ _______ _______ _____ _____    ______ ____
ROOT
ATOM      1  N   UNL     1       0.790  -3.755  -2.527  0.00  0.00    -0.239 N 
ATOM      2  C   UNL     1       2.098  -4.078  -1.978  0.00  0.00    +0.225 C 
ATOM      3  N   UNL     1       2.197  -5.474  -1.580  0.00  0.00    -0.288 N 
ATOM      4  C   UNL     1       1.388  -6.430  -2.048  0.00  0.00    +0.229 C 
ATOM      5  C   UNL     1       0.285  -6.138  -3.023  0.00  0.00    +0.180 C 
ATOM      6  C   UNL     1      -0.051  -4.675  -3.010  0.00  0.00    +0.235 C 
ATOM      7  O   UNL     1      -1.119  -4.314  -3.457  0.00  0.00    -0.274 OA
ATOM      8  O   UNL     1       1.552  -7.572  -1.673  0.00  0.00    -0.275 OA
ATOM      9  H   UNL     1       2.885  -5.723  -0.944  0.00  0.00    +0.151 HD
ENDROOT
BRANCH   5  10
ATOM     10  C   UNL     1       0.730  -6.548  -4.428  0.00  0.00    +0.101 C 
ATOM     11  C   UNL     1       0.760  -8.074  -4.535  0.00  0.00    +0.124 C 
ATOM     12  C   UNL     1      -0.687  -8.539  -4.408  0.00  0.00    -0.036 C 
ATOM     13  C   UNL     1      -0.709  -9.432  -3.429  0.00  0.00    -0.001 A 
ATOM     14  C   UNL     1      -1.787 -10.285  -2.903  0.00  0.00    +0.010 A 
ATOM     15  C   UNL     1      -1.458 -11.092  -1.860  0.00  0.00    +0.001 A 
ATOM     16  C   UNL     1      -0.179 -11.137  -1.295  0.00  0.00    +0.002 A 
ATOM     17  C   UNL     1       0.873 -10.392  -1.719  0.00  0.00    +0.026 A 
ATOM     18  C   UNL     1       0.652  -9.507  -2.814  0.00  0.00    +0.043 A 
ATOM     19  N   UNL     1       1.491  -8.701  -3.435  0.00  0.00    -0.376 N 
ATOM     20  C   UNL     1      -1.790  -7.930  -5.239  0.00  0.00    +0.048 C 
ATOM     21  C   UNL     1      -1.616  -6.404  -5.133  0.00  0.00    +0.085 C 
ATOM     22  N   UNL     1      -0.227  -6.032  -5.421  0.00  0.00    -0.310 NA
ATOM     23  H   UNL     1      -0.134  -5.033  -5.528  0.00  0.00    +0.122 HD
ATOM     24  H   UNL     1       2.421  -8.543  -3.209  0.00  0.00    +0.160 HD
ENDBRANCH   5  10
BRANCH   1  29
ATOM     25  C   UNL     1      -0.689  -0.549  -1.483  0.00  0.00    +0.122 A 
ATOM     26  C   UNL     1      -0.402   0.245  -2.584  0.00  0.00    +0.049 A 
ATOM     27  C   UNL     1       0.279  -0.287  -3.664  0.00  0.00    +0.051 A 
ATOM     28  C   UNL     1       0.676  -1.614  -3.648  0.00  0.00    +0.142 A 
ATOM     29  C   UNL     1       0.390  -2.413  -2.544  0.00  0.00    +0.084 A 
ATOM     30  C   UNL     1      -0.289  -1.876  -1.461  0.00  0.00    +0.073 A 
BRANCH  25  32
ATOM     31  C   UNL     1      -1.741   1.351  -0.514  0.00  0.00    +0.277 C 
ATOM     32  O   UNL     1      -1.359  -0.023  -0.423  0.00  0.00    -0.495 OA
ENDBRANCH  25  32
BRANCH  28  33
ATOM     33  O   UNL     1       1.346  -2.136  -4.711  0.00  0.00    -0.493 OA
ATOM     34  C   UNL     1       1.606  -1.259  -5.809  0.00  0.00    +0.277 C 
ENDBRANCH  28  33
ENDBRANCH   1  29
BRANCH   2  35
ATOM     35  S   UNL     1       3.364  -3.734  -3.231  0.00  0.00    -0.136 S 
ATOM     36  H   UNL     1       4.519  -4.063  -2.626  0.00  0.00    +0.105 HD
ENDBRANCH   2  35
TORSDOF 5
