REMARK  Name = ZINC33960287
REMARK  7 active torsions:
REMARK  status: ('A' for Active; 'I' for Inactive)
REMARK    1  A    between atoms: C_1  and  C_2
REMARK    2  A    between atoms: C_5  and  C_37
REMARK    3  A    between atoms: N_8  and  S_10
REMARK    4  A    between atoms: S_10  and  C_13
REMARK    5  A    between atoms: C_17  and  C_19
REMARK    6  A    between atoms: N_24  and  N_25
REMARK    7  A    between atoms: C_26  and  C_27
REMARK                            x       y       z     vdW  Elec       q    Type
REMARK                         _______ _______ _______ _____ _____    ______ ____
ROOT
ATOM      1  C   UNL     1       4.820  -1.788  -2.819  0.00  0.00    +0.080 A 
ATOM      2  C   UNL     1       5.160  -1.996  -4.127  0.00  0.00    +0.077 A 
ATOM      3  S   UNL     1       6.310  -0.652  -4.388  0.00  0.00    -0.059 S 
ATOM      4  C   UNL     1       6.220   0.042  -2.744  0.00  0.00    +0.178 A 
ATOM      5  N   UNL     1       5.356  -0.770  -2.162  0.00  0.00    -0.224 NA
ATOM      6  N   UNL     1       6.879   1.141  -2.220  0.00  0.00    -0.215 N 
ATOM      7  H   UNL     1       6.729   1.403  -1.298  0.00  0.00    +0.176 HD
ENDROOT
BRANCH   1  12
ATOM      8  C   UNL     1       2.531  -3.255  -0.223  0.00  0.00    +0.106 A 
ATOM      9  C   UNL     1       2.055  -4.374  -0.883  0.00  0.00    +0.028 A 
ATOM     10  C   UNL     1       2.475  -4.654  -2.171  0.00  0.00    +0.003 A 
ATOM     11  C   UNL     1       3.373  -3.818  -2.804  0.00  0.00    +0.010 A 
ATOM     12  C   UNL     1       3.855  -2.690  -2.144  0.00  0.00    +0.003 A 
ATOM     13  C   UNL     1       3.423  -2.409  -0.849  0.00  0.00    +0.038 A 
BRANCH   8  14
ATOM     14  S   UNL     1       1.990  -2.906   1.417  0.00  0.00    +0.061 S 
ATOM     15  O   UNL     1       2.995  -2.096   2.013  0.00  0.00    -0.153 OA
ATOM     16  O   UNL     1       1.575  -4.143   1.980  0.00  0.00    -0.153 OA
BRANCH  14  22
ATOM     17  C   UNL     1      -0.015   1.548   0.035  0.00  0.00    +0.009 C 
ATOM     18  C   UNL     1      -0.000   0.018   0.020  0.00  0.00    +0.002 C 
ATOM     19  C   UNL     1      -1.438  -0.506   0.035  0.00  0.00    +0.009 C 
ATOM     20  C   UNL     1      -1.425  -2.036  -0.013  0.00  0.00    +0.002 C 
ATOM     21  C   UNL     1      -0.700  -2.576   1.224  0.00  0.00    +0.112 C 
ATOM     22  N   UNL     1       0.634  -1.963   1.295  0.00  0.00    -0.176 NA
ATOM     23  C   UNL     1       0.742  -0.498   1.257  0.00  0.00    +0.112 C 
ATOM     24  C   UNL     1      -2.863  -2.558  -0.031  0.00  0.00    +0.009 C 
ENDBRANCH  14  22
ENDBRANCH   8  14
ENDBRANCH   1  12
BRANCH   6  25
ATOM     25  N   UNL     1       7.762   1.877  -3.022  0.00  0.00    -0.188 NA
ATOM     26  C   UNL     1       8.380   2.909  -2.530  0.00  0.00    +0.138 C 
BRANCH  26  27
ATOM     27  C   UNL     1       9.307   3.681  -3.371  0.00  0.00    +0.002 A 
ATOM     28  C   UNL     1       9.890   4.850  -2.897  0.00  0.00    +0.010 A 
ATOM     29  C   UNL     1      10.764   5.577  -3.694  0.00  0.00    +0.001 A 
ATOM     30  C   UNL     1      11.083   5.180  -4.956  0.00  0.00    +0.008 A 
ATOM     31  C   UNL     1      10.532   4.008  -5.500  0.00  0.00    -0.017 A 
ATOM     32  C   UNL     1       9.639   3.231  -4.722  0.00  0.00    -0.009 A 
ATOM     33  C   UNL     1       9.092   2.060  -5.258  0.00  0.00    +0.009 A 
ATOM     34  C   UNL     1       9.429   1.677  -6.523  0.00  0.00    +0.001 A 
ATOM     35  C   UNL     1      10.311   2.435  -7.289  0.00  0.00    +0.001 A 
ATOM     36  C   UNL     1      10.852   3.586  -6.802  0.00  0.00    +0.008 A 
ENDBRANCH  26  27
ENDBRANCH   6  25
TORSDOF 5
