REMARK  Name = ZINC06144529
REMARK  7 active torsions:
REMARK  status: ('A' for Active; 'I' for Inactive)
REMARK    1  A    between atoms: C_4  and  C_7
REMARK    2  A    between atoms: C_8  and  C_17
REMARK    3  A    between atoms: N_18  and  N_19
REMARK    4  A    between atoms: C_20  and  C_22
REMARK    5  A    between atoms: C_27  and  N_28
REMARK    6  A    between atoms: N_28  and  S_29
REMARK    7  A    between atoms: S_29  and  C_32
REMARK                            x       y       z     vdW  Elec       q    Type
REMARK                         _______ _______ _______ _____ _____    ______ ____
ROOT
ATOM      1  N   UNL     1       0.982  -0.945  -0.302  0.00  0.00    -0.203 N 
ATOM      2  C   UNL     1      -0.132  -0.195  -0.192  0.00  0.00    +0.265 C 
ATOM      3  O   UNL     1      -1.213  -0.730  -0.035  0.00  0.00    -0.268 OA
ATOM      4  H   UNL     1       1.844  -0.518  -0.427  0.00  0.00    +0.178 HD
ENDROOT
BRANCH   2   5
ATOM      5  C   UNL     1      -0.041   1.275  -0.261  0.00  0.00    +0.061 A 
ATOM      6  C   UNL     1       1.198   1.895  -0.441  0.00  0.00    +0.015 A 
ATOM      7  C   UNL     1       1.276   3.269  -0.505  0.00  0.00    +0.001 A 
ATOM      8  C   UNL     1       0.131   4.042  -0.392  0.00  0.00    +0.002 A 
ATOM      9  C   UNL     1      -1.100   3.445  -0.214  0.00  0.00    +0.025 A 
ATOM     10  C   UNL     1      -1.200   2.060  -0.152  0.00  0.00    +0.060 A 
BRANCH  10  11
ATOM     11  N   UNL     1      -2.439   1.457   0.022  0.00  0.00    -0.215 N 
ATOM     12  H   UNL     1      -2.514   0.649   0.554  0.00  0.00    +0.174 HD
BRANCH  11  13
ATOM     13  S   UNL     1      -3.786   2.115  -0.680  0.00  0.00    +0.079 S 
ATOM     14  O   UNL     1      -4.854   1.210  -0.437  0.00  0.00    -0.149 OA
ATOM     15  O   UNL     1      -3.833   3.476  -0.271  0.00  0.00    -0.149 OA
BRANCH  13  16
ATOM     16  C   UNL     1      -3.517   2.121  -2.421  0.00  0.00    +0.146 A 
ATOM     17  C   UNL     1      -3.818   1.166  -3.335  0.00  0.00    +0.036 A 
ATOM     18  C   UNL     1      -3.512   1.390  -4.664  0.00  0.00    +0.010 A 
ATOM     19  C   UNL     1      -2.920   2.558  -5.015  0.00  0.00    +0.047 A 
ATOM     20  S   UNL     1      -2.784   3.390  -3.441  0.00  0.00    -0.077 S 
ENDBRANCH  13  16
ENDBRANCH  11  13
ENDBRANCH  10  11
ENDBRANCH   2   5
BRANCH   1  22
ATOM     21  C   UNL     1       1.970  -3.066  -0.344  0.00  0.00    +0.141 C 
ATOM     22  N   UNL     1       0.895  -2.342  -0.237  0.00  0.00    -0.187 NA
BRANCH  21  24
ATOM     23  C   UNL     1       2.926  -5.431  -0.371  0.00  0.00    +0.056 A 
ATOM     24  C   UNL     1       1.880  -4.529  -0.275  0.00  0.00    +0.028 A 
ATOM     25  C   UNL     1       0.659  -5.330  -0.084  0.00  0.00    +0.009 A 
ATOM     26  C   UNL     1      -0.690  -5.006   0.067  0.00  0.00    +0.010 A 
ATOM     27  C   UNL     1      -1.619  -6.011   0.224  0.00  0.00    +0.001 A 
ATOM     28  C   UNL     1      -1.219  -7.340   0.225  0.00  0.00    +0.002 A 
ATOM     29  C   UNL     1       0.108  -7.675   0.071  0.00  0.00    +0.026 A 
ATOM     30  C   UNL     1       1.063  -6.675  -0.088  0.00  0.00    +0.048 A 
ATOM     31  N   UNL     1       2.432  -6.706  -0.259  0.00  0.00    -0.354 N 
ATOM     32  H   UNL     1       2.968  -7.514  -0.295  0.00  0.00    +0.166 HD
BRANCH  23  36
ATOM     33  C   UNL     1       7.010  -4.413  -0.922  0.00  0.00    +0.000 A 
ATOM     34  C   UNL     1       6.659  -5.369   0.015  0.00  0.00    +0.001 A 
ATOM     35  C   UNL     1       5.335  -5.705   0.199  0.00  0.00    +0.010 A 
ATOM     36  C   UNL     1       4.346  -5.077  -0.563  0.00  0.00    -0.001 A 
ATOM     37  C   UNL     1       4.708  -4.117  -1.511  0.00  0.00    +0.010 A 
ATOM     38  C   UNL     1       6.036  -3.787  -1.681  0.00  0.00    +0.001 A 
ENDBRANCH  23  36
ENDBRANCH  21  24
ENDBRANCH   1  22
TORSDOF 7
