REMARK  Name = ZINC08854881
REMARK  9 active torsions:
REMARK  status: ('A' for Active; 'I' for Inactive)
REMARK    1  A    between atoms: C_1  and  C_2
REMARK    2  A    between atoms: C_2  and  C_3
REMARK    3  A    between atoms: C_3  and  C_4
REMARK    4  A    between atoms: C_4  and  O_5
REMARK    5  A    between atoms: O_5  and  C_6
REMARK    6  A    between atoms: C_9  and  C_12
REMARK    7  A    between atoms: C_19  and  N_35
REMARK    8  A    between atoms: C_20  and  C_33
REMARK    9  A    between atoms: C_26  and  C_29
REMARK                            x       y       z     vdW  Elec       q    Type
REMARK                         _______ _______ _______ _____ _____    ______ ____
ROOT
ATOM      1  C   UNL     1       1.903  -8.077   2.994  0.00  0.00    +0.101 A 
ATOM      2  C   UNL     1       3.026  -8.765   3.462  0.00  0.00    +0.066 A 
ATOM      3  C   UNL     1       2.734 -10.100   3.459  0.00  0.00    +0.224 A 
ATOM      4  N   UNL     1       1.472 -10.243   3.005  0.00  0.00    -0.246 N 
ATOM      5  H   UNL     1       0.997 -11.081   2.896  0.00  0.00    +0.192 HD
ATOM      6  N   UNL     1       0.965  -8.964   2.723  0.00  0.00    -0.171 NA
ATOM      7  O   UNL     1       3.624 -11.042   3.859  0.00  0.00    -0.423 OA
ATOM      8  C   UNL     1       4.911 -10.671   4.013  0.00  0.00    +0.201 C 
ATOM      9  C   UNL     1       5.321  -9.381   4.047  0.00  0.00    +0.110 C 
ATOM     10  C   UNL     1       4.357  -8.235   3.914  0.00  0.00    +0.146 C 
ATOM     11  C   UNL     1       4.233  -7.478   5.198  0.00  0.00    +0.013 A 
ATOM     12  C   UNL     1       4.651  -6.170   4.921  0.00  0.00    +0.039 A 
ATOM     13  C   UNL     1       4.650  -5.205   5.929  0.00  0.00    +0.024 A 
ATOM     14  C   UNL     1       4.226  -5.602   7.188  0.00  0.00    +0.006 A 
ATOM     15  C   UNL     1       3.819  -6.894   7.449  0.00  0.00    -0.036 A 
ATOM     16  C   UNL     1       3.814  -7.866   6.452  0.00  0.00    +0.027 A 
ATOM     17 BR   UNL     1       3.257  -9.639   6.804  0.00  0.00    -0.050 Br
ATOM     18  C   UNL     1       3.371  -7.260   8.840  0.00  0.00    +0.045 C 
ATOM     19  N   UNL     1       5.020  -6.053   3.593  0.00  0.00    -0.284 N 
ATOM     20  C   UNL     1       4.882  -7.218   2.925  0.00  0.00    +0.238 C 
ATOM     21  O   UNL     1       5.131  -7.412   1.754  0.00  0.00    -0.274 OA
ATOM     22  H   UNL     1       5.341  -5.231   3.190  0.00  0.00    +0.155 HD
ENDROOT
BRANCH   1  26
ATOM     23  C   UNL     1       1.565  -3.861   2.536  0.00  0.00    +0.121 A 
ATOM     24  C   UNL     1       2.010  -4.393   3.738  0.00  0.00    +0.046 A 
ATOM     25  C   UNL     1       2.120  -5.760   3.889  0.00  0.00    +0.013 A 
ATOM     26  C   UNL     1       1.785  -6.606   2.834  0.00  0.00    +0.003 A 
ATOM     27  C   UNL     1       1.339  -6.068   1.628  0.00  0.00    +0.013 A 
ATOM     28  C   UNL     1       1.225  -4.701   1.484  0.00  0.00    +0.046 A 
BRANCH  23  29
ATOM     29  O   UNL     1       1.457  -2.514   2.389  0.00  0.00    -0.492 OA
BRANCH  29  30
ATOM     30  C   UNL     1       1.824  -1.708   3.511  0.00  0.00    +0.229 C 
BRANCH  30  31
ATOM     31  C   UNL     1       1.637  -0.231   3.160  0.00  0.00    +0.041 C 
BRANCH  31  33
ATOM     32  C   UNL     1       1.843   2.110   4.010  0.00  0.00    +0.004 C 
ATOM     33  C   UNL     1       2.030   0.632   4.361  0.00  0.00    -0.000 C 
ENDBRANCH  31  33
ENDBRANCH  30  31
ENDBRANCH  29  30
ENDBRANCH  23  29
ENDBRANCH   1  26
BRANCH   8  34
ATOM     34  N   UNL     1       5.858 -11.656   4.144  0.00  0.00    -0.328 N 
ATOM     35  H   UNL     1       5.594 -12.589   4.123  0.00  0.00    +0.145 HD
ATOM     36  H   UNL     1       6.792 -11.419   4.256  0.00  0.00    +0.145 HD
ENDBRANCH   8  34
BRANCH   9  37
ATOM     37  C   UNL     1       6.716  -9.100   4.213  0.00  0.00    +0.102 C 
ATOM     38  N   UNL     1       7.822  -8.877   4.345  0.00  0.00    -0.191 NA
ENDBRANCH   9  37
TORSDOF 7
