REMARK  Name = ZINC59250265
REMARK  10 active torsions:
REMARK  status: ('A' for Active; 'I' for Inactive)
REMARK    1  A    between atoms: C_1  and  C_2
REMARK    2  A    between atoms: C_4  and  C_35
REMARK    3  A    between atoms: C_6  and  N_8
REMARK    4  A    between atoms: C_14  and  C_15
REMARK    5  A    between atoms: C_18  and  O_23
REMARK    6  A    between atoms: C_19  and  O_21
REMARK    7  A    between atoms: O_21  and  C_22
REMARK    8  A    between atoms: O_23  and  C_24
REMARK    9  A    between atoms: C_24  and  C_25
REMARK   10  A    between atoms: C_29  and  C_31
REMARK                            x       y       z     vdW  Elec       q    Type
REMARK                         _______ _______ _______ _____ _____    ______ ____
ROOT
ATOM      1  C   UNL     1       2.569  -2.977   7.851  0.00  0.00    -0.020 A 
ATOM      2  C   UNL     1       1.625  -3.984   7.613  0.00  0.00    +0.012 A 
ATOM      3  C   UNL     1       1.286  -4.860   8.620  0.00  0.00    +0.050 A 
ATOM      4  C   UNL     1       1.877  -4.748   9.872  0.00  0.00    +0.162 A 
ATOM      5  C   UNL     1       2.817  -3.749  10.117  0.00  0.00    +0.162 A 
ATOM      6  C   UNL     1       3.168  -2.869   9.111  0.00  0.00    +0.057 A 
ENDROOT
BRANCH   1  13
ATOM      7  N   UNL     1      -0.766  -2.093   2.946  0.00  0.00    -0.226 NA
ATOM      8  C   UNL     1       0.269  -1.940   3.742  0.00  0.00    +0.166 C 
ATOM      9  N   UNL     1       1.421  -1.217   3.521  0.00  0.00    -0.260 N 
ATOM     10  C   UNL     1       2.373  -1.169   4.437  0.00  0.00    +0.256 C 
ATOM     11  O   UNL     1       3.397  -0.535   4.258  0.00  0.00    -0.269 OA
ATOM     12  C   UNL     1       2.138  -1.918   5.686  0.00  0.00    +0.078 C 
ATOM     13  C   UNL     1       2.933  -2.041   6.779  0.00  0.00    +0.028 C 
ATOM     14  S   UNL     1       0.521  -2.613   5.377  0.00  0.00    -0.049 S 
ATOM     15  H   UNL     1       1.534  -0.739   2.684  0.00  0.00    +0.157 HD
BRANCH   7  21
ATOM     16  C   UNL     1       0.041   1.874   0.192  0.00  0.00    +0.044 C 
ATOM     17  C   UNL     1      -0.392   0.438   0.339  0.00  0.00    -0.048 A 
ATOM     18  C   UNL     1      -0.802  -0.277  -0.772  0.00  0.00    +0.006 A 
ATOM     19  C   UNL     1      -1.200  -1.596  -0.646  0.00  0.00    -0.048 A 
ATOM     20  C   UNL     1      -1.190  -2.208   0.590  0.00  0.00    +0.031 A 
ATOM     21  C   UNL     1      -0.777  -1.492   1.716  0.00  0.00    +0.067 A 
ATOM     22  C   UNL     1      -0.371  -0.163   1.581  0.00  0.00    +0.031 A 
ATOM     23  C   UNL     1      -1.646  -2.367  -1.862  0.00  0.00    +0.044 C 
ENDBRANCH   7  21
ENDBRANCH   1  13
BRANCH   5  24
ATOM     24  O   UNL     1       3.393  -3.643  11.344  0.00  0.00    -0.491 OA
ATOM     25  C   UNL     1       4.349  -2.596  11.524  0.00  0.00    +0.277 C 
ENDBRANCH   5  24
BRANCH   4  26
ATOM     26  O   UNL     1       1.538  -5.616  10.861  0.00  0.00    -0.484 OA
BRANCH  26  27
ATOM     27  C   UNL     1       0.567  -6.615  10.543  0.00  0.00    +0.264 C 
BRANCH  27  28
ATOM     28  C   UNL     1       0.319  -7.478  11.753  0.00  0.00    -0.010 A 
ATOM     29  C   UNL     1       1.087  -8.611  11.962  0.00  0.00    +0.007 A 
ATOM     30  C   UNL     1       0.866  -9.409  13.071  0.00  0.00    +0.001 A 
ATOM     31  C   UNL     1      -0.122  -9.080  13.976  0.00  0.00    +0.015 A 
ATOM     32  C   UNL     1      -0.901  -7.939  13.771  0.00  0.00    +0.064 A 
ATOM     33  C   UNL     1      -0.668  -7.134  12.652  0.00  0.00    +0.022 A 
BRANCH  32  34
ATOM     34  C   UNL     1      -1.959  -7.581  14.734  0.00  0.00    +0.387 C 
ATOM     35  O   UNL     1      -2.157  -8.284  15.714  0.00  0.00    -0.241 OA
ATOM     36  O   UNL     1      -2.639  -6.581  14.552  0.00  0.00    -0.241 OA
ENDBRANCH  32  34
ENDBRANCH  27  28
ENDBRANCH  26  27
ENDBRANCH   4  26
TORSDOF 7
