REMARK  Name = ZINC12502562
REMARK  6 active torsions:
REMARK  status: ('A' for Active; 'I' for Inactive)
REMARK    1  A    between atoms: C_8  and  C_10
REMARK    2  A    between atoms: N_12  and  C_13
REMARK    3  A    between atoms: C_13  and  N_15
REMARK    4  A    between atoms: N_15  and  N_16
REMARK    5  A    between atoms: C_17  and  C_19
REMARK    6  A    between atoms: C_23  and  N_25
REMARK                            x       y       z     vdW  Elec       q    Type
REMARK                         _______ _______ _______ _____ _____    ______ ____
ROOT
ATOM      1  C   UNL     1       3.699   8.701   0.016  0.00  0.00    +0.153 C 
ATOM      2  S   UNL     1       5.361   8.290  -0.002  0.00  0.00    -0.017 S 
ENDROOT
BRANCH   1   5
ATOM      3  C   UNL     1       3.139   6.435   0.008  0.00  0.00    +0.258 C 
ATOM      4  O   UNL     1       4.320   6.143  -0.005  0.00  0.00    -0.269 OA
ATOM      5  N   UNL     1       2.765   7.730   0.019  0.00  0.00    -0.262 N 
ATOM      6  H   UNL     1       1.823   7.963   0.029  0.00  0.00    +0.157 HD
BRANCH   3  14
ATOM      7  C   UNL     1      -0.013   1.076   0.008  0.00  0.00    +0.001 A 
ATOM      8  C   UNL     1      -1.235   1.737   0.017  0.00  0.00    +0.001 A 
ATOM      9  C   UNL     1      -1.261   3.117   0.030  0.00  0.00    +0.016 A 
ATOM     10  C   UNL     1      -0.075   3.819   0.023  0.00  0.00    +0.021 A 
ATOM     11  C   UNL     1       1.184   3.173   0.008  0.00  0.00    +0.008 A 
ATOM     12  C   UNL     1       1.164   1.754   0.000  0.00  0.00    +0.010 A 
ATOM     13  C   UNL     1       2.301   4.028   0.002  0.00  0.00    +0.068 A 
ATOM     14  C   UNL     1       2.122   5.378   0.011  0.00  0.00    +0.094 A 
ATOM     15  S   UNL     1       0.345   5.544   0.029  0.00  0.00    -0.082 S 
ATOM     16 CL   UNL     1       3.905   3.364  -0.017  0.00  0.00    -0.082 Cl
ENDBRANCH   3  14
ENDBRANCH   1   5
BRANCH   1  17
ATOM     17  N   UNL     1       3.325   9.996   0.027  0.00  0.00    -0.245 N 
ATOM     18  H   UNL     1       3.998  10.695   0.024  0.00  0.00    +0.172 HD
BRANCH  17  19
ATOM     19  N   UNL     1       1.965  10.332   0.041  0.00  0.00    -0.231 N 
ATOM     20  C   UNL     1       1.591  11.627   0.052  0.00  0.00    +0.260 C 
ATOM     21  O   UNL     1       2.434  12.503   0.049  0.00  0.00    -0.269 OA
ATOM     22  H   UNL     1       1.293   9.633   0.044  0.00  0.00    +0.173 HD
BRANCH  20  23
ATOM     23  C   UNL     1       0.157  11.982   0.068  0.00  0.00    +0.040 A 
ATOM     24  C   UNL     1      -0.814  10.978   0.065  0.00  0.00    +0.014 A 
ATOM     25  C   UNL     1      -2.150  11.315   0.085  0.00  0.00    +0.023 A 
ATOM     26  C   UNL     1      -2.532  12.646   0.096  0.00  0.00    +0.071 A 
ATOM     27  C   UNL     1      -1.574  13.647   0.093  0.00  0.00    +0.145 A 
ATOM     28  C   UNL     1      -0.234  13.322   0.079  0.00  0.00    +0.047 A 
ATOM     29 CL   UNL     1      -4.217  13.063   0.113  0.00  0.00    -0.081 Cl
BRANCH  27  30
ATOM     30  N   UNL     1      -1.990  15.067   0.105  0.00  0.00    +0.058 N 
ATOM     31  O   UNL     1      -1.148  15.948   0.103  0.00  0.00    -0.126 OA
ATOM     32  O   UNL     1      -3.173  15.355   0.118  0.00  0.00    -0.126 OA
ENDBRANCH  27  30
ENDBRANCH  20  23
ENDBRANCH  17  19
ENDBRANCH   1  17
TORSDOF 6
