REMARK  Name = ZINC12558205
REMARK  5 active torsions:
REMARK  status: ('A' for Active; 'I' for Inactive)
REMARK    1  A    between atoms: C_1  and  C_2
REMARK    2  A    between atoms: C_2  and  C_3
REMARK    3  A    between atoms: C_8  and  N_9
REMARK    4  A    between atoms: C_12  and  C_17
REMARK    5  A    between atoms: C_17  and  N_18
REMARK                            x       y       z     vdW  Elec       q    Type
REMARK                         _______ _______ _______ _____ _____    ______ ____
ROOT
ATOM      1  N   UNL     1      -1.221   2.000   0.019  0.00  0.00    -0.283 N 
ATOM      2  C   UNL     1      -0.016   1.325   0.006  0.00  0.00    +0.224 A 
ATOM      3  N   UNL     1       1.129   2.004  -0.019  0.00  0.00    -0.197 NA
ATOM      4  C   UNL     1       2.282   1.359  -0.037  0.00  0.00    +0.156 A 
ATOM      5  N   UNL     1       2.304   0.038  -0.030  0.00  0.00    -0.198 NA
ATOM      6  C   UNL     1       1.164  -0.649  -0.005  0.00  0.00    +0.217 A 
ATOM      7  N   UNL     1       0.003  -0.004   0.013  0.00  0.00    -0.181 NA
ATOM      8  N   UNL     1       1.189  -2.028   0.002  0.00  0.00    -0.327 N 
ATOM      9  H   UNL     1      -1.235   2.966   0.100  0.00  0.00    +0.155 HD
ATOM     10  H   UNL     1       0.357  -2.528   0.020  0.00  0.00    +0.145 HD
ATOM     11  H   UNL     1       2.037  -2.498  -0.011  0.00  0.00    +0.145 HD
ENDROOT
BRANCH   1  17
ATOM     12  C   UNL     1      -3.596   1.831   0.419  0.00  0.00    -0.026 A 
ATOM     13  C   UNL     1      -4.780   1.127   0.315  0.00  0.00    +0.005 A 
ATOM     14  C   UNL     1      -4.796  -0.116  -0.290  0.00  0.00    +0.000 A 
ATOM     15  C   UNL     1      -3.628  -0.658  -0.793  0.00  0.00    +0.002 A 
ATOM     16  C   UNL     1      -2.442   0.043  -0.698  0.00  0.00    +0.023 A 
ATOM     17  C   UNL     1      -2.421   1.289  -0.085  0.00  0.00    +0.037 A 
BRANCH  12  19
ATOM     18  C   UNL     1      -3.708   4.275   0.013  0.00  0.00    +0.009 C 
ATOM     19  C   UNL     1      -3.579   3.186   1.080  0.00  0.00    +0.033 C 
ENDBRANCH  12  19
ENDBRANCH   1  17
BRANCH   4  20
ATOM     20  C   UNL     1       3.575   2.133  -0.066  0.00  0.00    +0.201 C 
BRANCH  20  21
ATOM     21  N   UNL     1       3.968   2.376  -1.456  0.00  0.00    -0.308 N 
ATOM     22  C   UNL     1       3.542   3.500  -2.087  0.00  0.00    +0.089 A 
ATOM     23  C   UNL     1       3.892   3.746  -3.371  0.00  0.00    +0.018 A 
ATOM     24  C   UNL     1       4.702   2.835  -4.063  0.00  0.00    +0.007 A 
ATOM     25  C   UNL     1       5.129   1.706  -3.427  0.00  0.00    +0.070 A 
ATOM     26  C   UNL     1       4.752   1.484  -2.091  0.00  0.00    +0.252 A 
ATOM     27  O   UNL     1       5.131   0.481  -1.509  0.00  0.00    -0.268 OA
ENDBRANCH  20  21
ENDBRANCH   4  20
TORSDOF 4
