REMARK  Name = ZINC02791061
REMARK  8 active torsions:
REMARK  status: ('A' for Active; 'I' for Inactive)
REMARK    1  A    between atoms: C_1  and  C_2
REMARK    2  A    between atoms: C_5  and  N_9
REMARK    3  A    between atoms: C_6  and  C_8
REMARK    4  A    between atoms: C_10  and  C_15
REMARK    5  A    between atoms: C_20  and  C_34
REMARK    6  A    between atoms: C_23  and  C_26
REMARK    7  A    between atoms: C_29  and  C_33
REMARK    8  A    between atoms: C_30  and  C_32
REMARK                            x       y       z     vdW  Elec       q    Type
REMARK                         _______ _______ _______ _____ _____    ______ ____
ROOT
ATOM      1  C   UNL     1      -2.452  -4.623  -0.022  0.00  0.00    +0.132 A 
ATOM      2  C   UNL     1      -3.557  -5.503  -0.022  0.00  0.00    +0.076 A 
ATOM      3  C   UNL     1      -4.676  -4.751  -0.017  0.00  0.00    +0.119 A 
ATOM      4  N   UNL     1      -4.305  -3.437  -0.018  0.00  0.00    -0.238 N 
ATOM      5  N   UNL     1      -2.912  -3.385  -0.014  0.00  0.00    -0.166 NA
ATOM      6  C   UNL     1      -5.258  -2.323  -0.018  0.00  0.00    +0.215 C 
ATOM      7  C   UNL     1      -6.620  -2.836  -0.498  0.00  0.00    +0.063 C 
ATOM      8  C   UNL     1      -7.007  -4.098   0.281  0.00  0.00    +0.104 C 
ATOM      9  N   UNL     1      -6.015  -5.152  -0.012  0.00  0.00    -0.322 N 
ATOM     10  H   UNL     1      -6.278  -6.068  -0.191  0.00  0.00    +0.148 HD
ENDROOT
BRANCH   8  11
ATOM     11  C   UNL     1      -7.013  -3.800   1.758  0.00  0.00    -0.027 A 
ATOM     12  C   UNL     1      -5.823  -3.768   2.461  0.00  0.00    +0.006 A 
ATOM     13  C   UNL     1      -5.828  -3.494   3.816  0.00  0.00    +0.004 A 
ATOM     14  C   UNL     1      -7.023  -3.252   4.468  0.00  0.00    -0.048 A 
ATOM     15  C   UNL     1      -8.213  -3.284   3.764  0.00  0.00    -0.047 A 
ATOM     16  C   UNL     1      -8.207  -3.553   2.409  0.00  0.00    +0.009 A 
ATOM     17  C   UNL     1      -9.515  -3.020   4.475  0.00  0.00    +0.044 C 
ATOM     18  C   UNL     1      -7.029  -2.955   5.945  0.00  0.00    +0.044 C 
ENDBRANCH   8  11
BRANCH   1  20
ATOM     19  N   UNL     1       0.058  -4.172  -0.021  0.00  0.00    -0.268 N 
ATOM     20  C   UNL     1      -1.028  -5.020  -0.026  0.00  0.00    +0.190 A 
ATOM     21  N   UNL     1      -0.559  -6.246  -0.033  0.00  0.00    -0.126 NA
ATOM     22  N   UNL     1       0.726  -6.226  -0.033  0.00  0.00    -0.121 NA
ATOM     23  C   UNL     1       1.159  -4.985  -0.031  0.00  0.00    +0.207 A 
ATOM     24  S   UNL     1       2.843  -4.466  -0.037  0.00  0.00    -0.009 SA
BRANCH  19  29
ATOM     25  C   UNL     1      -0.018   1.503   0.010  0.00  0.00    +0.044 C 
ATOM     26  C   UNL     1       0.002  -0.004   0.002  0.00  0.00    -0.050 A 
ATOM     27  C   UNL     1       0.006  -0.688  -1.200  0.00  0.00    +0.005 A 
ATOM     28  C   UNL     1       0.024  -2.068  -1.211  0.00  0.00    +0.027 A 
ATOM     29  C   UNL     1       0.040  -2.771  -0.013  0.00  0.00    +0.053 A 
ATOM     30  C   UNL     1       0.036  -2.082   1.192  0.00  0.00    -0.026 A 
ATOM     31  C   UNL     1       0.023  -0.700   1.196  0.00  0.00    +0.008 A 
ATOM     32  C   UNL     1       0.052  -2.840   2.494  0.00  0.00    +0.046 C 
ENDBRANCH  19  29
ENDBRANCH   1  20
BRANCH   6  33
ATOM     33  C   UNL     1      -4.761  -1.224  -0.959  0.00  0.00    +0.412 C 
ATOM     34  F   UNL     1      -4.645  -1.737  -2.256  0.00  0.00    -0.168 F 
ATOM     35  F   UNL     1      -5.671  -0.162  -0.958  0.00  0.00    -0.168 F 
ATOM     36  F   UNL     1      -3.511  -0.768  -0.525  0.00  0.00    -0.168 F 
ENDBRANCH   6  33
TORSDOF 4
