REMARK  Name = ZINC14471634
REMARK  4 active torsions:
REMARK  status: ('A' for Active; 'I' for Inactive)
REMARK    1  A    between atoms: C_1  and  C_2
REMARK    2  A    between atoms: C_5  and  C_27
REMARK    3  A    between atoms: C_15  and  C_18
REMARK    4  A    between atoms: C_22  and  N_24
REMARK                            x       y       z     vdW  Elec       q    Type
REMARK                         _______ _______ _______ _____ _____    ______ ____
ROOT
ATOM      1  C   UNL     1       3.769   2.455  -0.814  0.00  0.00    +0.044 C 
ATOM      2  C   UNL     1       3.230   2.231   0.576  0.00  0.00    -0.045 A 
ATOM      3  C   UNL     1       4.056   2.410   1.666  0.00  0.00    +0.004 A 
ATOM      4  C   UNL     1       3.569   2.206   2.944  0.00  0.00    +0.005 A 
ATOM      5  C   UNL     1       2.257   1.823   3.124  0.00  0.00    -0.029 A 
ATOM      6  C   UNL     1       1.419   1.639   2.024  0.00  0.00    +0.035 A 
ATOM      7  C   UNL     1       1.908   1.845   0.745  0.00  0.00    -0.016 A 
ATOM      8  C   UNL     1       1.063   1.669  -0.482  0.00  0.00    +0.049 C 
ATOM      9  C   UNL     1       0.740   3.001  -1.117  0.00  0.00    -0.023 C 
ATOM     10  C   UNL     1      -0.493   3.013  -1.559  0.00  0.00    -0.030 C 
ATOM     11  C   UNL     1      -1.168   1.683  -1.288  0.00  0.00    +0.033 C 
ATOM     12  C   UNL     1      -0.318   1.070  -0.139  0.00  0.00    +0.029 C 
ATOM     13  C   UNL     1      -0.798   1.659   1.190  0.00  0.00    +0.105 C 
ATOM     14  N   UNL     1       0.102   1.247   2.262  0.00  0.00    -0.336 N 
ATOM     15  C   UNL     1       1.725   1.599   4.516  0.00  0.00    +0.045 C 
ATOM     16  H   UNL     1      -0.220   1.586   3.156  0.00  0.00    +0.147 HD
ENDROOT
BRANCH  13  17
ATOM     17  C   UNL     1      -0.829   3.162   1.091  0.00  0.00    -0.025 A 
ATOM     18  C   UNL     1       0.217   3.910   1.602  0.00  0.00    +0.005 A 
ATOM     19  C   UNL     1       0.191   5.288   1.508  0.00  0.00    +0.003 A 
ATOM     20  C   UNL     1      -0.884   5.921   0.912  0.00  0.00    +0.033 A 
ATOM     21  C   UNL     1      -1.931   5.174   0.406  0.00  0.00    +0.127 A 
ATOM     22  C   UNL     1      -1.904   3.795   0.496  0.00  0.00    +0.038 A 
BRANCH  21  23
ATOM     23  N   UNL     1      -3.083   5.851  -0.231  0.00  0.00    +0.056 N 
ATOM     24  O   UNL     1      -4.006   5.193  -0.677  0.00  0.00    -0.126 OA
ATOM     25  O   UNL     1      -3.108   7.066  -0.310  0.00  0.00    -0.126 OA
ENDBRANCH  21  23
ENDBRANCH  13  17
TORSDOF 2
