REMARK  Name = ZINC24339244
REMARK  11 active torsions:
REMARK  status: ('A' for Active; 'I' for Inactive)
REMARK    1  A    between atoms: C_1  and  C_2
REMARK    2  A    between atoms: C_3  and  C_38
REMARK    3  A    between atoms: N_4  and  C_32
REMARK    4  A    between atoms: C_5  and  N_9
REMARK    5  A    between atoms: C_6  and  C_7
REMARK    6  A    between atoms: C_10  and  C_12
REMARK    7  A    between atoms: C_12  and  N_13
REMARK    8  A    between atoms: N_16  and  C_19
REMARK    9  A    between atoms: C_19  and  C_20
REMARK   10  A    between atoms: C_24  and  C_31
REMARK   11  A    between atoms: C_27  and  C_30
REMARK                            x       y       z     vdW  Elec       q    Type
REMARK                         _______ _______ _______ _____ _____    ______ ____
ROOT
ATOM      1  N   UNL     1       0.059  -3.371   1.466  0.00  0.00    -0.270 N 
ATOM      2  C   UNL     1       0.186  -4.574   0.870  0.00  0.00    +0.232 C 
ATOM      3  O   UNL     1       0.362  -4.641  -0.328  0.00  0.00    -0.274 OA
ATOM      4  H   UNL     1       0.005  -3.312   2.433  0.00  0.00    +0.156 HD
ENDROOT
BRANCH   1   9
ATOM      5  C   UNL     1      -0.733  -0.092  -2.297  0.00  0.00    +0.047 C 
ATOM      6  C   UNL     1      -0.336  -0.713  -0.982  0.00  0.00    -0.011 A 
ATOM      7  C   UNL     1       0.231  -0.086   0.061  0.00  0.00    +0.022 A 
ATOM      8  N   UNL     1       0.439  -0.987   1.072  0.00  0.00    -0.329 N 
ATOM      9  C   UNL     1       0.007  -2.218   0.697  0.00  0.00    +0.124 A 
ATOM     10  C   UNL     1      -0.502  -2.118  -0.591  0.00  0.00    +0.095 A 
ATOM     11  C   UNL     1       0.585   1.378   0.112  0.00  0.00    +0.064 C 
BRANCH   8  12
ATOM     12  C   UNL     1       1.041  -0.668   2.369  0.00  0.00    +0.089 C 
ATOM     13  C   UNL     1       2.236  -1.591   2.617  0.00  0.00    +0.025 C 
ATOM     14  C   UNL     1       2.864  -1.258   3.972  0.00  0.00    +0.002 C 
ATOM     15  C   UNL     1       1.827  -1.458   5.078  0.00  0.00    +0.000 C 
ATOM     16  C   UNL     1       0.632  -0.535   4.830  0.00  0.00    +0.002 C 
ATOM     17  C   UNL     1       0.004  -0.868   3.475  0.00  0.00    +0.025 C 
ENDBRANCH   8  12
BRANCH  10  18
ATOM     18  C   UNL     1      -1.069  -3.171  -1.378  0.00  0.00    +0.103 C 
ATOM     19  N   UNL     1      -1.520  -4.006  -2.003  0.00  0.00    -0.191 NA
ENDBRANCH  10  18
ENDBRANCH   1   9
BRANCH   2  20
ATOM     20  C   UNL     1       0.107  -5.834   1.693  0.00  0.00    +0.180 C 
BRANCH  20  21
ATOM     21  N   UNL     1       0.156  -7.003   0.804  0.00  0.00    -0.298 NA
ATOM     22  C   UNL     1       1.500  -7.178   0.237  0.00  0.00    +0.066 C 
ATOM     23  C   UNL     1       1.493  -8.367  -0.726  0.00  0.00    -0.063 C 
ATOM     24  N   UNL     1       1.085  -9.579  -0.005  0.00  0.00    +0.387 N 
ATOM     25  C   UNL     1      -0.269  -9.398   0.535  0.00  0.00    -0.063 C 
ATOM     26  C   UNL     1      -0.276  -8.218   1.509  0.00  0.00    +0.066 C 
ATOM     27  H   UNL     1       1.729  -9.752   0.753  0.00  0.00    -0.081 HD
BRANCH  24  28
ATOM     28  C   UNL     1       1.096 -10.724  -0.926  0.00  0.00    +0.019 C 
BRANCH  28  29
ATOM     29  C   UNL     1       0.797 -11.987  -0.161  0.00  0.00    +0.199 C 
ATOM     30  O   UNL     1       0.596 -11.939   1.034  0.00  0.00    -0.278 OA
ATOM     31  N   UNL     1       0.754 -13.171  -0.804  0.00  0.00    -0.303 N 
ATOM     32  C   UNL     1       1.003 -13.246  -2.251  0.00  0.00    +0.111 C 
ATOM     33  C   UNL     1       2.108 -14.275  -2.509  0.00  0.00    +0.004 C 
ATOM     34  C   UNL     1       1.717 -15.608  -1.868  0.00  0.00    +0.009 C 
ATOM     35  C   UNL     1       1.570 -15.426  -0.356  0.00  0.00    +0.004 C 
ATOM     36  C   UNL     1       0.465 -14.411  -0.072  0.00  0.00    +0.111 C 
ATOM     37  C   UNL     1       1.212 -16.767   0.288  0.00  0.00    +0.009 C 
ATOM     38  C   UNL     1       2.287 -14.465  -4.016  0.00  0.00    +0.009 C 
ENDBRANCH  28  29
ENDBRANCH  24  28
ENDBRANCH  20  21
ENDBRANCH   2  20
TORSDOF 7
