REMARK  Name = ZINC40778081
REMARK  6 active torsions:
REMARK  status: ('A' for Active; 'I' for Inactive)
REMARK    1  A    between atoms: C_4  and  N_7
REMARK    2  A    between atoms: N_7  and  C_8
REMARK    3  A    between atoms: N_7  and  N_14
REMARK    4  A    between atoms: C_16  and  N_33
REMARK    5  A    between atoms: C_17  and  N_21
REMARK    6  A    between atoms: C_25  and  C_28
REMARK                            x       y       z     vdW  Elec       q    Type
REMARK                         _______ _______ _______ _____ _____    ______ ____
ROOT
ATOM      1  N   UNL     1       4.522   0.195  -0.051  0.00  0.00    -0.242 N 
ATOM      2  C   UNL     1       5.219   0.211   1.151  0.00  0.00    +0.161 A 
ATOM      3  C   UNL     1       6.572   0.555   1.182  0.00  0.00    +0.105 A 
ATOM      4  C   UNL     1       7.224   0.555   2.416  0.00  0.00    +0.127 A 
ATOM      5  N   UNL     1       6.537   0.229   3.508  0.00  0.00    -0.333 N 
ATOM      6  C   UNL     1       5.261  -0.090   3.435  0.00  0.00    +0.200 A 
ATOM      7  N   UNL     1       4.606  -0.097   2.292  0.00  0.00    -0.219 NA
ATOM      8  H   UNL     1       4.976   0.421  -0.878  0.00  0.00    +0.172 HD
ATOM      9  H   UNL     1       6.982   0.227   4.370  0.00  0.00    +0.168 HD
ENDROOT
BRANCH   4  10
ATOM     10  N   UNL     1       8.571   0.890   2.502  0.00  0.00    -0.283 N 
ATOM     11  C   UNL     1       9.255   0.720   3.702  0.00  0.00    +0.142 A 
ATOM     12  C   UNL     1      10.565   1.176   3.821  0.00  0.00    +0.081 A 
ATOM     13  C   UNL     1      11.233   0.999   5.021  0.00  0.00    +0.037 A 
ATOM     14  C   UNL     1      10.566   0.370   6.064  0.00  0.00    +0.074 A 
ATOM     15  C   UNL     1       9.267  -0.057   5.876  0.00  0.00    +0.125 A 
ATOM     16  N   UNL     1       8.652   0.130   4.723  0.00  0.00    -0.238 NA
ATOM     17 CL   UNL     1      11.350   1.955   2.483  0.00  0.00    -0.080 Cl
ATOM     18  H   UNL     1       9.034   1.243   1.726  0.00  0.00    +0.155 HD
BRANCH  14  19
ATOM     19  C   UNL     1      11.253   0.156   7.388  0.00  0.00    +0.419 C 
ATOM     20  F   UNL     1      11.021   1.258   8.217  0.00  0.00    -0.166 F 
ATOM     21  F   UNL     1      10.748  -0.999   7.994  0.00  0.00    -0.166 F 
ATOM     22  F   UNL     1      12.629   0.010   7.180  0.00  0.00    -0.166 F 
ENDBRANCH  14  19
ENDBRANCH   4  10
BRANCH   3  23
ATOM     23  N   UNL     1       7.257   0.892   0.004  0.00  0.00    -0.353 N 
ATOM     24  H   UNL     1       6.791   0.887  -0.847  0.00  0.00    +0.143 HD
ATOM     25  H   UNL     1       8.197   1.129   0.040  0.00  0.00    +0.143 HD
ENDBRANCH   3  23
BRANCH   1  26
ATOM     26  N   UNL     1       3.163  -0.147  -0.068  0.00  0.00    -0.221 N 
BRANCH  26  30
ATOM     27  C   UNL     1       0.279   2.814  -0.572  0.00  0.00    +0.000 A 
ATOM     28  C   UNL     1       1.224   2.936   0.429  0.00  0.00    +0.002 A 
ATOM     29  C   UNL     1       2.182   1.956   0.599  0.00  0.00    +0.025 A 
ATOM     30  C   UNL     1       2.195   0.847  -0.237  0.00  0.00    +0.053 A 
ATOM     31  C   UNL     1       1.243   0.727  -1.242  0.00  0.00    +0.025 A 
ATOM     32  C   UNL     1       0.288   1.712  -1.406  0.00  0.00    +0.002 A 
ENDBRANCH  26  30
BRANCH  26  33
ATOM     33  C   UNL     1       2.776  -1.481   0.083  0.00  0.00    +0.053 A 
ATOM     34  C   UNL     1       3.620  -2.502  -0.336  0.00  0.00    +0.025 A 
ATOM     35  C   UNL     1       3.234  -3.819  -0.185  0.00  0.00    +0.002 A 
ATOM     36  C   UNL     1       2.010  -4.123   0.383  0.00  0.00    +0.000 A 
ATOM     37  C   UNL     1       1.168  -3.108   0.800  0.00  0.00    +0.002 A 
ATOM     38  C   UNL     1       1.550  -1.789   0.658  0.00  0.00    +0.025 A 
ENDBRANCH  26  33
ENDBRANCH   1  26
TORSDOF 6
