REMARK  Name = ZINC31818143
REMARK  5 active torsions:
REMARK  status: ('A' for Active; 'I' for Inactive)
REMARK    1  A    between atoms: C_1  and  S_2
REMARK    2  A    between atoms: S_2  and  C_3
REMARK    3  A    between atoms: C_11  and  C_18
REMARK    4  A    between atoms: C_13  and  C_16
REMARK    5  A    between atoms: C_14  and  N_15
REMARK                            x       y       z     vdW  Elec       q    Type
REMARK                         _______ _______ _______ _____ _____    ______ ____
ROOT
ATOM      1  C   UNL     1      -1.369   1.677  -5.746  0.00  0.00    +0.160 A 
ATOM      2  N   UNL     1      -1.225   1.000  -4.616  0.00  0.00    -0.133 NA
ATOM      3  N   UNL     1      -1.010   1.577  -3.516  0.00  0.00    -0.124 NA
ATOM      4  C   UNL     1      -0.915   2.894  -3.422  0.00  0.00    +0.194 A 
ATOM      5  S   UNL     1      -1.176   3.348  -5.134  0.00  0.00    -0.024 S 
ATOM      6  N   UNL     1      -0.684   3.697  -2.307  0.00  0.00    -0.237 N 
ATOM      7  C   UNL     1      -0.637   3.132  -1.060  0.00  0.00    +0.026 C 
ATOM      8  C   UNL     1      -0.805   3.890   0.045  0.00  0.00    +0.025 C 
ATOM      9  C   UNL     1      -1.065   5.372  -0.063  0.00  0.00    +0.097 C 
ATOM     10  C   UNL     1      -0.673   5.893  -1.414  0.00  0.00    +0.077 C 
ATOM     11  C   UNL     1      -0.504   5.053  -2.468  0.00  0.00    +0.108 C 
ATOM     12  C   UNL     1      -0.741   3.322   1.330  0.00  0.00    +0.162 C 
ATOM     13  O   UNL     1      -0.908   4.029   2.303  0.00  0.00    -0.292 OA
ATOM     14  C   UNL     1      -0.465   1.856   1.524  0.00  0.00    +0.080 C 
ATOM     15  C   UNL     1       0.365   1.344   0.342  0.00  0.00    +0.014 C 
ATOM     16  C   UNL     1      -0.391   1.647  -0.954  0.00  0.00    +0.052 C 
ENDROOT
BRANCH   9  17
ATOM     17  C   UNL     1      -2.532   5.634   0.161  0.00  0.00    -0.034 A 
ATOM     18  C   UNL     1      -3.469   5.085  -0.705  0.00  0.00    +0.006 A 
ATOM     19  C   UNL     1      -4.815   5.312  -0.517  0.00  0.00    +0.026 A 
ATOM     20  C   UNL     1      -5.242   6.098   0.548  0.00  0.00    +0.046 A 
ATOM     21  C   UNL     1      -4.288   6.651   1.422  0.00  0.00    -0.000 A 
ATOM     22  C   UNL     1      -2.929   6.404   1.217  0.00  0.00    +0.014 A 
ATOM     23  C   UNL     1      -5.045   7.412   2.419  0.00  0.00    +0.027 A 
ATOM     24  C   UNL     1      -6.345   7.282   2.107  0.00  0.00    +0.083 A 
ATOM     25  N   UNL     1      -6.481   6.500   0.993  0.00  0.00    -0.361 N 
ATOM     26  H   UNL     1      -7.388   6.183   0.456  0.00  0.00    +0.165 HD
ENDBRANCH   9  17
BRANCH  11  27
ATOM     27  N   UNL     1      -0.152   5.557  -3.698  0.00  0.00    -0.345 N 
ATOM     28  H   UNL     1      -0.007   6.640  -3.827  0.00  0.00    +0.144 HD
ATOM     29  H   UNL     1      -0.014   4.878  -4.552  0.00  0.00    +0.144 HD
ENDBRANCH  11  27
BRANCH   1  31
ATOM     30  C   UNL     1      -1.752  -0.705  -7.203  0.00  0.00    +0.092 C 
ATOM     31  S   UNL     1      -1.673   1.098  -7.383  0.00  0.00    -0.100 S 
ENDBRANCH   1  31
BRANCH  10  32
ATOM     32  C   UNL     1      -0.474   7.299  -1.596  0.00  0.00    +0.099 C 
ATOM     33  N   UNL     1      -0.316   8.415  -1.740  0.00  0.00    -0.191 NA
ENDBRANCH  10  32
TORSDOF 4
