REMARK  Name = ZINC09508739
REMARK  8 active torsions:
REMARK  status: ('A' for Active; 'I' for Inactive)
REMARK    1  A    between atoms: C_1  and  C_2
REMARK    2  A    between atoms: C_6  and  N_8
REMARK    3  A    between atoms: C_17  and  S_18
REMARK    4  A    between atoms: S_18  and  C_19
REMARK    5  A    between atoms: C_19  and  C_21
REMARK    6  A    between atoms: C_19  and  C_24
REMARK    7  A    between atoms: C_21  and  C_22
REMARK    8  A    between atoms: C_21  and  C_23
REMARK                            x       y       z     vdW  Elec       q    Type
REMARK                         _______ _______ _______ _____ _____    ______ ____
ROOT
ATOM      1  N   UNL     1      -1.429   4.524  -4.773  0.00  0.00    -0.255 N 
ATOM      2  C   UNL     1      -1.606   3.573  -3.825  0.00  0.00    +0.268 A 
ATOM      3  O   UNL     1      -2.069   2.477  -4.089  0.00  0.00    -0.267 OA
ATOM      4  C   UNL     1      -1.217   3.935  -2.495  0.00  0.00    +0.076 A 
ATOM      5  C   UNL     1      -1.305   3.101  -1.307  0.00  0.00    -0.023 A 
ATOM      6  C   UNL     1      -0.879   3.651  -0.147  0.00  0.00    -0.004 A 
ATOM      7  S   UNL     1      -0.344   5.288  -0.576  0.00  0.00    -0.073 S 
ATOM      8  C   UNL     1      -0.692   5.234  -2.306  0.00  0.00    +0.117 A 
ATOM      9  N   UNL     1      -0.542   6.123  -3.280  0.00  0.00    -0.215 NA
ATOM     10  C   UNL     1      -0.912   5.756  -4.499  0.00  0.00    +0.178 A 
ATOM     11  C   UNL     1      -0.864   3.012   1.208  0.00  0.00    +0.043 C 
ATOM     12  C   UNL     1      -1.752   1.760   1.164  0.00  0.00    +0.005 C 
ATOM     13  C   UNL     1      -1.383   0.942  -0.077  0.00  0.00    +0.005 C 
ATOM     14  C   UNL     1      -1.847   1.674  -1.336  0.00  0.00    +0.037 C 
ENDROOT
BRANCH   1  20
ATOM     15  C   UNL     1      -4.857   4.411  -8.297  0.00  0.00    +0.044 C 
ATOM     16  C   UNL     1      -3.446   4.164  -7.827  0.00  0.00    -0.048 A 
ATOM     17  C   UNL     1      -2.508   3.647  -8.702  0.00  0.00    +0.003 A 
ATOM     18  C   UNL     1      -1.213   3.420  -8.275  0.00  0.00    +0.002 A 
ATOM     19  C   UNL     1      -0.851   3.714  -6.975  0.00  0.00    +0.026 A 
ATOM     20  C   UNL     1      -1.792   4.229  -6.093  0.00  0.00    +0.052 A 
ATOM     21  C   UNL     1      -3.092   4.456  -6.525  0.00  0.00    +0.029 A 
ENDBRANCH   1  20
BRANCH  10  22
ATOM     22  S   UNL     1      -0.730   6.908  -5.820  0.00  0.00    -0.074 S 
BRANCH  22  23
ATOM     23  C   UNL     1      -0.182   8.364  -4.894  0.00  0.00    +0.143 C 
BRANCH  23  24
ATOM     24  C   UNL     1      -1.311   8.862  -4.028  0.00  0.00    +0.234 C 
ATOM     25  O   UNL     1      -2.454   8.549  -4.283  0.00  0.00    -0.274 OA
ATOM     26  N   UNL     1      -1.050   9.657  -2.971  0.00  0.00    -0.239 N 
ATOM     27  C   UNL     1      -2.059  10.102  -2.197  0.00  0.00    +0.303 C 
ATOM     28  O   UNL     1      -3.205   9.788  -2.452  0.00  0.00    -0.253 OA
ATOM     29  N   UNL     1      -1.798  10.897  -1.140  0.00  0.00    -0.313 N 
ATOM     30  H   UNL     1      -0.135   9.908  -2.768  0.00  0.00    +0.159 HD
ATOM     31  H   UNL     1      -0.883  11.148  -0.937  0.00  0.00    +0.146 HD
ATOM     32  H   UNL     1      -2.524  11.217  -0.583  0.00  0.00    +0.146 HD
ENDBRANCH  23  24
BRANCH  23  33
ATOM     33  C   UNL     1       0.234   9.464  -5.872  0.00  0.00    +0.005 C 
ATOM     34  C   UNL     1       0.724  10.684  -5.089  0.00  0.00    +0.009 C 
ATOM     35  C   UNL     1       1.360   8.948  -6.771  0.00  0.00    +0.009 C 
ENDBRANCH  23  33
ENDBRANCH  22  23
ENDBRANCH  10  22
TORSDOF 5
