REMARK  Name = ZINC08762073
REMARK  14 active torsions:
REMARK  status: ('A' for Active; 'I' for Inactive)
REMARK    1  A    between atoms: C_1  and  C_2
REMARK    2  A    between atoms: C_2  and  C_4
REMARK    3  A    between atoms: C_2  and  N_11
REMARK    4  A    between atoms: C_4  and  C_5
REMARK    5  A    between atoms: C_5  and  C_6
REMARK    6  A    between atoms: N_11  and  C_12
REMARK    7  A    between atoms: C_20  and  N_68
REMARK    8  A    between atoms: C_26  and  O_34
REMARK    9  A    between atoms: C_27  and  O_32
REMARK   10  A    between atoms: C_28  and  O_30
REMARK   11  A    between atoms: O_30  and  C_31
REMARK   12  A    between atoms: O_32  and  C_33
REMARK   13  A    between atoms: O_34  and  C_35
REMARK   14  A    between atoms: C_36  and  N_68
REMARK                            x       y       z     vdW  Elec       q    Type
REMARK                         _______ _______ _______ _____ _____    ______ ____
ROOT
ATOM      1  C   UNL     1       6.844  -0.986  -1.039  0.00  0.00    +0.075 A 
ATOM      2  C   UNL     1       7.556   0.143  -0.765  0.00  0.00    +0.027 A 
ATOM      3  C   UNL     1       8.837   0.424  -1.065  0.00  0.00    +0.011 A 
ATOM      4  C   UNL     1       9.822  -0.288  -1.700  0.00  0.00    -0.012 A 
ATOM      5  C   UNL     1       9.718  -1.595  -2.174  0.00  0.00    -0.050 A 
ATOM      6  C   UNL     1       8.599  -2.341  -2.159  0.00  0.00    +0.055 A 
ATOM      7  C   UNL     1       7.332  -2.105  -1.710  0.00  0.00    +0.200 A 
ATOM      8  O   UNL     1       6.518  -2.993  -1.925  0.00  0.00    -0.286 OA
ATOM      9  C   UNL     1      10.956  -2.254  -2.748  0.00  0.00    -0.040 C 
ATOM     10  C   UNL     1      11.218  -1.809  -4.173  0.00  0.00    -0.007 C 
ATOM     11  C   UNL     1      11.056  -0.298  -4.315  0.00  0.00    +0.035 C 
ATOM     12  C   UNL     1      11.732   0.397  -3.162  0.00  0.00    -0.033 A 
ATOM     13  C   UNL     1      11.127   0.408  -1.909  0.00  0.00    +0.031 A 
ATOM     14  C   UNL     1      11.739   1.063  -0.836  0.00  0.00    +0.173 A 
ATOM     15  C   UNL     1      12.961   1.696  -1.030  0.00  0.00    +0.204 A 
ATOM     16  C   UNL     1      13.563   1.672  -2.283  0.00  0.00    +0.165 A 
ATOM     17  C   UNL     1      12.947   1.024  -3.346  0.00  0.00    +0.054 A 
ENDROOT
BRANCH   9  19
ATOM     18  C   UNL     1      12.068  -4.403  -2.836  0.00  0.00    -0.100 C 
ATOM     19  N   UNL     1      10.767  -3.716  -2.728  0.00  0.00    +0.382 N 
ATOM     20  H   UNL     1      10.172  -3.992  -3.518  0.00  0.00    -0.085 HD
ATOM     21  H   UNL     1      10.314  -3.987  -1.847  0.00  0.00    -0.085 HD
ENDBRANCH   9  19
BRANCH   1  22
ATOM     22  N   UNL     1       5.525  -1.022  -0.620  0.00  0.00    -0.338 N 
ATOM     23  H   UNL     1       5.003  -1.833  -0.729  0.00  0.00    +0.146 HD
BRANCH  22  25
ATOM     24  C   UNL     1       5.216   0.181   1.486  0.00  0.00    +0.028 C 
ATOM     25  C   UNL     1       4.916   0.164  -0.014  0.00  0.00    +0.068 C 
BRANCH  25  26
ATOM     26  C   UNL     1       3.402   0.128  -0.231  0.00  0.00    +0.029 C 
BRANCH  26  27
ATOM     27  C   UNL     1       3.098   0.237  -1.726  0.00  0.00    +0.076 C 
BRANCH  27  28
ATOM     28  C   UNL     1       1.607   0.201  -1.940  0.00  0.00    +0.105 A 
ATOM     29  C   UNL     1       0.790   1.270  -1.965  0.00  0.00    +0.044 A 
ATOM     30  C   UNL     1      -0.517   0.781  -2.192  0.00  0.00    +0.041 A 
ATOM     31  C   UNL     1      -0.421  -0.557  -2.292  0.00  0.00    +0.195 A 
ATOM     32  O   UNL     1       0.868  -0.902  -2.139  0.00  0.00    -0.468 OA
ENDBRANCH  27  28
ENDBRANCH  26  27
ENDBRANCH  25  26
ENDBRANCH  22  25
ENDBRANCH   1  22
BRANCH  16  33
ATOM     33  O   UNL     1      14.761   2.288  -2.469  0.00  0.00    -0.491 OA
ATOM     34  C   UNL     1      15.324   2.226  -3.781  0.00  0.00    +0.277 C 
ENDBRANCH  16  33
BRANCH  15  35
ATOM     35  O   UNL     1      13.567   2.337   0.006  0.00  0.00    -0.488 OA
ATOM     36  C   UNL     1      13.191   3.696   0.236  0.00  0.00    +0.277 C 
ENDBRANCH  15  35
BRANCH  14  37
ATOM     37  O   UNL     1      11.144   1.082   0.385  0.00  0.00    -0.491 OA
ATOM     38  C   UNL     1      11.457   0.009   1.276  0.00  0.00    +0.277 C 
ENDBRANCH  14  37
TORSDOF 9
