REMARK  Name = ZINC10676151
REMARK  6 active torsions:
REMARK  status: ('A' for Active; 'I' for Inactive)
REMARK    1  A    between atoms: C_1  and  C_2
REMARK    2  A    between atoms: C_8  and  N_10
REMARK    3  A    between atoms: C_14  and  C_16
REMARK    4  A    between atoms: C_16  and  O_17
REMARK    5  A    between atoms: O_17  and  C_18
REMARK    6  A    between atoms: C_18  and  C_20
REMARK                            x       y       z     vdW  Elec       q    Type
REMARK                         _______ _______ _______ _____ _____    ______ ____
ROOT
ATOM      1  C   UNL     1      -4.794   3.178  -3.459  0.00  0.00    +0.328 C 
ENDROOT
BRANCH   1   6
ATOM      2  N   UNL     1      -0.727   2.011  -1.176  0.00  0.00    -0.296 N 
ATOM      3  C   UNL     1      -2.070   2.122  -1.161  0.00  0.00    +0.306 C 
ATOM      4  O   UNL     1      -2.694   1.819  -0.163  0.00  0.00    -0.252 OA
ATOM      5  N   UNL     1      -2.722   2.568  -2.253  0.00  0.00    -0.237 N 
ATOM      6  C   UNL     1      -4.065   2.678  -2.238  0.00  0.00    +0.258 C 
ATOM      7  O   UNL     1      -4.687   2.376  -1.242  0.00  0.00    -0.272 OA
ATOM      8  H   UNL     1      -0.230   2.253  -1.973  0.00  0.00    +0.151 HD
ATOM      9  H   UNL     1      -2.225   2.810  -3.050  0.00  0.00    +0.159 HD
BRANCH   2  16
ATOM     10  C   UNL     1       1.396   3.585   0.008  0.00  0.00    +0.009 C 
ATOM     11  C   UNL     1       1.417   2.055  -0.000  0.00  0.00    +0.006 C 
ATOM     12  C   UNL     1       2.133   1.562  -1.259  0.00  0.00    +0.005 C 
ATOM     13  C   UNL     1       2.154   0.032  -1.268  0.00  0.00    +0.000 C 
ATOM     14  C   UNL     1       0.718  -0.497  -1.257  0.00  0.00    +0.002 C 
ATOM     15  C   UNL     1       0.002  -0.004   0.002  0.00  0.00    +0.022 C 
ATOM     16  C   UNL     1      -0.019   1.526   0.010  0.00  0.00    +0.077 C 
ENDBRANCH   2  16
ENDBRANCH   1   6
BRANCH   1  17
ATOM     17  O   UNL     1      -6.221   3.206  -3.193  0.00  0.00    -0.453 OA
BRANCH  17  18
ATOM     18  C   UNL     1      -7.018   3.630  -4.186  0.00  0.00    +0.343 C 
ATOM     19  O   UNL     1      -6.539   3.966  -5.243  0.00  0.00    -0.247 OA
BRANCH  18  20
ATOM     20  C   UNL     1      -8.511   3.686  -3.983  0.00  0.00    +0.190 C 
ATOM     21  C   UNL     1      -8.931   4.639  -2.855  0.00  0.00    +0.059 C 
ATOM     22  C   UNL     1      -9.115   5.956  -3.679  0.00  0.00    +0.100 C 
ATOM     23  C   UNL     1      -9.433   5.487  -5.082  0.00  0.00    +0.221 C 
ATOM     24  O   UNL     1      -9.794   6.207  -5.988  0.00  0.00    -0.275 OA
ATOM     25  N   UNL     1      -9.256   4.144  -5.181  0.00  0.00    -0.245 N 
ATOM     26  C   UNL     1      -9.670   3.092  -6.024  0.00  0.00    +0.052 A 
ATOM     27  C   UNL     1      -9.997   3.208  -7.383  0.00  0.00    +0.025 A 
ATOM     28  C   UNL     1     -10.400   2.111  -8.110  0.00  0.00    +0.002 A 
ATOM     29  C   UNL     1     -10.496   0.861  -7.526  0.00  0.00    +0.001 A 
ATOM     30  C   UNL     1     -10.175   0.717  -6.186  0.00  0.00    +0.016 A 
ATOM     31  C   UNL     1      -9.770   1.813  -5.463  0.00  0.00    +0.032 A 
ATOM     32  S   UNL     1      -9.276   2.032  -3.763  0.00  0.00    -0.086 S 
ENDBRANCH  18  20
ENDBRANCH  17  18
ENDBRANCH   1  17
TORSDOF 5
