REMARK  Name = ZINC55875971
REMARK  6 active torsions:
REMARK  status: ('A' for Active; 'I' for Inactive)
REMARK    1  A    between atoms: C_1  and  C_2
REMARK    2  A    between atoms: C_15  and  C_17
REMARK    3  A    between atoms: C_17  and  N_18
REMARK    4  A    between atoms: N_18  and  C_19
REMARK    5  A    between atoms: C_22  and  O_26
REMARK    6  A    between atoms: O_26  and  C_27
REMARK                            x       y       z     vdW  Elec       q    Type
REMARK                         _______ _______ _______ _____ _____    ______ ____
ROOT
ATOM      1  C   UNL     1      -0.019   1.526   0.010  0.00  0.00    +0.029 C 
ATOM      2  C   UNL     1       0.002  -0.004   0.002  0.00  0.00    +0.087 C 
ATOM      3  C   UNL     1      -1.433  -0.532   0.009  0.00  0.00    +0.118 C 
ATOM      4  C   UNL     1      -1.448  -1.987   0.396  0.00  0.00    +0.219 C 
ATOM      5  O   UNL     1      -1.623  -2.835  -0.454  0.00  0.00    -0.275 OA
ATOM      6  N   UNL     1      -1.268  -2.354   1.683  0.00  0.00    -0.284 N 
ATOM      7  C   UNL     1      -0.970  -1.397   2.659  0.00  0.00    +0.055 A 
ATOM      8  C   UNL     1      -1.673  -1.354   3.851  0.00  0.00    +0.025 A 
ATOM      9  C   UNL     1      -1.345  -0.414   4.811  0.00  0.00    +0.002 A 
ATOM     10  C   UNL     1      -0.316   0.482   4.584  0.00  0.00    +0.002 A 
ATOM     11  C   UNL     1       0.385   0.452   3.393  0.00  0.00    +0.025 A 
ATOM     12  C   UNL     1       0.054  -0.479   2.422  0.00  0.00    +0.058 A 
ATOM     13  N   UNL     1       0.714  -0.487   1.187  0.00  0.00    -0.265 N 
ATOM     14  C   UNL     1       1.982  -0.932   1.091  0.00  0.00    +0.237 C 
ATOM     15  O   UNL     1       2.545  -0.934   0.017  0.00  0.00    -0.274 OA
ATOM     16  H   UNL     1      -1.347  -3.288   1.933  0.00  0.00    +0.155 HD
ENDROOT
BRANCH  14  17
ATOM     17  C   UNL     1       2.702  -1.427   2.320  0.00  0.00    +0.198 C 
BRANCH  17  18
ATOM     18  N   UNL     1       4.056  -1.852   1.955  0.00  0.00    -0.335 N 
ATOM     19  H   UNL     1       4.353  -1.786   1.034  0.00  0.00    +0.147 HD
BRANCH  18  20
ATOM     20  C   UNL     1       4.920  -2.352   2.935  0.00  0.00    +0.030 A 
ATOM     21  C   UNL     1       4.492  -2.451   4.253  0.00  0.00    +0.026 A 
ATOM     22  C   UNL     1       5.346  -2.946   5.221  0.00  0.00    +0.050 A 
ATOM     23  C   UNL     1       6.629  -3.342   4.878  0.00  0.00    +0.162 A 
ATOM     24  C   UNL     1       7.058  -3.244   3.560  0.00  0.00    +0.167 A 
ATOM     25  C   UNL     1       6.203  -2.755   2.590  0.00  0.00    +0.065 A 
ATOM     26  F   UNL     1       8.309  -3.630   3.227  0.00  0.00    -0.202 F 
BRANCH  23  27
ATOM     27  O   UNL     1       7.468  -3.828   5.832  0.00  0.00    -0.431 OA
BRANCH  27  28
ATOM     28  C   UNL     1       6.961  -3.901   7.166  0.00  0.00    +0.541 C 
ATOM     29  F   UNL     1       6.601  -2.620   7.598  0.00  0.00    -0.166 F 
ATOM     30  F   UNL     1       5.839  -4.735   7.193  0.00  0.00    -0.166 F 
ENDBRANCH  27  28
ENDBRANCH  23  27
ENDBRANCH  18  20
ENDBRANCH  17  18
ENDBRANCH  14  17
TORSDOF 5
