REMARK  Name = ZINC35665320
REMARK  7 active torsions:
REMARK  status: ('A' for Active; 'I' for Inactive)
REMARK    1  A    between atoms: C_1  and  C_2
REMARK    2  A    between atoms: C_2  and  C_3
REMARK    3  A    between atoms: C_3  and  C_5
REMARK    4  A    between atoms: C_3  and  N_6
REMARK    5  A    between atoms: C_9  and  C_25
REMARK    6  A    between atoms: C_18  and  C_20
REMARK    7  A    between atoms: C_25  and  C_26
REMARK                            x       y       z     vdW  Elec       q    Type
REMARK                         _______ _______ _______ _____ _____    ______ ____
ROOT
ATOM      1  N   UNL     1       2.113  -0.168  -1.368  0.00  0.00    -0.311 N 
ATOM      2  C   UNL     1       3.047  -0.689  -0.545  0.00  0.00    +0.201 C 
ATOM      3  O   UNL     1       2.845  -1.504   0.329  0.00  0.00    -0.277 OA
ATOM      4  C   UNL     1       4.388  -0.085  -0.898  0.00  0.00    +0.023 C 
ATOM      5  N   UNL     1       4.196   0.504  -2.245  0.00  0.00    +0.401 N 
ATOM      6  C   UNL     1       2.746   0.782  -2.287  0.00  0.00    +0.006 C 
ATOM      7  C   UNL     1       2.220   0.575  -3.706  0.00  0.00    +0.025 C 
ATOM      8  C   UNL     1       0.710   0.832  -3.731  0.00  0.00    +0.108 C 
ATOM      9  N   UNL     1       0.448   2.164  -3.169  0.00  0.00    -0.295 N 
ATOM     10  C   UNL     1       0.978   2.486  -1.837  0.00  0.00    +0.108 C 
ATOM     11  C   UNL     1       2.486   2.216  -1.828  0.00  0.00    +0.025 C 
ATOM     12  C   UNL     1      -0.265   3.074  -3.862  0.00  0.00    +0.282 C 
ATOM     13  O   UNL     1      -0.546   4.143  -3.353  0.00  0.00    -0.267 OA
ATOM     14  H   UNL     1       4.727   1.357  -2.341  0.00  0.00    -0.082 HD
ATOM     15  H   UNL     1       4.449  -0.158  -2.963  0.00  0.00    -0.082 HD
ENDROOT
BRANCH  12  16
ATOM     16  C   UNL     1      -0.702   2.775  -5.230  0.00  0.00    +0.189 A 
ATOM     17  C   UNL     1      -1.317   3.646  -6.083  0.00  0.00    +0.054 A 
ATOM     18  C   UNL     1      -1.554   2.943  -7.275  0.00  0.00    +0.042 A 
ATOM     19  C   UNL     1      -1.079   1.690  -7.099  0.00  0.00    +0.196 A 
ATOM     20  O   UNL     1      -0.562   1.595  -5.867  0.00  0.00    -0.458 OA
ENDBRANCH  12  16
BRANCH   1  21
ATOM     21  C   UNL     1       0.687  -0.504  -1.350  0.00  0.00    +0.071 C 
ATOM     22  C   UNL     1       0.442  -1.734  -2.225  0.00  0.00    +0.028 C 
BRANCH  21  24
ATOM     23  C   UNL     1       0.409   0.455   0.941  0.00  0.00    +0.005 C 
ATOM     24  C   UNL     1       0.252  -0.804   0.086  0.00  0.00    +0.019 C 
ENDBRANCH  21  24
ENDBRANCH   1  21
BRANCH   4  25
ATOM     25  C   UNL     1       5.467  -1.169  -0.938  0.00  0.00    +0.028 C 
BRANCH  25  26
ATOM     26  C   UNL     1       6.808  -0.534  -1.204  0.00  0.00    -0.048 A 
ATOM     27  C   UNL     1       7.247  -0.368  -2.504  0.00  0.00    +0.003 A 
ATOM     28  C   UNL     1       8.477   0.214  -2.749  0.00  0.00    +0.000 A 
ATOM     29  C   UNL     1       9.267   0.630  -1.693  0.00  0.00    +0.000 A 
ATOM     30  C   UNL     1       8.827   0.464  -0.393  0.00  0.00    +0.000 A 
ATOM     31  C   UNL     1       7.596  -0.114  -0.149  0.00  0.00    +0.003 A 
ENDBRANCH  25  26
ENDBRANCH   4  25
TORSDOF 5
