REMARK  Name = ZINC33594340
REMARK  6 active torsions:
REMARK  status: ('A' for Active; 'I' for Inactive)
REMARK    1  A    between atoms: C_4  and  C_7
REMARK    2  A    between atoms: C_10  and  C_13
REMARK    3  A    between atoms: N_14  and  N_15
REMARK    4  A    between atoms: C_16  and  C_18
REMARK    5  A    between atoms: C_19  and  C_29
REMARK    6  A    between atoms: C_29  and  N_30
REMARK                            x       y       z     vdW  Elec       q    Type
REMARK                         _______ _______ _______ _____ _____    ______ ____
ROOT
ATOM      1  C   UNL     1       2.653   0.916  -0.950  0.00  0.00    +0.174 A 
ATOM      2  C   UNL     1       3.833   1.563  -1.186  0.00  0.00    +0.096 A 
ATOM      3  N   UNL     1       4.503   0.830  -2.103  0.00  0.00    -0.190 N 
ATOM      4  N   UNL     1       3.693  -0.272  -2.410  0.00  0.00    -0.058 NA
ATOM      5  N   UNL     1       2.616  -0.192  -1.709  0.00  0.00    -0.124 NA
ATOM      6  C   UNL     1       5.762   1.117  -2.643  0.00  0.00    +0.240 A 
ATOM      7  C   UNL     1       6.473   0.308  -3.638  0.00  0.00    +0.206 A 
ATOM      8  N   UNL     1       7.613   0.888  -3.898  0.00  0.00    -0.032 NA
ATOM      9  O   UNL     1       7.693   2.062  -3.110  0.00  0.00    -0.239 OA
ATOM     10  N   UNL     1       6.500   2.150  -2.351  0.00  0.00    -0.027 NA
ATOM     11  N   UNL     1       6.012  -0.874  -4.206  0.00  0.00    -0.337 N 
ATOM     12  H   UNL     1       6.628  -1.404  -4.947  0.00  0.00    +0.144 HD
ATOM     13  H   UNL     1       5.031  -1.278  -3.915  0.00  0.00    +0.144 HD
ENDROOT
BRANCH   1  15
ATOM     14  N   UNL     1       0.524   0.577   0.204  0.00  0.00    -0.202 N 
ATOM     15  C   UNL     1       1.601   1.357  -0.015  0.00  0.00    +0.285 C 
ATOM     16  O   UNL     1       1.706   2.424   0.559  0.00  0.00    -0.267 OA
ATOM     17  H   UNL     1       0.432  -0.391  -0.311  0.00  0.00    +0.178 HD
BRANCH  14  19
ATOM     18  C   UNL     1      -1.451   0.195   1.396  0.00  0.00    +0.138 C 
ATOM     19  N   UNL     1      -0.478   0.997   1.088  0.00  0.00    -0.187 NA
BRANCH  18  23
ATOM     20  C   UNL     1      -0.988  -3.996   0.892  0.00  0.00    -0.018 A 
ATOM     21  C   UNL     1       0.128  -3.160   0.840  0.00  0.00    +0.009 A 
ATOM     22  C   UNL     1      -0.020  -1.802   1.003  0.00  0.00    +0.010 A 
ATOM     23  C   UNL     1      -1.290  -1.259   1.221  0.00  0.00    -0.005 A 
ATOM     24  C   UNL     1      -2.407  -2.099   1.277  0.00  0.00    +0.010 A 
ATOM     25  C   UNL     1      -2.256  -3.456   1.109  0.00  0.00    +0.009 A 
BRANCH  20  29
ATOM     26  C   UNL     1      -0.524  -8.192   0.386  0.00  0.00    +0.000 A 
ATOM     27  C   UNL     1      -1.782  -7.658   0.601  0.00  0.00    +0.001 A 
ATOM     28  C   UNL     1      -1.939  -6.297   0.766  0.00  0.00    +0.008 A 
ATOM     29  C   UNL     1      -0.826  -5.459   0.715  0.00  0.00    -0.018 A 
ATOM     30  C   UNL     1       0.439  -6.002   0.493  0.00  0.00    +0.008 A 
ATOM     31  C   UNL     1       0.584  -7.365   0.334  0.00  0.00    +0.001 A 
ENDBRANCH  20  29
ENDBRANCH  18  23
ENDBRANCH  14  19
ENDBRANCH   1  15
BRANCH   2  32
ATOM     32  C   UNL     1       4.298   2.847  -0.548  0.00  0.00    +0.163 C 
BRANCH  32  33
ATOM     33  N   UNL     1       4.879   2.556   0.769  0.00  0.00    -0.324 N 
ATOM     34  C   UNL     1       5.625   1.296   0.748  0.00  0.00    +0.106 C 
ATOM     35  C   UNL     1       6.230   1.060   2.137  0.00  0.00    +0.024 C 
ATOM     36  C   UNL     1       7.314   2.116   2.364  0.00  0.00    +0.038 C 
ATOM     37  C   UNL     1       6.784   3.477   1.987  0.00  0.00    -0.026 A 
ATOM     38  C   UNL     1       5.636   3.633   1.230  0.00  0.00    +0.033 A 
ATOM     39  C   UNL     1       5.199   4.918   0.904  0.00  0.00    +0.023 A 
ATOM     40  C   UNL     1       5.901   6.023   1.335  0.00  0.00    +0.002 A 
ATOM     41  C   UNL     1       7.045   5.862   2.095  0.00  0.00    +0.000 A 
ATOM     42  C   UNL     1       7.483   4.593   2.419  0.00  0.00    +0.005 A 
ENDBRANCH  32  33
ENDBRANCH   2  32
TORSDOF 6
