REMARK  Name = ZINC40983943
REMARK  11 active torsions:
REMARK  status: ('A' for Active; 'I' for Inactive)
REMARK    1  A    between atoms: C_1  and  C_2
REMARK    2  A    between atoms: C_7  and  N_8
REMARK    3  A    between atoms: C_14  and  C_16
REMARK    4  A    between atoms: N_19  and  C_22
REMARK    5  A    between atoms: C_22  and  C_23
REMARK    6  A    between atoms: C_24  and  C_38
REMARK    7  A    between atoms: C_26  and  C_28
REMARK    8  A    between atoms: C_31  and  O_34
REMARK    9  A    between atoms: O_34  and  C_35
REMARK   10  A    between atoms: C_35  and  C_36
REMARK   11  A    between atoms: C_35  and  C_37
REMARK                            x       y       z     vdW  Elec       q    Type
REMARK                         _______ _______ _______ _____ _____    ______ ____
ROOT
ATOM      1  C   UNL     1       1.777   0.539   6.932  0.00  0.00    +0.072 C 
ATOM      2  C   UNL     1       2.745  -0.606   7.242  0.00  0.00    -0.006 C 
ATOM      3  C   UNL     1       3.917  -0.068   8.066  0.00  0.00    -0.078 C 
ATOM      4  N   UNL     1       3.414   0.504   9.321  0.00  0.00    +0.383 N 
ATOM      5  C   UNL     1       2.541   1.648   9.034  0.00  0.00    -0.078 C 
ATOM      6  C   UNL     1       1.317   1.175   8.247  0.00  0.00    -0.006 C 
ATOM      7  H   UNL     1       2.892  -0.198   9.824  0.00  0.00    -0.081 HD
ENDROOT
BRANCH   1  14
ATOM      8  N   UNL     1       0.714  -0.295   2.212  0.00  0.00    -0.327 N 
ATOM      9  C   UNL     1      -0.589  -0.353   2.889  0.00  0.00    +0.124 C 
ATOM     10  C   UNL     1      -0.413  -1.078   4.229  0.00  0.00    +0.126 C 
ATOM     11  N   UNL     1       0.728  -0.483   4.938  0.00  0.00    -0.298 N 
ATOM     12  C   UNL     1       2.031  -0.425   4.261  0.00  0.00    +0.126 C 
ATOM     13  C   UNL     1       1.857   0.295   2.924  0.00  0.00    +0.124 C 
ATOM     14  C   UNL     1       0.582   0.001   6.188  0.00  0.00    +0.219 C 
ATOM     15  O   UNL     1      -0.511   0.004   6.713  0.00  0.00    -0.275 OA
BRANCH   8  22
ATOM     16  C   UNL     1       0.282   1.476   0.027  0.00  0.00    +0.045 C 
ATOM     17  C   UNL     1       0.664   0.033  -0.179  0.00  0.00    -0.029 A 
ATOM     18  C   UNL     1       0.821  -0.465  -1.458  0.00  0.00    +0.005 A 
ATOM     19  C   UNL     1       1.171  -1.789  -1.648  0.00  0.00    +0.000 A 
ATOM     20  C   UNL     1       1.366  -2.619  -0.559  0.00  0.00    +0.002 A 
ATOM     21  C   UNL     1       1.212  -2.128   0.722  0.00  0.00    +0.023 A 
ATOM     22  C   UNL     1       0.866  -0.797   0.917  0.00  0.00    +0.033 A 
ENDBRANCH   8  22
ENDBRANCH   1  14
BRANCH   4  23
ATOM     23  C   UNL     1       4.548   0.949  10.143  0.00  0.00    -0.019 C 
BRANCH  23  24
ATOM     24  C   UNL     1       4.043   1.422  11.481  0.00  0.00    +0.066 A 
ATOM     25  C   UNL     1       3.664   2.676  11.787  0.00  0.00    +0.124 A 
ATOM     26  O   UNL     1       3.282   2.675  13.079  0.00  0.00    -0.440 OA
ATOM     27  C   UNL     1       3.430   1.424  13.549  0.00  0.00    +0.228 A 
ATOM     28  N   UNL     1       3.885   0.666  12.579  0.00  0.00    -0.216 NA
ATOM     29  C   UNL     1       3.668   3.862  10.857  0.00  0.00    +0.088 C 
BRANCH  27  30
ATOM     30  C   UNL     1       3.126   0.977  14.924  0.00  0.00    +0.037 A 
ATOM     31  C   UNL     1       3.331  -0.356  15.288  0.00  0.00    +0.017 A 
ATOM     32  C   UNL     1       3.046  -0.769  16.571  0.00  0.00    +0.046 A 
ATOM     33  C   UNL     1       2.557   0.138  17.502  0.00  0.00    +0.121 A 
ATOM     34  C   UNL     1       2.352   1.464  17.144  0.00  0.00    +0.046 A 
ATOM     35  C   UNL     1       2.639   1.887  15.864  0.00  0.00    +0.017 A 
BRANCH  33  36
ATOM     36  O   UNL     1       2.277  -0.274  18.766  0.00  0.00    -0.489 OA
BRANCH  36  37
ATOM     37  C   UNL     1       2.393  -1.673  19.034  0.00  0.00    +0.167 C 
ATOM     38  C   UNL     1       3.845  -2.007  19.381  0.00  0.00    +0.051 C 
ATOM     39  C   UNL     1       1.489  -2.043  20.211  0.00  0.00    +0.051 C 
ENDBRANCH  36  37
ENDBRANCH  33  36
ENDBRANCH  27  30
ENDBRANCH  23  24
ENDBRANCH   4  23
TORSDOF 7
