REMARK  Name = ZINC34761516
REMARK  13 active torsions:
REMARK  status: ('A' for Active; 'I' for Inactive)
REMARK    1  A    between atoms: C_1  and  C_2
REMARK    2  A    between atoms: C_2  and  C_3
REMARK    3  A    between atoms: C_4  and  C_34
REMARK    4  A    between atoms: C_8  and  N_17
REMARK    5  A    between atoms: C_10  and  S_12
REMARK    6  A    between atoms: S_12  and  C_13
REMARK    7  A    between atoms: C_13  and  C_14
REMARK    8  A    between atoms: C_14  and  C_15
REMARK    9  A    between atoms: C_14  and  C_16
REMARK   10  A    between atoms: N_20  and  C_23
REMARK   11  A    between atoms: C_23  and  C_24
REMARK   12  A    between atoms: N_26  and  C_27
REMARK   13  A    between atoms: C_27  and  C_28
REMARK                            x       y       z     vdW  Elec       q    Type
REMARK                         _______ _______ _______ _____ _____    ______ ____
ROOT
ATOM      1  N   UNL     1      -1.977  -0.237   1.827  0.00  0.00    -0.318 N 
ATOM      2  C   UNL     1      -1.495  -0.003   0.457  0.00  0.00    +0.088 C 
ATOM      3  C   UNL     1      -2.349  -0.834  -0.507  0.00  0.00    -0.059 C 
ATOM      4  N   UNL     1      -3.768  -0.517  -0.300  0.00  0.00    +0.387 N 
ATOM      5  C   UNL     1      -4.181  -0.927   1.048  0.00  0.00    -0.059 C 
ATOM      6  C   UNL     1      -3.419  -0.106   2.087  0.00  0.00    +0.088 C 
ATOM      7  H   UNL     1      -3.908   0.477  -0.406  0.00  0.00    -0.081 HD
ENDROOT
BRANCH   1  13
ATOM      8  C   UNL     1      -0.717   1.873   3.632  0.00  0.00    -0.025 A 
ATOM      9  C   UNL     1      -0.071   2.638   4.524  0.00  0.00    -0.007 A 
ATOM     10  S   UNL     1       0.860   1.461   5.486  0.00  0.00    -0.073 S 
ATOM     11  C   UNL     1       0.356  -0.028   4.665  0.00  0.00    +0.115 A 
ATOM     12  C   UNL     1      -0.529   0.432   3.665  0.00  0.00    +0.051 A 
ATOM     13  C   UNL     1      -1.099  -0.577   2.840  0.00  0.00    +0.134 A 
ATOM     14  N   UNL     1      -0.781  -1.843   3.053  0.00  0.00    -0.206 NA
ATOM     15  C   UNL     1       0.057  -2.208   4.016  0.00  0.00    +0.191 A 
ATOM     16  N   UNL     1       0.626  -1.310   4.809  0.00  0.00    -0.215 NA
ATOM     17  C   UNL     1      -0.120   4.137   4.676  0.00  0.00    +0.052 C 
BRANCH   8  19
ATOM     18  C   UNL     1      -3.013   2.719   3.233  0.00  0.00    +0.009 C 
ATOM     19  C   UNL     1      -1.632   2.499   2.612  0.00  0.00    +0.033 C 
ENDBRANCH   8  19
BRANCH  15  20
ATOM     20  S   UNL     1       0.429  -3.916   4.235  0.00  0.00    -0.086 S 
BRANCH  20  21
ATOM     21  C   UNL     1       1.587  -3.936   5.631  0.00  0.00    +0.080 C 
BRANCH  21  22
ATOM     22  C   UNL     1       1.998  -5.379   5.933  0.00  0.00    -0.007 C 
ATOM     23  C   UNL     1       2.783  -5.944   4.747  0.00  0.00    +0.008 C 
ATOM     24  C   UNL     1       2.875  -5.409   7.186  0.00  0.00    +0.008 C 
ENDBRANCH  21  22
ENDBRANCH  20  21
ENDBRANCH  15  20
ENDBRANCH   1  13
BRANCH   4  25
ATOM     25  C   UNL     1      -4.577  -1.231  -1.297  0.00  0.00    +0.019 C 
BRANCH  25  26
ATOM     26  C   UNL     1      -6.019  -0.813  -1.166  0.00  0.00    +0.197 C 
ATOM     27  O   UNL     1      -6.341   0.000  -0.325  0.00  0.00    -0.278 OA
ATOM     28  N   UNL     1      -6.951  -1.342  -1.983  0.00  0.00    -0.313 N 
ATOM     29  H   UNL     1      -6.694  -1.992  -2.656  0.00  0.00    +0.149 HD
BRANCH  28  30
ATOM     30  C   UNL     1      -8.353  -0.935  -1.855  0.00  0.00    +0.139 C 
BRANCH  30  31
ATOM     31  C   UNL     1      -9.183  -1.667  -2.878  0.00  0.00    -0.030 A 
ATOM     32  C   UNL     1      -9.374  -1.121  -4.133  0.00  0.00    +0.005 A 
ATOM     33  C   UNL     1     -10.136  -1.792  -5.071  0.00  0.00    +0.000 A 
ATOM     34  C   UNL     1     -10.706  -3.011  -4.754  0.00  0.00    +0.000 A 
ATOM     35  C   UNL     1     -10.515  -3.558  -3.499  0.00  0.00    +0.000 A 
ATOM     36  C   UNL     1      -9.749  -2.888  -2.562  0.00  0.00    +0.005 A 
ENDBRANCH  30  31
ENDBRANCH  28  30
ENDBRANCH  25  26
ENDBRANCH   4  25
TORSDOF 9
