REMARK  Name = ZINC09486929
REMARK  8 active torsions:
REMARK  status: ('A' for Active; 'I' for Inactive)
REMARK    1  A    between atoms: C_1  and  C_2
REMARK    2  A    between atoms: C_2  and  C_29
REMARK    3  A    between atoms: C_4  and  N_9
REMARK    4  A    between atoms: C_6  and  C_7
REMARK    5  A    between atoms: C_6  and  C_8
REMARK    6  A    between atoms: C_10  and  C_12
REMARK    7  A    between atoms: C_12  and  O_13
REMARK    8  A    between atoms: O_13  and  C_14
REMARK                            x       y       z     vdW  Elec       q    Type
REMARK                         _______ _______ _______ _____ _____    ______ ____
ROOT
ATOM      1  C   UNL     1      -5.924  -2.369   0.047  0.00  0.00    +0.324 C 
ENDROOT
BRANCH   1   3
ATOM      2  N   UNL     1      -8.337  -2.911   0.068  0.00  0.00    -0.310 N 
ATOM      3  C   UNL     1      -7.064  -3.354   0.053  0.00  0.00    +0.251 C 
ATOM      4  O   UNL     1      -6.837  -4.545   0.043  0.00  0.00    -0.272 OA
ATOM      5  H   UNL     1      -8.519  -1.958   0.075  0.00  0.00    +0.149 HD
BRANCH   2   9
ATOM      6  C   UNL     1     -11.653  -5.239   1.794  0.00  0.00    -0.010 C 
ATOM      7  C   UNL     1     -11.857  -4.184   0.700  0.00  0.00    -0.072 C 
ATOM      8  C   UNL     1     -10.678  -3.214   0.700  0.00  0.00    +0.009 C 
ATOM      9  C   UNL     1      -9.448  -3.871   0.074  0.00  0.00    +0.070 C 
ATOM     10  C   UNL     1      -9.785  -4.260  -1.365  0.00  0.00    +0.009 C 
ATOM     11  C   UNL     1     -10.954  -5.241  -1.392  0.00  0.00    -0.072 C 
ATOM     12  C   UNL     1     -10.469  -6.629  -0.955  0.00  0.00    -0.010 C 
ATOM     13  C   UNL     1     -11.427  -5.363  -2.858  0.00  0.00    -0.010 C 
ATOM     14  C   UNL     1     -13.122  -3.379   1.071  0.00  0.00    -0.010 C 
ATOM     15  N   UNL     1     -12.149  -4.814  -0.616  0.00  0.00    +0.386 N 
ATOM     16  H   UNL     1     -12.671  -4.136  -1.183  0.00  0.00    -0.084 HD
ATOM     17  H   UNL     1     -12.733  -5.642  -0.449  0.00  0.00    -0.084 HD
ENDBRANCH   2   9
ENDBRANCH   1   3
BRANCH   1  18
ATOM     18  O   UNL     1      -4.683  -3.077   0.030  0.00  0.00    -0.483 OA
BRANCH  18  19
ATOM     19  C   UNL     1      -3.548  -2.331   0.023  0.00  0.00    +0.125 A 
ATOM     20  C   UNL     1      -3.633  -0.942   0.032  0.00  0.00    +0.046 A 
ATOM     21  C   UNL     1      -2.486  -0.181   0.025  0.00  0.00    +0.016 A 
ATOM     22  C   UNL     1      -1.238  -0.803   0.009  0.00  0.00    +0.026 A 
ATOM     23  C   UNL     1       0.002  -0.004   0.002  0.00  0.00    -0.000 A 
ATOM     24  C   UNL     1      -0.017   1.385   0.010  0.00  0.00    +0.009 A 
ATOM     25  C   UNL     1       1.174   2.083   0.002  0.00  0.00    +0.001 A 
ATOM     26  C   UNL     1       2.387   1.410  -0.013  0.00  0.00    +0.001 A 
ATOM     27  C   UNL     1       2.426   0.031  -0.021  0.00  0.00    +0.015 A 
ATOM     28  C   UNL     1       1.235  -0.691  -0.013  0.00  0.00    +0.067 A 
ATOM     29  C   UNL     1       1.219  -2.160  -0.022  0.00  0.00    +0.345 A 
ATOM     30  O   UNL     1       2.267  -2.777  -0.035  0.00  0.00    -0.245 OA
ATOM     31  O   UNL     1       0.052  -2.825  -0.015  0.00  0.00    -0.422 OA
ATOM     32  C   UNL     1      -1.148  -2.203   0.000  0.00  0.00    +0.143 A 
ATOM     33  C   UNL     1      -2.313  -2.958   0.007  0.00  0.00    +0.092 A 
ENDBRANCH  18  19
ENDBRANCH   1  18
TORSDOF 4
