REMARK  Name = ZINC20893051
REMARK  3 active torsions:
REMARK  status: ('A' for Active; 'I' for Inactive)
REMARK    1  A    between atoms: C_1  and  C_2
REMARK    2  A    between atoms: N_5  and  C_7
REMARK    3  A    between atoms: C_19  and  C_21
REMARK                            x       y       z     vdW  Elec       q    Type
REMARK                         _______ _______ _______ _____ _____    ______ ____
ROOT
ATOM      1  C   UNL     1       3.720   4.249   1.062  0.00  0.00    +0.068 C 
ATOM      2  C   UNL     1       3.447   2.925   1.729  0.00  0.00    +0.067 A 
ATOM      3  C   UNL     1       2.565   1.933   1.252  0.00  0.00    +0.033 A 
ATOM      4  C   UNL     1       2.597   0.899   2.122  0.00  0.00    +0.133 A 
ATOM      5  N   UNL     1       3.478   1.243   3.123  0.00  0.00    -0.216 N 
ATOM      6  N   UNL     1       3.986   2.511   2.840  0.00  0.00    -0.170 NA
ATOM      7  N   UNL     1       1.942  -0.309   2.136  0.00  0.00    -0.269 N 
ATOM      8  C   UNL     1       1.047  -0.876   1.385  0.00  0.00    +0.228 C 
ATOM      9  O   UNL     1       0.633  -1.938   1.798  0.00  0.00    -0.275 OA
ATOM     10  C   UNL     1       0.451  -0.431   0.107  0.00  0.00    +0.166 C 
ATOM     11  S   UNL     1       0.160   1.342   0.048  0.00  0.00    -0.138 S 
ATOM     12  C   UNL     1       1.781   2.109  -0.011  0.00  0.00    +0.112 C 
ATOM     13  H   UNL     1       2.156  -1.041   2.928  0.00  0.00    +0.156 HD
ENDROOT
BRANCH   5  14
ATOM     14  C   UNL     1       3.807   0.456   4.235  0.00  0.00    +0.086 A 
ATOM     15  C   UNL     1       2.802  -0.122   5.000  0.00  0.00    +0.029 A 
ATOM     16  C   UNL     1       3.129  -0.897   6.095  0.00  0.00    +0.002 A 
ATOM     17  C   UNL     1       4.456  -1.099   6.431  0.00  0.00    +0.002 A 
ATOM     18  C   UNL     1       5.459  -0.526   5.672  0.00  0.00    +0.022 A 
ATOM     19  C   UNL     1       5.139   0.247   4.571  0.00  0.00    +0.066 A 
ATOM     20 CL   UNL     1       6.399   0.961   3.614  0.00  0.00    -0.081 Cl
ENDBRANCH   5  14
BRANCH  12  21
ATOM     21  C   UNL     1       1.609   3.583  -0.272  0.00  0.00    -0.023 A 
ATOM     22  C   UNL     1       2.138   4.160  -1.412  0.00  0.00    +0.012 A 
ATOM     23  C   UNL     1       1.965   5.489  -1.617  0.00  0.00    +0.045 A 
ATOM     24  S   UNL     1       1.033   5.967  -0.171  0.00  0.00    -0.105 S 
ATOM     25  C   UNL     1       0.930   4.362   0.605  0.00  0.00    +0.050 A 
ENDBRANCH  12  21
TORSDOF 2
