REMARK  Name = ZINC09329439
REMARK  3 active torsions:
REMARK  status: ('A' for Active; 'I' for Inactive)
REMARK    1  A    between atoms: C_8  and  C_26
REMARK    2  A    between atoms: C_26  and  C_28
REMARK    3  A    between atoms: C_32  and  N_34
REMARK                            x       y       z     vdW  Elec       q    Type
REMARK                         _______ _______ _______ _____ _____    ______ ____
ROOT
ATOM      1  C   UNL     1       2.309  -7.899  -2.673  0.00  0.00    +0.000 A 
ATOM      2  C   UNL     1       2.853  -7.582  -3.904  0.00  0.00    +0.002 A 
ATOM      3  C   UNL     1       3.591  -6.427  -4.059  0.00  0.00    +0.023 A 
ATOM      4  C   UNL     1       3.812  -5.585  -2.971  0.00  0.00    +0.038 A 
ATOM      5  C   UNL     1       3.301  -5.938  -1.727  0.00  0.00    -0.011 A 
ATOM      6  C   UNL     1       2.515  -7.060  -1.592  0.00  0.00    +0.006 A 
ATOM      7  C   UNL     1       3.749  -4.862  -0.770  0.00  0.00    +0.085 C 
ATOM      8  C   UNL     1       2.518  -4.294  -0.044  0.00  0.00    +0.066 C 
ATOM      9  C   UNL     1       2.587  -4.931   1.352  0.00  0.00    -0.055 C 
ATOM     10  C   UNL     1       2.077  -4.018   2.466  0.00  0.00    -0.016 C 
ATOM     11  C   UNL     1       3.335  -3.497   3.196  0.00  0.00    -0.020 C 
ATOM     12  C   UNL     1       4.506  -3.895   2.262  0.00  0.00    -0.076 C 
ATOM     13  C   UNL     1       4.675  -5.395   0.321  0.00  0.00    +0.060 C 
ATOM     14  C   UNL     1       4.935  -6.875   0.169  0.00  0.00    -0.024 A 
ATOM     15  C   UNL     1       4.150  -7.994   0.327  0.00  0.00    +0.043 A 
ATOM     16  C   UNL     1       4.674  -9.253   0.083  0.00  0.00    +0.124 A 
ATOM     17  C   UNL     1       5.999  -9.384  -0.297  0.00  0.00    +0.040 A 
ATOM     18  C   UNL     1       6.802  -8.268  -0.407  0.00  0.00    +0.026 A 
ATOM     19  C   UNL     1       6.282  -7.001  -0.153  0.00  0.00    +0.036 A 
ATOM     20  N   UNL     1       6.891  -5.746  -0.164  0.00  0.00    -0.286 N 
ATOM     21  C   UNL     1       6.043  -4.771   0.219  0.00  0.00    +0.212 C 
ATOM     22  O   UNL     1       6.358  -3.621   0.438  0.00  0.00    -0.277 OA
ATOM     23  F   UNL     1       3.893 -10.348   0.207  0.00  0.00    -0.205 F 
ATOM     24  C   UNL     1       4.451  -3.855  -1.635  0.00  0.00    +0.228 C 
ATOM     25  O   UNL     1       4.960  -2.799  -1.320  0.00  0.00    -0.275 OA
ATOM     26  N   UNL     1       4.462  -4.355  -2.890  0.00  0.00    -0.285 N 
ATOM     27  H   UNL     1       7.814  -5.590  -0.416  0.00  0.00    +0.155 HD
ATOM     28  H   UNL     1       4.877  -3.906  -3.643  0.00  0.00    +0.155 HD
ATOM     29  N   UNL     1       3.998  -5.130   1.611  0.00  0.00    +0.395 N 
ATOM     30  H   UNL     1       4.136  -5.931   2.238  0.00  0.00    -0.079 HD
ENDROOT
BRANCH   8  31
ATOM     31  C   UNL     1       2.504  -2.798  -0.036  0.00  0.00    +0.166 C 
ATOM     32  O   UNL     1       3.033  -2.192   0.871  0.00  0.00    -0.292 OA
BRANCH  31  33
ATOM     33  C   UNL     1       1.849  -2.062  -1.129  0.00  0.00    +0.020 A 
ATOM     34  C   UNL     1       1.237  -2.758  -2.177  0.00  0.00    +0.011 A 
ATOM     35  C   UNL     1       0.625  -2.062  -3.197  0.00  0.00    +0.003 A 
ATOM     36  C   UNL     1       0.610  -0.678  -3.184  0.00  0.00    +0.033 A 
ATOM     37  C   UNL     1       1.218   0.018  -2.154  0.00  0.00    +0.127 A 
ATOM     38  C   UNL     1       1.834  -0.664  -1.126  0.00  0.00    +0.044 A 
BRANCH  37  39
ATOM     39  N   UNL     1       1.201   1.498  -2.152  0.00  0.00    +0.056 N 
ATOM     40  O   UNL     1       1.731   2.112  -1.243  0.00  0.00    -0.126 OA
ATOM     41  O   UNL     1       0.661   2.102  -3.061  0.00  0.00    -0.126 OA
ENDBRANCH  37  39
ENDBRANCH  31  33
ENDBRANCH   8  31
TORSDOF 3
