REMARK  Name = ZINC60907720
REMARK  7 active torsions:
REMARK  status: ('A' for Active; 'I' for Inactive)
REMARK    1  A    between atoms: C_1  and  C_2
REMARK    2  A    between atoms: C_2  and  C_3
REMARK    3  A    between atoms: C_2  and  N_16
REMARK    4  A    between atoms: C_6  and  N_9
REMARK    5  A    between atoms: N_12  and  C_13
REMARK    6  A    between atoms: N_19  and  C_20
REMARK    7  A    between atoms: C_20  and  C_21
REMARK                            x       y       z     vdW  Elec       q    Type
REMARK                         _______ _______ _______ _____ _____    ______ ____
ROOT
ATOM      1  C   UNL     1       0.169   1.493  -0.121  0.00  0.00    +0.033 C 
ATOM      2  C   UNL     1       0.012  -0.025  -0.012  0.00  0.00    +0.102 C 
ENDROOT
BRANCH   2   3
ATOM      3  C   UNL     1       0.738  -0.518   1.212  0.00  0.00    -0.027 A 
ATOM      4  C   UNL     1       2.110  -0.692   1.178  0.00  0.00    +0.007 A 
ATOM      5  C   UNL     1       2.778  -1.144   2.299  0.00  0.00    +0.023 A 
ATOM      6  C   UNL     1       2.072  -1.425   3.461  0.00  0.00    +0.035 A 
ATOM      7  C   UNL     1       0.694  -1.250   3.492  0.00  0.00    +0.023 A 
ATOM      8  C   UNL     1       0.032  -0.792   2.370  0.00  0.00    +0.007 A 
BRANCH   6   9
ATOM      9  N   UNL     1       2.746  -1.884   4.598  0.00  0.00    -0.269 N 
ATOM     10  C   UNL     1       3.998  -1.458   4.857  0.00  0.00    +0.304 C 
ATOM     11  O   UNL     1       4.506  -0.603   4.157  0.00  0.00    -0.253 OA
ATOM     12  N   UNL     1       4.688  -1.980   5.891  0.00  0.00    -0.296 N 
ATOM     13  H   UNL     1       2.312  -2.509   5.200  0.00  0.00    +0.156 HD
ATOM     14  H   UNL     1       4.282  -2.662   6.449  0.00  0.00    +0.151 HD
BRANCH  12  15
ATOM     15  C   UNL     1       6.049  -1.517   6.172  0.00  0.00    +0.075 C 
ATOM     16  C   UNL     1       7.101  -2.576   6.505  0.00  0.00    +0.024 C 
ATOM     17  C   UNL     1       6.562  -1.661   7.606  0.00  0.00    +0.024 C 
ENDBRANCH  12  15
ENDBRANCH   6   9
ENDBRANCH   2   3
BRANCH   2  18
ATOM     18  N   UNL     1       0.577  -0.661  -1.205  0.00  0.00    -0.293 N 
ATOM     19  C   UNL     1      -0.172  -0.793  -2.317  0.00  0.00    +0.300 C 
ATOM     20  O   UNL     1      -1.317  -0.384  -2.331  0.00  0.00    -0.253 OA
ATOM     21  N   UNL     1       0.347  -1.378  -3.414  0.00  0.00    -0.299 N 
ATOM     22  H   UNL     1       1.490  -0.988  -1.194  0.00  0.00    +0.151 HD
ATOM     23  H   UNL     1       1.261  -1.705  -3.403  0.00  0.00    +0.150 HD
BRANCH  21  24
ATOM     24  C   UNL     1      -0.467  -1.522  -4.624  0.00  0.00    +0.109 C 
BRANCH  24  25
ATOM     25  C   UNL     1       0.355  -2.214  -5.713  0.00  0.00    +0.006 C 
ATOM     26  C   UNL     1       1.525  -1.315  -6.117  0.00  0.00    +0.005 C 
ATOM     27  C   UNL     1       2.347  -2.007  -7.207  0.00  0.00    +0.000 C 
ATOM     28  C   UNL     1       1.460  -2.269  -8.426  0.00  0.00    +0.000 C 
ATOM     29  C   UNL     1       0.290  -3.167  -8.021  0.00  0.00    +0.000 C 
ATOM     30  C   UNL     1      -0.532  -2.476  -6.932  0.00  0.00    +0.005 C 
ENDBRANCH  24  25
ENDBRANCH  21  24
ENDBRANCH   2  18
TORSDOF 6
