REMARK  Name = ZINC04729947
REMARK  8 active torsions:
REMARK  status: ('A' for Active; 'I' for Inactive)
REMARK    1  A    between atoms: C_1  and  O_2
REMARK    2  A    between atoms: O_2  and  C_3
REMARK    3  A    between atoms: C_7  and  C_9
REMARK    4  A    between atoms: C_11  and  C_23
REMARK    5  A    between atoms: C_14  and  C_16
REMARK    6  A    between atoms: C_27  and  O_30
REMARK    7  A    between atoms: C_28  and  O_29
REMARK    8  A    between atoms: O_30  and  C_31
REMARK                            x       y       z     vdW  Elec       q    Type
REMARK                         _______ _______ _______ _____ _____    ______ ____
ROOT
ATOM      1  C   UNL     1      -3.613  -0.691   0.662  0.00  0.00    +0.081 C 
ATOM      2  C   UNL     1      -1.293  -0.775   0.011  0.00  0.00    -0.028 C 
ATOM      3  C   UNL     1      -1.631  -1.234  -1.411  0.00  0.00    +0.044 C 
ATOM      4  C   UNL     1      -3.054  -1.717  -1.457  0.00  0.00    +0.040 C 
ATOM      5  N   UNL     1      -3.908  -1.463  -0.538  0.00  0.00    -0.299 NA
ATOM      6  N   UNL     1      -2.384   0.097   0.488  0.00  0.00    +0.401 N 
ATOM      7  H   UNL     1      -2.117   0.515   1.386  0.00  0.00    -0.081 HD
ATOM      8  H   UNL     1      -2.551   0.840  -0.200  0.00  0.00    -0.081 HD
ENDROOT
BRANCH   4   9
ATOM      9  C   UNL     1      -3.486  -2.521  -2.617  0.00  0.00    -0.004 A 
ATOM     10  C   UNL     1      -2.585  -2.813  -3.642  0.00  0.00    +0.011 A 
ATOM     11  C   UNL     1      -2.993  -3.570  -4.721  0.00  0.00    +0.020 A 
ATOM     12  C   UNL     1      -4.298  -4.029  -4.793  0.00  0.00    +0.041 A 
ATOM     13  C   UNL     1      -5.198  -3.738  -3.782  0.00  0.00    +0.020 A 
ATOM     14  C   UNL     1      -4.800  -2.987  -2.695  0.00  0.00    +0.011 A 
ATOM     15 CL   UNL     1      -4.807  -4.974  -6.157  0.00  0.00    -0.084 Cl
ENDBRANCH   4   9
BRANCH   1  20
ATOM     16  C   UNL     1      -3.948  -3.707   2.915  0.00  0.00    +0.120 A 
ATOM     17  C   UNL     1      -3.118  -3.355   3.970  0.00  0.00    +0.045 A 
ATOM     18  C   UNL     1      -2.453  -2.145   3.949  0.00  0.00    +0.004 A 
ATOM     19  C   UNL     1      -2.610  -1.286   2.877  0.00  0.00    +0.004 A 
ATOM     20  C   UNL     1      -3.441  -1.632   1.827  0.00  0.00    -0.037 A 
ATOM     21  C   UNL     1      -4.108  -2.841   1.843  0.00  0.00    +0.049 A 
BRANCH  16  23
ATOM     22  C   UNL     1      -4.391  -5.738   4.068  0.00  0.00    +0.277 C 
ATOM     23  O   UNL     1      -4.603  -4.897   2.932  0.00  0.00    -0.495 OA
ENDBRANCH  16  23
ENDBRANCH   1  20
BRANCH   2  24
ATOM     24  C   UNL     1       0.002  -0.004   0.002  0.00  0.00    -0.016 A 
ATOM     25  C   UNL     1      -0.017   1.379   0.010  0.00  0.00    +0.006 A 
ATOM     26  C   UNL     1       1.169   2.089   0.002  0.00  0.00    +0.004 A 
ATOM     27  C   UNL     1       2.379   1.420  -0.013  0.00  0.00    +0.049 A 
ATOM     28  C   UNL     1       2.405   0.035  -0.021  0.00  0.00    +0.161 A 
ATOM     29  C   UNL     1       1.211  -0.680  -0.013  0.00  0.00    +0.160 A 
BRANCH  29  30
ATOM     30  O   UNL     1       1.231  -2.040  -0.021  0.00  0.00    -0.503 OA
ATOM     31  H   UNL     1       1.229  -2.428  -0.907  0.00  0.00    +0.292 HD
ENDBRANCH  29  30
BRANCH  28  32
ATOM     32  O   UNL     1       3.594  -0.624  -0.035  0.00  0.00    -0.491 OA
ATOM     33  C   UNL     1       4.779   0.175  -0.042  0.00  0.00    +0.277 C 
ENDBRANCH  28  32
ENDBRANCH   2  24
TORSDOF 6
