REMARK  Name = ZINC35709820
REMARK  9 active torsions:
REMARK  status: ('A' for Active; 'I' for Inactive)
REMARK    1  A    between atoms: C_1  and  C_2
REMARK    2  A    between atoms: C_3  and  C_30
REMARK    3  A    between atoms: C_4  and  C_23
REMARK    4  A    between atoms: C_7  and  C_12
REMARK    5  A    between atoms: C_13  and  N_15
REMARK    6  A    between atoms: N_15  and  C_16
REMARK    7  A    between atoms: C_16  and  C_17
REMARK    8  A    between atoms: N_32  and  C_33
REMARK    9  A    between atoms: N_32  and  C_34
REMARK                            x       y       z     vdW  Elec       q    Type
REMARK                         _______ _______ _______ _____ _____    ______ ____
ROOT
ATOM      1  C   UNL     1      -0.367   1.073   0.448  0.00  0.00    +0.066 C 
ATOM      2  C   UNL     1      -0.193  -0.421   0.347  0.00  0.00    +0.051 C 
ATOM      3  C   UNL     1      -1.301  -1.231   0.202  0.00  0.00    +0.060 C 
ATOM      4  C   UNL     1      -1.075  -2.724   0.105  0.00  0.00    +0.148 C 
ATOM      5  N   UNL     1       0.332  -3.201   0.173  0.00  0.00    -0.267 N 
ATOM      6  C   UNL     1       0.770  -4.509   0.106  0.00  0.00    +0.048 C 
ATOM      7  C   UNL     1       2.100  -4.729   0.188  0.00  0.00    +0.072 C 
ATOM      8  S   UNL     1       2.738  -3.075   0.362  0.00  0.00    -0.060 S 
ATOM      9  C   UNL     1       1.286  -2.234   0.319  0.00  0.00    +0.166 C 
ATOM     10  N   UNL     1       1.022  -0.946   0.392  0.00  0.00    -0.230 NA
ENDROOT
BRANCH   4  11
ATOM     11  C   UNL     1      -1.843  -3.382   1.222  0.00  0.00    -0.022 A 
ATOM     12  C   UNL     1      -1.373  -3.309   2.520  0.00  0.00    +0.007 A 
ATOM     13  C   UNL     1      -2.077  -3.913   3.545  0.00  0.00    +0.020 A 
ATOM     14  C   UNL     1      -3.251  -4.591   3.272  0.00  0.00    +0.041 A 
ATOM     15  C   UNL     1      -3.721  -4.664   1.972  0.00  0.00    +0.020 A 
ATOM     16  C   UNL     1      -3.019  -4.055   0.949  0.00  0.00    +0.007 A 
ATOM     17 CL   UNL     1      -4.136  -5.351   4.558  0.00  0.00    -0.084 Cl
ENDBRANCH   4  11
BRANCH   3  18
ATOM     18  C   UNL     1      -2.593  -0.689   0.148  0.00  0.00    +0.246 C 
ATOM     19  O   UNL     1      -3.327  -0.763   1.119  0.00  0.00    -0.270 OA
ATOM     20  N   UNL     1      -3.024  -0.085  -0.978  0.00  0.00    -0.304 N 
ATOM     21  C   UNL     1      -4.324   0.590  -0.995  0.00  0.00    +0.132 C 
ATOM     22  C   UNL     1      -2.193  -0.105  -2.184  0.00  0.00    +0.132 C 
ENDBRANCH   3  18
BRANCH   6  23
ATOM     23  C   UNL     1      -0.178  -5.622  -0.050  0.00  0.00    +0.091 C 
ATOM     24  C   UNL     1       0.261  -6.894   0.011  0.00  0.00    +0.239 C 
ATOM     25  O   UNL     1       1.589  -7.148   0.106  0.00  0.00    -0.271 OA
BRANCH  24  26
ATOM     26  N   UNL     1      -0.643  -7.941  -0.024  0.00  0.00    -0.308 N 
ATOM     27  H   UNL     1      -1.587  -7.763  -0.166  0.00  0.00    +0.149 HD
BRANCH  26  28
ATOM     28  C   UNL     1      -0.177  -9.319   0.152  0.00  0.00    +0.140 C 
BRANCH  28  29
ATOM     29  C   UNL     1      -1.329 -10.269  -0.049  0.00  0.00    -0.027 A 
ATOM     30  C   UNL     1      -2.130 -10.650   1.017  0.00  0.00    +0.025 A 
ATOM     31  C   UNL     1      -3.177 -11.523   0.794  0.00  0.00    +0.111 A 
ATOM     32  N   UNL     1      -3.418 -11.993  -0.414  0.00  0.00    -0.263 NA
ATOM     33  C   UNL     1      -2.678 -11.653  -1.451  0.00  0.00    +0.111 A 
ATOM     34  C   UNL     1      -1.617 -10.779  -1.306  0.00  0.00    +0.025 A 
ENDBRANCH  28  29
ENDBRANCH  26  28
ENDBRANCH  24  26
ENDBRANCH   6  23
TORSDOF 6
