REMARK  Name = ZINC39362676
REMARK  4 active torsions:
REMARK  status: ('A' for Active; 'I' for Inactive)
REMARK    1  A    between atoms: C_1  and  C_2
REMARK    2  A    between atoms: C_4  and  C_11
REMARK    3  A    between atoms: C_14  and  C_17
REMARK    4  A    between atoms: C_17  and  C_22
REMARK                            x       y       z     vdW  Elec       q    Type
REMARK                         _______ _______ _______ _____ _____    ______ ____
ROOT
ATOM      1  C   UNL     1      -1.379  -2.443  -1.997  0.00  0.00    +0.258 C 
ATOM      2  N   UNL     1      -1.438  -3.894  -1.785  0.00  0.00    -0.345 N 
ATOM      3  C   UNL     1      -0.613  -4.465  -2.593  0.00  0.00    +0.116 C 
ATOM      4  N   UNL     1       0.040  -3.556  -3.374  0.00  0.00    -0.251 N 
ATOM      5  O   UNL     1      -0.409  -2.250  -3.038  0.00  0.00    -0.247 OA
ATOM      6  H   UNL     1       0.704  -3.767  -4.049  0.00  0.00    +0.195 HD
ATOM      7  H   UNL     1      -2.004  -4.349  -1.142  0.00  0.00    +0.163 HD
ENDROOT
BRANCH   1  11
ATOM      8  C   UNL     1       0.332   1.844  -1.409  0.00  0.00    +0.045 C 
ATOM      9  C   UNL     1       0.306   0.360  -1.144  0.00  0.00    -0.033 C 
ATOM     10  C   UNL     1      -0.849  -0.264  -0.974  0.00  0.00    -0.005 C 
ATOM     11  C   UNL     1      -0.930  -1.738  -0.715  0.00  0.00    +0.150 C 
ATOM     12  C   UNL     1       0.387  -2.308  -0.284  0.00  0.00    +0.228 C 
ATOM     13  O   UNL     1       0.400  -3.389   0.266  0.00  0.00    -0.275 OA
ATOM     14  N   UNL     1       1.552  -1.673  -0.483  0.00  0.00    -0.285 N 
ATOM     15  C   UNL     1       1.568  -0.404  -1.078  0.00  0.00    +0.029 C 
ATOM     16  C   UNL     1       2.700   0.106  -1.571  0.00  0.00    +0.034 C 
ATOM     17  H   UNL     1       2.384  -2.094  -0.218  0.00  0.00    +0.155 HD
ENDBRANCH   1  11
BRANCH   3  18
ATOM     18  C   UNL     1      -0.396  -5.954  -2.667  0.00  0.00    +0.078 C 
ATOM     19  C   UNL     1      -0.827  -6.495  -4.049  0.00  0.00    +0.049 C 
ATOM     20  C   UNL     1      -1.963  -7.491  -3.724  0.00  0.00    +0.161 C 
ATOM     21  O   UNL     1      -1.722  -7.893  -2.358  0.00  0.00    -0.378 OA
ATOM     22  C   UNL     1      -1.322  -6.686  -1.672  0.00  0.00    +0.179 C 
BRANCH  18  23
ATOM     23  C   UNL     1       1.047  -6.290  -2.392  0.00  0.00    -0.032 A 
ATOM     24  C   UNL     1       1.924  -5.298  -1.995  0.00  0.00    +0.007 A 
ATOM     25  C   UNL     1       3.247  -5.605  -1.742  0.00  0.00    +0.038 A 
ATOM     26  C   UNL     1       3.695  -6.908  -1.885  0.00  0.00    +0.123 A 
ATOM     27  C   UNL     1       2.815  -7.901  -2.282  0.00  0.00    +0.038 A 
ATOM     28  C   UNL     1       1.491  -7.592  -2.530  0.00  0.00    +0.007 A 
ATOM     29  F   UNL     1       4.988  -7.209  -1.638  0.00  0.00    -0.205 F 
ENDBRANCH  18  23
ENDBRANCH   3  18
TORSDOF 3
