REMARK  Name = ZINC09357670
REMARK  5 active torsions:
REMARK  status: ('A' for Active; 'I' for Inactive)
REMARK    1  A    between atoms: C_1  and  C_2
REMARK    2  A    between atoms: C_2  and  C_4
REMARK    3  A    between atoms: C_7  and  N_10
REMARK    4  A    between atoms: C_25  and  C_31
REMARK    5  A    between atoms: N_33  and  C_34
REMARK                            x       y       z     vdW  Elec       q    Type
REMARK                         _______ _______ _______ _____ _____    ______ ____
ROOT
ATOM      1  N   UNL     1       2.197   3.782   0.197  0.00  0.00    -0.210 N 
ATOM      2  C   UNL     1       1.517   2.961  -0.620  0.00  0.00    +0.232 C 
ATOM      3  O   UNL     1       1.028   3.267  -1.687  0.00  0.00    -0.274 OA
ATOM      4  C   UNL     1       1.465   1.590   0.019  0.00  0.00    +0.113 C 
ATOM      5  C   UNL     1       0.038   1.048   0.028  0.00  0.00    +0.100 C 
ATOM      6  C   UNL     1      -0.754   1.536  -1.157  0.00  0.00    -0.021 A 
ATOM      7  C   UNL     1      -0.154   1.752  -2.376  0.00  0.00    +0.006 A 
ATOM      8  C   UNL     1      -0.906   2.206  -3.446  0.00  0.00    +0.000 A 
ATOM      9  C   UNL     1      -2.261   2.445  -3.296  0.00  0.00    +0.001 A 
ATOM     10  C   UNL     1      -2.899   2.232  -2.044  0.00  0.00    +0.008 A 
ATOM     11  C   UNL     1      -2.137   1.773  -0.968  0.00  0.00    -0.019 A 
ATOM     12  C   UNL     1      -2.768   1.539   0.346  0.00  0.00    +0.022 C 
ATOM     13  C   UNL     1      -1.994   1.442   1.446  0.00  0.00    +0.054 C 
ATOM     14  C   UNL     1       0.358   2.173   2.113  0.00  0.00    +0.156 C 
ATOM     15  C   UNL     1       1.757   1.920   1.515  0.00  0.00    +0.118 C 
ATOM     16  C   UNL     1       2.488   3.247   1.393  0.00  0.00    +0.232 C 
ATOM     17  O   UNL     1       3.211   3.739   2.233  0.00  0.00    -0.274 OA
ATOM     18  N   UNL     1      -0.490   1.247   1.383  0.00  0.00    -0.383 NA
ATOM     19  H   UNL     1      -0.342   0.350   1.860  0.00  0.00    +0.127 HD
ENDROOT
BRANCH   1  23
ATOM     20  C   UNL     1       3.309   7.650  -0.888  0.00  0.00    +0.017 A 
ATOM     21  C   UNL     1       4.288   6.678  -0.652  0.00  0.00    +0.013 A 
ATOM     22  C   UNL     1       3.917   5.402  -0.294  0.00  0.00    +0.024 A 
ATOM     23  C   UNL     1       2.570   5.078  -0.167  0.00  0.00    +0.044 A 
ATOM     24  C   UNL     1       1.593   6.039  -0.405  0.00  0.00    +0.024 A 
ATOM     25  C   UNL     1       1.955   7.319  -0.758  0.00  0.00    +0.013 A 
BRANCH  20  27
ATOM     26  C   UNL     1       2.646  10.027  -1.634  0.00  0.00    +0.091 C 
ATOM     27  C   UNL     1       3.700   9.014  -1.269  0.00  0.00    +0.160 C 
ATOM     28  O   UNL     1       4.873   9.324  -1.291  0.00  0.00    -0.292 OA
ENDBRANCH  20  27
ENDBRANCH   1  23
BRANCH  14  29
ATOM     29  C   UNL     1       0.084   3.654   2.161  0.00  0.00    +0.237 C 
ATOM     30  O   UNL     1      -0.603   4.172   1.306  0.00  0.00    -0.273 OA
ATOM     31  N   UNL     1       0.602   4.404   3.154  0.00  0.00    -0.284 N 
ATOM     32  H   UNL     1       1.096   3.981   3.874  0.00  0.00    +0.155 HD
BRANCH  31  33
ATOM     33  C   UNL     1       0.428   5.792   3.147  0.00  0.00    +0.034 A 
ATOM     34  C   UNL     1       1.432   6.622   3.629  0.00  0.00    +0.025 A 
ATOM     35  C   UNL     1       1.259   7.992   3.616  0.00  0.00    +0.022 A 
ATOM     36  C   UNL     1       0.082   8.538   3.134  0.00  0.00    +0.041 A 
ATOM     37  C   UNL     1      -0.922   7.713   2.659  0.00  0.00    +0.022 A 
ATOM     38  C   UNL     1      -0.752   6.343   2.664  0.00  0.00    +0.025 A 
ATOM     39 CL   UNL     1      -0.134  10.261   3.126  0.00  0.00    -0.084 Cl
ENDBRANCH  31  33
ENDBRANCH  14  29
TORSDOF 4
