REMARK  Name = ZINC09777140
REMARK  9 active torsions:
REMARK  status: ('A' for Active; 'I' for Inactive)
REMARK    1  A    between atoms: C_1  and  C_2
REMARK    2  A    between atoms: C_5  and  O_26
REMARK    3  A    between atoms: C_6  and  N_8
REMARK    4  A    between atoms: N_8  and  C_9
REMARK    5  A    between atoms: C_9  and  C_19
REMARK    6  A    between atoms: C_19  and  C_21
REMARK    7  A    between atoms: C_21  and  O_23
REMARK    8  A    between atoms: O_23  and  C_24
REMARK    9  A    between atoms: O_26  and  C_27
REMARK                            x       y       z     vdW  Elec       q    Type
REMARK                         _______ _______ _______ _____ _____    ______ ____
ROOT
ATOM      1  C   UNL     1       2.162   5.083  -0.100  0.00  0.00    +0.071 C 
ATOM      2  C   UNL     1       3.487   5.476  -0.148  0.00  0.00    +0.119 C 
ATOM      3  C   UNL     1       3.877   6.888   0.015  0.00  0.00    +0.256 C 
ATOM      4  O   UNL     1       3.038   7.750   0.196  0.00  0.00    -0.270 OA
ATOM      5  N   UNL     1       5.189   7.197  -0.038  0.00  0.00    -0.263 N 
ATOM      6  C   UNL     1       6.122   6.257  -0.243  0.00  0.00    +0.143 C 
ATOM      7  S   UNL     1       7.763   6.744  -0.302  0.00  0.00    -0.018 S 
ATOM      8  N   UNL     1       5.840   4.957  -0.405  0.00  0.00    -0.263 N 
ATOM      9  C   UNL     1       4.571   4.502  -0.370  0.00  0.00    +0.256 C 
ATOM     10  O   UNL     1       4.327   3.319  -0.518  0.00  0.00    -0.270 OA
ATOM     11  H   UNL     1       5.463   8.121   0.072  0.00  0.00    +0.157 HD
ATOM     12  H   UNL     1       6.565   4.329  -0.550  0.00  0.00    +0.157 HD
ENDROOT
BRANCH   1  13
ATOM     13  N   UNL     1       1.824   3.812  -0.403  0.00  0.00    -0.312 N 
ATOM     14  H   UNL     1       1.928   3.486  -1.310  0.00  0.00    +0.152 HD
BRANCH  13  20
ATOM     15  C   UNL     1       0.806   2.990   4.336  0.00  0.00    +0.044 C 
ATOM     16  C   UNL     1       0.817   2.540   2.897  0.00  0.00    -0.048 A 
ATOM     17  C   UNL     1       0.325   1.292   2.561  0.00  0.00    +0.007 A 
ATOM     18  C   UNL     1       0.337   0.871   1.244  0.00  0.00    +0.048 A 
ATOM     19  C   UNL     1       0.832   1.706   0.255  0.00  0.00    +0.141 A 
ATOM     20  C   UNL     1       1.322   2.966   0.592  0.00  0.00    +0.074 A 
ATOM     21  C   UNL     1       1.312   3.378   1.917  0.00  0.00    +0.030 A 
BRANCH  19  22
ATOM     22  O   UNL     1       0.839   1.296  -1.041  0.00  0.00    -0.493 OA
ATOM     23  C   UNL     1       0.321  -0.008  -1.312  0.00  0.00    +0.277 C 
ENDBRANCH  19  22
ENDBRANCH  13  20
ENDBRANCH   1  13
BRANCH   1  24
ATOM     24  C   UNL     1       1.096   6.073   0.291  0.00  0.00    +0.319 C 
ATOM     25  F   UNL     1       0.112   5.426   1.046  0.00  0.00    -0.227 F 
BRANCH  24  26
ATOM     26  C   UNL     1       0.473   6.658  -0.951  0.00  0.00    +0.347 C 
ATOM     27  O   UNL     1       0.207   5.942  -1.887  0.00  0.00    -0.247 OA
BRANCH  26  28
ATOM     28  O   UNL     1       0.216   7.973  -1.017  0.00  0.00    -0.466 OA
ATOM     29  C   UNL     1      -0.384   8.466  -2.244  0.00  0.00    +0.280 C 
ENDBRANCH  26  28
ENDBRANCH  24  26
ENDBRANCH   1  24
TORSDOF 6
