REMARK  Name = ZINC38705492
REMARK  8 active torsions:
REMARK  status: ('A' for Active; 'I' for Inactive)
REMARK    1  A    between atoms: C_1  and  C_2
REMARK    2  A    between atoms: C_4  and  C_34
REMARK    3  A    between atoms: C_5  and  C_9
REMARK    4  A    between atoms: C_6  and  O_8
REMARK    5  A    between atoms: N_17  and  C_27
REMARK    6  A    between atoms: C_18  and  C_20
REMARK    7  A    between atoms: C_24  and  O_26
REMARK    8  A    between atoms: C_27  and  C_28
REMARK                            x       y       z     vdW  Elec       q    Type
REMARK                         _______ _______ _______ _____ _____    ______ ____
ROOT
ATOM      1  C   UNL     1       0.220  -4.519  -0.144  0.00  0.00    +0.102 A 
ATOM      2  C   UNL     1       0.246  -5.247   1.050  0.00  0.00    +0.035 A 
ATOM      3  C   UNL     1       0.193  -6.577   0.682  0.00  0.00    +0.126 A 
ATOM      4  N   UNL     1       0.140  -6.592  -0.683  0.00  0.00    -0.272 N 
ATOM      5  H   UNL     1       0.095  -7.391  -1.230  0.00  0.00    +0.189 HD
ATOM      6  N   UNL     1       0.150  -5.388  -1.134  0.00  0.00    -0.173 NA
ATOM      7  C   UNL     1       0.217  -7.399   1.897  0.00  0.00    +0.266 C 
ATOM      8  O   UNL     1       0.182  -8.615   1.914  0.00  0.00    -0.268 OA
ATOM      9  N   UNL     1       0.281  -6.617   2.990  0.00  0.00    -0.281 N 
ATOM     10  C   UNL     1       0.305  -5.216   2.553  0.00  0.00    +0.142 C 
ENDROOT
BRANCH   1  15
ATOM     11  C   UNL     1       0.367   1.220  -0.652  0.00  0.00    +0.044 C 
ATOM     12  C   UNL     1       0.326  -0.281  -0.517  0.00  0.00    -0.047 A 
ATOM     13  C   UNL     1       1.194  -1.063  -1.259  0.00  0.00    +0.007 A 
ATOM     14  C   UNL     1       1.163  -2.438  -1.142  0.00  0.00    -0.037 A 
ATOM     15  C   UNL     1       0.257  -3.041  -0.274  0.00  0.00    +0.047 A 
ATOM     16  C   UNL     1      -0.618  -2.249   0.474  0.00  0.00    +0.127 A 
ATOM     17  C   UNL     1      -0.574  -0.869   0.351  0.00  0.00    +0.049 A 
ATOM     18  C   UNL     1       2.110  -3.285  -1.952  0.00  0.00    +0.044 C 
BRANCH  16  19
ATOM     19  O   UNL     1      -1.506  -2.829   1.323  0.00  0.00    -0.506 OA
ATOM     20  H   UNL     1      -1.199  -2.881   2.239  0.00  0.00    +0.292 HD
ENDBRANCH  16  19
ENDBRANCH   1  15
BRANCH  10  21
ATOM     21  C   UNL     1       1.579  -4.551   3.008  0.00  0.00    -0.019 A 
ATOM     22  C   UNL     1       2.797  -5.168   2.787  0.00  0.00    +0.006 A 
ATOM     23  C   UNL     1       3.967  -4.561   3.204  0.00  0.00    +0.004 A 
ATOM     24  C   UNL     1       3.923  -3.337   3.841  0.00  0.00    +0.045 A 
ATOM     25  C   UNL     1       2.703  -2.716   4.064  0.00  0.00    +0.117 A 
ATOM     26  C   UNL     1       1.530  -3.324   3.640  0.00  0.00    +0.051 A 
BRANCH  25  27
ATOM     27  O   UNL     1       2.656  -1.511   4.691  0.00  0.00    -0.507 OA
ATOM     28  H   UNL     1       2.708  -0.753   4.092  0.00  0.00    +0.292 HD
ENDBRANCH  25  27
ENDBRANCH  10  21
BRANCH   9  29
ATOM     29  C   UNL     1       0.320  -7.085   4.378  0.00  0.00    +0.145 C 
BRANCH  29  30
ATOM     30  C   UNL     1       1.753  -7.286   4.800  0.00  0.00    -0.012 A 
ATOM     31  C   UNL     1       2.375  -8.511   4.612  0.00  0.00    +0.008 A 
ATOM     32  C   UNL     1       3.694  -8.650   5.015  0.00  0.00    +0.020 A 
ATOM     33  C   UNL     1       4.340  -7.571   5.588  0.00  0.00    +0.111 A 
ATOM     34  N   UNL     1       3.717  -6.421   5.752  0.00  0.00    -0.263 NA
ATOM     35  C   UNL     1       2.465  -6.250   5.375  0.00  0.00    +0.115 A 
ENDBRANCH  29  30
ENDBRANCH   9  29
TORSDOF 6
