REMARK  Name = ZINC63526702
REMARK  9 active torsions:
REMARK  status: ('A' for Active; 'I' for Inactive)
REMARK    1  A    between atoms: C_1  and  O_2
REMARK    2  A    between atoms: O_2  and  C_3
REMARK    3  A    between atoms: C_5  and  C_10
REMARK    4  A    between atoms: C_8  and  O_9
REMARK    5  A    between atoms: C_12  and  C_29
REMARK    6  A    between atoms: N_16  and  C_17
REMARK    7  A    between atoms: C_17  and  C_18
REMARK    8  A    between atoms: C_18  and  C_19
REMARK    9  A    between atoms: C_29  and  C_31
REMARK                            x       y       z     vdW  Elec       q    Type
REMARK                         _______ _______ _______ _____ _____    ______ ____
ROOT
ATOM      1  C   UNL     1      -4.810   0.204   0.235  0.00  0.00    +0.145 C 
ATOM      2  C   UNL     1      -5.581   0.060  -1.056  0.00  0.00    +0.076 C 
ATOM      3  C   UNL     1      -6.790  -0.455  -0.734  0.00  0.00    +0.249 C 
ATOM      4  C   UNL     1      -6.856  -0.661   0.729  0.00  0.00    +0.288 C 
ATOM      5  O   UNL     1      -7.812  -1.111   1.327  0.00  0.00    -0.266 OA
ATOM      6  N   UNL     1      -5.699  -0.276   1.300  0.00  0.00    -0.283 N 
ATOM      7  O   UNL     1      -7.782  -0.737  -1.610  0.00  0.00    -0.282 OA
ENDROOT
BRANCH   1  10
ATOM      8  C   UNL     1      -1.173  -0.795   0.013  0.00  0.00    +0.162 A 
ATOM      9  C   UNL     1      -2.324  -0.026   0.057  0.00  0.00    +0.055 A 
ATOM     10  C   UNL     1      -3.558  -0.635   0.188  0.00  0.00    -0.019 A 
ATOM     11  C   UNL     1      -3.647  -2.012   0.276  0.00  0.00    +0.009 A 
ATOM     12  C   UNL     1      -2.502  -2.786   0.234  0.00  0.00    +0.049 A 
ATOM     13  C   UNL     1      -1.263  -2.182   0.096  0.00  0.00    +0.158 A 
BRANCH   8  15
ATOM     14  C   UNL     1       0.069   1.230  -0.085  0.00  0.00    +0.277 C 
ATOM     15  O   UNL     1       0.042  -0.198  -0.116  0.00  0.00    -0.491 OA
ENDBRANCH   8  15
BRANCH  13  16
ATOM     16  O   UNL     1      -0.136  -2.942   0.048  0.00  0.00    -0.503 OA
ATOM     17  H   UNL     1       0.260  -3.113   0.914  0.00  0.00    +0.292 HD
ENDBRANCH  13  16
ENDBRANCH   1  10
BRANCH   2  18
ATOM     18  C   UNL     1      -5.110   0.410  -2.399  0.00  0.00    +0.195 C 
ATOM     19  O   UNL     1      -4.926  -0.462  -3.227  0.00  0.00    -0.287 OA
BRANCH  18  20
ATOM     20  C   UNL     1      -4.858   1.825  -2.748  0.00  0.00    +0.022 A 
ATOM     21  C   UNL     1      -4.981   2.820  -1.775  0.00  0.00    +0.013 A 
ATOM     22  C   UNL     1      -4.744   4.136  -2.107  0.00  0.00    +0.021 A 
ATOM     23  C   UNL     1      -4.385   4.474  -3.402  0.00  0.00    +0.041 A 
ATOM     24  C   UNL     1      -4.262   3.492  -4.371  0.00  0.00    +0.021 A 
ATOM     25  C   UNL     1      -4.490   2.171  -4.051  0.00  0.00    +0.013 A 
ATOM     26 CL   UNL     1      -4.090   6.135  -3.812  0.00  0.00    -0.084 Cl
ENDBRANCH  18  20
ENDBRANCH   2  18
BRANCH   6  27
ATOM     27  C   UNL     1      -5.382  -0.327   2.729  0.00  0.00    +0.113 C 
BRANCH  27  28
ATOM     28  C   UNL     1      -5.796   0.990   3.390  0.00  0.00    +0.052 C 
BRANCH  28  29
ATOM     29  C   UNL     1      -5.471   0.938   4.861  0.00  0.00    -0.040 C 
ATOM     30  C   UNL     1      -4.356   1.409   5.464  0.00  0.00    -0.001 A 
ATOM     31  C   UNL     1      -3.158   2.085   4.952  0.00  0.00    +0.010 A 
ATOM     32  C   UNL     1      -2.186   2.446   5.820  0.00  0.00    +0.001 A 
ATOM     33  C   UNL     1      -2.294   2.191   7.194  0.00  0.00    +0.002 A 
ATOM     34  C   UNL     1      -3.363   1.574   7.740  0.00  0.00    +0.026 A 
ATOM     35  C   UNL     1      -4.445   1.152   6.919  0.00  0.00    +0.043 A 
ATOM     36  N   UNL     1      -5.572   0.544   7.205  0.00  0.00    -0.380 N 
ATOM     37  C   UNL     1      -6.327   0.353   5.962  0.00  0.00    +0.144 C 
ATOM     38  H   UNL     1      -5.859   0.270   8.090  0.00  0.00    +0.160 HD
ENDBRANCH  28  29
ENDBRANCH  27  28
ENDBRANCH   6  27
TORSDOF 8
