REMARK  Name = ZINC13843150
REMARK  4 active torsions:
REMARK  status: ('A' for Active; 'I' for Inactive)
REMARK    1  A    between atoms: C_4  and  N_7
REMARK    2  A    between atoms: C_22  and  C_24
REMARK    3  A    between atoms: C_24  and  C_25
REMARK    4  A    between atoms: N_27  and  C_28
REMARK                            x       y       z     vdW  Elec       q    Type
REMARK                         _______ _______ _______ _____ _____    ______ ____
ROOT
ATOM      1  N   UNL     1      -0.794   0.235  -2.794  0.00  0.00    -0.269 N 
ATOM      2  C   UNL     1      -0.108   0.058  -1.648  0.00  0.00    +0.307 C 
ATOM      3  O   UNL     1      -0.699  -0.209  -0.620  0.00  0.00    -0.252 OA
ATOM      4  N   UNL     1       1.235   0.178  -1.641  0.00  0.00    -0.269 N 
ATOM      5  C   UNL     1       2.002   0.343  -2.893  0.00  0.00    +0.099 C 
ATOM      6  C   UNL     1       3.038  -0.783  -2.962  0.00  0.00    +0.024 C 
ATOM      7  C   UNL     1       3.944  -0.583  -4.177  0.00  0.00    +0.002 C 
ATOM      8  C   UNL     1       4.679   0.753  -4.040  0.00  0.00    +0.002 C 
ATOM      9  C   UNL     1       3.652   1.886  -4.000  0.00  0.00    +0.024 C 
ATOM     10  C   UNL     1       2.707   1.695  -2.822  0.00  0.00    +0.093 C 
ATOM     11  N   UNL     1       3.393   1.865  -1.553  0.00  0.00    -0.309 N 
ATOM     12  C   UNL     1       3.066   1.212  -0.434  0.00  0.00    +0.234 C 
ATOM     13  O   UNL     1       3.652   1.490   0.591  0.00  0.00    -0.274 OA
ATOM     14  C   UNL     1       2.003   0.149  -0.387  0.00  0.00    +0.172 C 
ATOM     15  H   UNL     1      -0.318   0.357  -3.630  0.00  0.00    +0.156 HD
ATOM     16  H   UNL     1       4.134   2.489  -1.516  0.00  0.00    +0.149 HD
ENDROOT
BRANCH   1  20
ATOM     17  C   UNL     1      -4.960   0.257  -2.744  0.00  0.00    +0.000 A 
ATOM     18  C   UNL     1      -4.286  -0.290  -3.820  0.00  0.00    +0.002 A 
ATOM     19  C   UNL     1      -2.905  -0.299  -3.840  0.00  0.00    +0.023 A 
ATOM     20  C   UNL     1      -2.193   0.243  -2.777  0.00  0.00    +0.035 A 
ATOM     21  C   UNL     1      -2.873   0.787  -1.696  0.00  0.00    +0.023 A 
ATOM     22  C   UNL     1      -4.255   0.798  -1.685  0.00  0.00    +0.002 A 
ENDBRANCH   1  20
BRANCH  14  23
ATOM     23  C   UNL     1       1.065   0.415   0.792  0.00  0.00    +0.128 C 
BRANCH  23  24
ATOM     24  C   UNL     1       0.403  -0.873   1.207  0.00  0.00    +0.219 C 
ATOM     25  O   UNL     1       0.670  -1.906   0.631  0.00  0.00    -0.275 OA
ATOM     26  N   UNL     1      -0.492  -0.876   2.215  0.00  0.00    -0.285 N 
ATOM     27  H   UNL     1      -0.767  -0.040   2.622  0.00  0.00    +0.155 HD
BRANCH  26  28
ATOM     28  C   UNL     1      -1.024  -2.087   2.675  0.00  0.00    +0.033 A 
ATOM     29  C   UNL     1      -0.234  -3.228   2.701  0.00  0.00    +0.025 A 
ATOM     30  C   UNL     1      -0.760  -4.420   3.159  0.00  0.00    +0.022 A 
ATOM     31  C   UNL     1      -2.077  -4.480   3.583  0.00  0.00    +0.041 A 
ATOM     32  C   UNL     1      -2.867  -3.344   3.553  0.00  0.00    +0.022 A 
ATOM     33  C   UNL     1      -2.345  -2.149   3.100  0.00  0.00    +0.025 A 
ATOM     34 CL   UNL     1      -2.737  -5.981   4.152  0.00  0.00    -0.084 Cl
ENDBRANCH  26  28
ENDBRANCH  23  24
ENDBRANCH  14  23
TORSDOF 4
