REMARK  Name = ZINC64717887
REMARK  9 active torsions:
REMARK  status: ('A' for Active; 'I' for Inactive)
REMARK    1  A    between atoms: C_1  and  C_2
REMARK    2  A    between atoms: C_2  and  C_31
REMARK    3  A    between atoms: C_7  and  O_30
REMARK    4  A    between atoms: C_9  and  O_13
REMARK    5  A    between atoms: O_13  and  C_14
REMARK    6  A    between atoms: C_14  and  C_15
REMARK    7  A    between atoms: N_17  and  C_18
REMARK    8  A    between atoms: C_18  and  C_19
REMARK    9  A    between atoms: C_19  and  C_20
REMARK                            x       y       z     vdW  Elec       q    Type
REMARK                         _______ _______ _______ _____ _____    ______ ____
ROOT
ATOM      1  C   UNL     1       5.992   0.192   3.884  0.00  0.00    +0.324 C 
ENDROOT
BRANCH   1   2
ATOM      2  C   UNL     1       6.462   0.141   5.315  0.00  0.00    +0.251 C 
ATOM      3  O   UNL     1       5.669  -0.076   6.207  0.00  0.00    -0.272 OA
ATOM      4  N   UNL     1       7.764   0.338   5.604  0.00  0.00    -0.312 N 
ATOM      5  H   UNL     1       8.398   0.512   4.891  0.00  0.00    +0.149 HD
BRANCH   4   6
ATOM      6  C   UNL     1       8.221   0.288   6.995  0.00  0.00    +0.108 C 
BRANCH   6   7
ATOM      7  C   UNL     1       9.729   0.542   7.046  0.00  0.00    +0.052 C 
BRANCH   7   8
ATOM      8  C   UNL     1      10.199   0.491   8.477  0.00  0.00    -0.040 C 
ATOM      9  C   UNL     1      10.727  -0.574   9.122  0.00  0.00    +0.002 A 
ATOM     10  C   UNL     1      11.009  -1.952   8.700  0.00  0.00    +0.048 A 
ATOM     11  C   UNL     1      11.553  -2.813   9.592  0.00  0.00    +0.124 A 
ATOM     12  C   UNL     1      11.852  -2.421  10.907  0.00  0.00    +0.040 A 
ATOM     13  C   UNL     1      11.620  -1.173  11.366  0.00  0.00    +0.029 A 
ATOM     14  C   UNL     1      11.052  -0.187  10.513  0.00  0.00    +0.043 A 
ATOM     15  N   UNL     1      10.737   1.069  10.720  0.00  0.00    -0.380 N 
ATOM     16  C   UNL     1      10.182   1.622   9.480  0.00  0.00    +0.144 C 
ATOM     17  F   UNL     1      11.815  -4.081   9.208  0.00  0.00    -0.205 F 
ATOM     18  H   UNL     1      10.855   1.552  11.553  0.00  0.00    +0.160 HD
ENDBRANCH   7   8
ENDBRANCH   6   7
ENDBRANCH   4   6
ENDBRANCH   1   2
BRANCH   1  19
ATOM     19  O   UNL     1       4.584  -0.045   3.837  0.00  0.00    -0.483 OA
BRANCH  19  28
ATOM     20  C   UNL     1      -0.019   1.526   0.010  0.00  0.00    +0.056 C 
ATOM     21  C   UNL     1       0.002  -0.004   0.002  0.00  0.00    +0.112 C 
ATOM     22  C   UNL     1       0.724  -0.500  -1.260  0.00  0.00    +0.127 C 
ATOM     23  C   UNL     1       2.147   0.026  -1.199  0.00  0.00    +0.174 C 
ATOM     24  O   UNL     1       2.715   0.445  -2.186  0.00  0.00    -0.292 OA
ATOM     25  C   UNL     1       2.800   0.001   0.115  0.00  0.00    +0.101 A 
ATOM     26  C   UNL     1       4.182   0.221   0.232  0.00  0.00    +0.134 A 
ATOM     27  C   UNL     1       4.771   0.203   1.483  0.00  0.00    +0.092 A 
ATOM     28  C   UNL     1       3.998  -0.033   2.613  0.00  0.00    +0.128 A 
ATOM     29  C   UNL     1       2.632  -0.257   2.503  0.00  0.00    +0.092 A 
ATOM     30  C   UNL     1       2.022  -0.246   1.261  0.00  0.00    +0.139 A 
ATOM     31  O   UNL     1       0.692  -0.477   1.158  0.00  0.00    -0.485 OA
ATOM     32  C   UNL     1      -1.433  -0.534   0.011  0.00  0.00    +0.056 C 
BRANCH  26  33
ATOM     33  O   UNL     1       4.933   0.449  -0.874  0.00  0.00    -0.506 OA
ATOM     34  H   UNL     1       5.006   1.383  -1.114  0.00  0.00    +0.292 HD
ENDBRANCH  26  33
ENDBRANCH  19  28
ENDBRANCH   1  19
TORSDOF 7
