REMARK  Name = ZINC17466808
REMARK  8 active torsions:
REMARK  status: ('A' for Active; 'I' for Inactive)
REMARK    1  A    between atoms: C_1  and  C_2
REMARK    2  A    between atoms: C_2  and  O_3
REMARK    3  A    between atoms: O_3  and  C_4
REMARK    4  A    between atoms: C_4  and  C_6
REMARK    5  A    between atoms: C_6  and  C_31
REMARK    6  A    between atoms: C_11  and  C_28
REMARK    7  A    between atoms: C_14  and  C_25
REMARK    8  A    between atoms: C_16  and  C_18
REMARK                            x       y       z     vdW  Elec       q    Type
REMARK                         _______ _______ _______ _____ _____    ______ ____
ROOT
ATOM      1  C   UNL     1      -2.630   3.870  -0.906  0.00  0.00    +0.184 C 
ATOM      2  C   UNL     1      -1.670   3.171   0.073  0.00  0.00    +0.128 C 
ATOM      3  C   UNL     1      -1.867   1.676   0.047  0.00  0.00    -0.002 C 
ATOM      4  C   UNL     1      -0.808   0.886   0.210  0.00  0.00    +0.012 C 
ATOM      5  C   UNL     1       0.544   1.448   0.408  0.00  0.00    +0.050 C 
ATOM      6  C   UNL     1       0.783   2.756   0.054  0.00  0.00    +0.084 C 
ATOM      7  N   UNL     1      -0.304   3.435  -0.424  0.00  0.00    -0.314 N 
ATOM      8  C   UNL     1      -0.361   4.428  -1.497  0.00  0.00    +0.169 C 
ATOM      9  C   UNL     1      -1.771   5.064  -1.408  0.00  0.00    +0.084 C 
ENDROOT
BRANCH   9  10
ATOM     10  C   UNL     1      -1.789   6.196  -0.413  0.00  0.00    -0.005 A 
ATOM     11  C   UNL     1      -1.335   5.991   0.876  0.00  0.00    +0.007 A 
ATOM     12  C   UNL     1      -1.352   7.029   1.789  0.00  0.00    +0.000 A 
ATOM     13  C   UNL     1      -1.822   8.274   1.413  0.00  0.00    +0.003 A 
ATOM     14  C   UNL     1      -2.277   8.481   0.125  0.00  0.00    +0.038 A 
ATOM     15  C   UNL     1      -2.256   7.443  -0.792  0.00  0.00    +0.127 A 
ATOM     16  F   UNL     1      -2.695   7.646  -2.053  0.00  0.00    -0.205 F 
ENDBRANCH   9  10
BRANCH   8  17
ATOM     17  C   UNL     1      -0.175   3.760  -2.835  0.00  0.00    +0.232 C 
ATOM     18  O   UNL     1      -0.345   2.564  -2.944  0.00  0.00    -0.274 OA
ATOM     19  N   UNL     1       0.180   4.492  -3.910  0.00  0.00    -0.328 N 
ATOM     20  H   UNL     1       0.316   5.448  -3.823  0.00  0.00    +0.145 HD
ATOM     21  H   UNL     1       0.299   4.061  -4.771  0.00  0.00    +0.145 HD
ENDBRANCH   8  17
BRANCH   5  22
ATOM     22  C   UNL     1       1.616   0.624   0.975  0.00  0.00    +0.243 C 
ATOM     23  O   UNL     1       2.727   1.096   1.135  0.00  0.00    -0.270 OA
ATOM     24  N   UNL     1       1.372  -0.656   1.319  0.00  0.00    -0.325 N 
ATOM     25  H   UNL     1       0.487  -1.032   1.192  0.00  0.00    +0.145 HD
ATOM     26  H   UNL     1       2.081  -1.201   1.694  0.00  0.00    +0.145 HD
ENDBRANCH   5  22
BRANCH   1  27
ATOM     27  C   UNL     1      -3.866   4.358  -0.196  0.00  0.00    +0.330 C 
ATOM     28  O   UNL     1      -4.071   5.543  -0.085  0.00  0.00    -0.249 OA
BRANCH  27  29
ATOM     29  O   UNL     1      -4.740   3.476   0.313  0.00  0.00    -0.464 OA
BRANCH  29  31
ATOM     30  C   UNL     1      -6.783   2.869   1.493  0.00  0.00    +0.048 C 
ATOM     31  C   UNL     1      -5.909   4.017   0.983  0.00  0.00    +0.229 C 
ENDBRANCH  29  31
ENDBRANCH  27  29
ENDBRANCH   1  27
BRANCH   1  32
ATOM     32  C   UNL     1      -2.986   2.975  -2.020  0.00  0.00    +0.084 C 
ATOM     33  N   UNL     1      -3.260   2.285  -2.879  0.00  0.00    -0.195 NA
ENDBRANCH   1  32
TORSDOF 7
