REMARK  Name = ZINC12082395
REMARK  6 active torsions:
REMARK  status: ('A' for Active; 'I' for Inactive)
REMARK    1  A    between atoms: C_1  and  C_2
REMARK    2  A    between atoms: N_12  and  N_13
REMARK    3  A    between atoms: C_14  and  C_16
REMARK    4  A    between atoms: C_16  and  C_18
REMARK    5  A    between atoms: C_16  and  N_19
REMARK    6  A    between atoms: C_29  and  C_30
REMARK                            x       y       z     vdW  Elec       q    Type
REMARK                         _______ _______ _______ _____ _____    ______ ____
ROOT
ATOM      1  C   UNL     1      -0.463  -7.590   1.196  0.00  0.00    +0.176 C 
ATOM      2  C   UNL     1      -1.554  -7.875   0.162  0.00  0.00    +0.041 C 
ENDROOT
BRANCH   1   3
ATOM      3  N   UNL     1      -0.414  -8.685   2.168  0.00  0.00    -0.280 N 
ATOM      4  C   UNL     1      -1.490  -8.943   2.947  0.00  0.00    +0.263 A 
ATOM      5  O   UNL     1      -2.507  -8.279   2.859  0.00  0.00    -0.267 OA
ATOM      6  C   UNL     1      -1.385 -10.053   3.905  0.00  0.00    +0.065 A 
ATOM      7  C   UNL     1      -2.438 -10.398   4.751  0.00  0.00    +0.015 A 
ATOM      8  C   UNL     1      -2.284 -11.449   5.628  0.00  0.00    +0.001 A 
ATOM      9  C   UNL     1      -1.093 -12.163   5.675  0.00  0.00    +0.002 A 
ATOM     10  C   UNL     1      -0.049 -11.842   4.854  0.00  0.00    +0.028 A 
ATOM     11  C   UNL     1      -0.174 -10.781   3.953  0.00  0.00    +0.079 A 
ATOM     12  N   UNL     1       0.834 -10.435   3.127  0.00  0.00    -0.229 NA
ATOM     13  C   UNL     1       0.718  -9.446   2.279  0.00  0.00    +0.145 A 
BRANCH  13  14
ATOM     14  C   UNL     1       1.866  -9.131   1.403  0.00  0.00    +0.018 A 
ATOM     15  C   UNL     1       3.139  -8.960   1.950  0.00  0.00    +0.011 A 
ATOM     16  C   UNL     1       4.206  -8.666   1.126  0.00  0.00    +0.001 A 
ATOM     17  C   UNL     1       4.018  -8.542  -0.239  0.00  0.00    +0.000 A 
ATOM     18  C   UNL     1       2.759  -8.711  -0.787  0.00  0.00    +0.001 A 
ATOM     19  C   UNL     1       1.684  -9.010   0.024  0.00  0.00    +0.011 A 
ENDBRANCH  13  14
ENDBRANCH   1   3
BRANCH   1  21
ATOM     20  N   UNL     1      -0.868  -5.150   1.212  0.00  0.00    -0.205 N 
ATOM     21  C   UNL     1      -0.773  -6.299   1.910  0.00  0.00    +0.255 C 
ATOM     22  O   UNL     1      -0.936  -6.295   3.111  0.00  0.00    -0.272 OA
ATOM     23  H   UNL     1      -0.738  -5.154   0.251  0.00  0.00    +0.177 HD
BRANCH  20  35
ATOM     24  C   UNL     1      -1.548   0.626  -2.125  0.00  0.00    +0.045 C 
ATOM     25  C   UNL     1      -1.238  -0.817  -1.820  0.00  0.00    -0.029 A 
ATOM     26  C   UNL     1      -0.824  -1.661  -2.832  0.00  0.00    +0.005 A 
ATOM     27  C   UNL     1      -0.534  -2.989  -2.567  0.00  0.00    +0.001 A 
ATOM     28  C   UNL     1      -0.659  -3.482  -1.283  0.00  0.00    +0.012 A 
ATOM     29  C   UNL     1      -1.075  -2.639  -0.259  0.00  0.00    +0.028 A 
ATOM     30  C   UNL     1      -1.363  -1.294  -0.520  0.00  0.00    +0.046 A 
ATOM     31  N   UNL     1      -1.748  -0.668   0.660  0.00  0.00    -0.279 N 
ATOM     32  C   UNL     1      -1.728  -1.521   1.698  0.00  0.00    +0.269 C 
ATOM     33  O   UNL     1      -2.017  -1.255   2.850  0.00  0.00    -0.268 OA
ATOM     34  C   UNL     1      -1.305  -2.842   1.190  0.00  0.00    +0.153 C 
ATOM     35  N   UNL     1      -1.156  -3.950   1.875  0.00  0.00    -0.174 NA
ATOM     36  H   UNL     1      -2.000   0.267   0.726  0.00  0.00    +0.155 HD
ENDBRANCH  20  35
ENDBRANCH   1  21
TORSDOF 4
