REMARK  Name = ZINC55913488
REMARK  8 active torsions:
REMARK  status: ('A' for Active; 'I' for Inactive)
REMARK    1  A    between atoms: C_1  and  C_2
REMARK    2  A    between atoms: C_2  and  C_4
REMARK    3  A    between atoms: C_2  and  N_17
REMARK    4  A    between atoms: N_9  and  C_10
REMARK    5  A    between atoms: C_10  and  C_11
REMARK    6  A    between atoms: C_11  and  C_12
REMARK    7  A    between atoms: C_20  and  C_23
REMARK    8  A    between atoms: N_25  and  C_26
REMARK                            x       y       z     vdW  Elec       q    Type
REMARK                         _______ _______ _______ _____ _____    ______ ____
ROOT
ATOM      1  C   UNL     1       0.630   1.331  -0.404  0.00  0.00    -0.004 C 
ATOM      2  C   UNL     1       0.002  -0.004   0.002  0.00  0.00    +0.017 C 
ENDROOT
BRANCH   2   3
ATOM      3  C   UNL     1       0.796  -0.610   1.130  0.00  0.00    +0.207 C 
ATOM      4  O   UNL     1       1.696  -1.387   0.889  0.00  0.00    -0.277 OA
ATOM      5  N   UNL     1       0.507  -0.289   2.407  0.00  0.00    -0.242 N 
ATOM      6  C   UNL     1       1.218  -0.831   3.416  0.00  0.00    +0.306 C 
ATOM      7  O   UNL     1       2.119  -1.609   3.174  0.00  0.00    -0.252 OA
ATOM      8  N   UNL     1       0.928  -0.510   4.692  0.00  0.00    -0.299 N 
ATOM      9  H   UNL     1      -0.212   0.332   2.599  0.00  0.00    +0.159 HD
ATOM     10  H   UNL     1       0.209   0.112   4.885  0.00  0.00    +0.150 HD
BRANCH   8  11
ATOM     11  C   UNL     1       1.700  -1.099   5.789  0.00  0.00    +0.111 C 
BRANCH  11  12
ATOM     12  C   UNL     1       1.173  -0.572   7.125  0.00  0.00    +0.061 C 
BRANCH  12  13
ATOM     13  C   UNL     1       1.967  -1.178   8.253  0.00  0.00    -0.009 A 
ATOM     14  C   UNL     1       3.094  -0.716   8.848  0.00  0.00    +0.011 A 
ATOM     15  C   UNL     1       3.656  -1.447   9.877  0.00  0.00    +0.008 A 
ATOM     16  C   UNL     1       3.064  -2.604  10.262  0.00  0.00    +0.045 A 
ATOM     17  S   UNL     1       1.664  -2.687   9.158  0.00  0.00    -0.102 S 
ENDBRANCH  12  13
ENDBRANCH  11  12
ENDBRANCH   8  11
ENDBRANCH   2   3
BRANCH   2  18
ATOM     18  N   UNL     1       0.009  -0.918  -1.148  0.00  0.00    +0.387 N 
ATOM     19  C   UNL     1      -0.619  -2.189  -0.764  0.00  0.00    -0.077 C 
ATOM     20  C   UNL     1      -0.542  -3.173  -1.933  0.00  0.00    -0.006 C 
ATOM     21  C   UNL     1      -1.278  -2.583  -3.140  0.00  0.00    +0.071 C 
ATOM     22  C   UNL     1      -0.663  -1.223  -3.485  0.00  0.00    -0.006 C 
ATOM     23  C   UNL     1      -0.735  -0.311  -2.258  0.00  0.00    -0.077 C 
ATOM     24  H   UNL     1       0.961  -1.089  -1.435  0.00  0.00    -0.081 HD
BRANCH  21  25
ATOM     25  C   UNL     1      -1.140  -3.512  -4.318  0.00  0.00    +0.216 C 
ATOM     26  O   UNL     1      -0.514  -4.545  -4.206  0.00  0.00    -0.276 OA
ATOM     27  N   UNL     1      -1.711  -3.194  -5.497  0.00  0.00    -0.312 N 
ATOM     28  H   UNL     1      -2.211  -2.368  -5.587  0.00  0.00    +0.149 HD
BRANCH  27  29
ATOM     29  C   UNL     1      -1.577  -4.097  -6.643  0.00  0.00    +0.073 C 
ATOM     30  C   UNL     1      -1.263  -3.471  -8.003  0.00  0.00    +0.024 C 
ATOM     31  C   UNL     1      -2.658  -4.033  -7.723  0.00  0.00    +0.024 C 
ENDBRANCH  27  29
ENDBRANCH  21  25
ENDBRANCH   2  18
TORSDOF 7
