REMARK  Name = ZINC39661638
REMARK  9 active torsions:
REMARK  status: ('A' for Active; 'I' for Inactive)
REMARK    1  A    between atoms: C_1  and  O_2
REMARK    2  A    between atoms: O_2  and  C_3
REMARK    3  A    between atoms: C_6  and  C_11
REMARK    4  A    between atoms: C_7  and  O_9
REMARK    5  A    between atoms: O_9  and  C_10
REMARK    6  A    between atoms: C_11  and  N_12
REMARK    7  A    between atoms: C_13  and  C_15
REMARK    8  A    between atoms: C_26  and  C_28
REMARK    9  A    between atoms: C_31  and  C_33
REMARK                            x       y       z     vdW  Elec       q    Type
REMARK                         _______ _______ _______ _____ _____    ______ ____
ROOT
ATOM      1  C   UNL     1       0.811  -4.005  -7.471  0.00  0.00    +0.100 C 
ATOM      2  C   UNL     1      -0.033  -5.154  -6.875  0.00  0.00    +0.121 C 
ATOM      3  N   UNL     1      -0.292  -6.061  -8.018  0.00  0.00    -0.294 N 
ATOM      4  C   UNL     1       0.981  -6.069  -8.777  0.00  0.00    +0.115 C 
ATOM      5  C   UNL     1       1.475  -4.610  -8.719  0.00  0.00    -0.004 C 
ATOM      6  C   UNL     1       2.994  -4.573  -8.580  0.00  0.00    -0.010 C 
ATOM      7  C   UNL     1       3.633  -5.125  -9.857  0.00  0.00    -0.082 C 
ATOM      8  N   UNL     1       3.208  -4.319 -11.008  0.00  0.00    +0.379 N 
ATOM      9  C   UNL     1       1.756  -4.436 -11.191  0.00  0.00    -0.082 C 
ATOM     10  C   UNL     1       1.038  -3.854  -9.970  0.00  0.00    -0.010 C 
ATOM     11  C   UNL     1      -1.428  -6.727  -8.303  0.00  0.00    +0.282 C 
ATOM     12  O   UNL     1      -1.484  -7.441  -9.287  0.00  0.00    -0.267 OA
ATOM     13  H   UNL     1       3.449  -3.353 -10.847  0.00  0.00    -0.086 HD
ATOM     14  H   UNL     1       3.678  -4.647 -11.838  0.00  0.00    -0.086 HD
ENDROOT
BRANCH  11  15
ATOM     15  C   UNL     1      -2.595  -6.593  -7.427  0.00  0.00    +0.190 A 
ATOM     16  C   UNL     1      -3.810  -7.219  -7.598  0.00  0.00    +0.055 A 
ATOM     17  C   UNL     1      -4.627  -6.810  -6.539  0.00  0.00    +0.050 A 
ATOM     18  C   UNL     1      -3.889  -5.957  -5.769  0.00  0.00    +0.136 A 
ATOM     19  O   UNL     1      -2.665  -5.839  -6.310  0.00  0.00    -0.450 OA
BRANCH  18  20
ATOM     20  C   UNL     1      -4.356  -5.283  -4.541  0.00  0.00    +0.017 A 
ATOM     21  C   UNL     1      -5.655  -5.499  -4.074  0.00  0.00    +0.014 A 
ATOM     22  C   UNL     1      -6.086  -4.866  -2.927  0.00  0.00    +0.039 A 
ATOM     23  C   UNL     1      -5.233  -4.018  -2.238  0.00  0.00    +0.123 A 
ATOM     24  C   UNL     1      -3.944  -3.799  -2.698  0.00  0.00    +0.039 A 
ATOM     25  C   UNL     1      -3.500  -4.431  -3.840  0.00  0.00    +0.014 A 
ATOM     26  F   UNL     1      -5.661  -3.401  -1.115  0.00  0.00    -0.205 F 
ENDBRANCH  18  20
ENDBRANCH  11  15
BRANCH   1  28
ATOM     27  N   UNL     1       2.301  -2.283  -6.505  0.00  0.00    -0.311 N 
ATOM     28  C   UNL     1       1.857  -3.555  -6.485  0.00  0.00    +0.218 C 
ATOM     29  O   UNL     1       2.301  -4.339  -5.673  0.00  0.00    -0.275 OA
ATOM     30  H   UNL     1       1.946  -1.656  -7.155  0.00  0.00    +0.149 HD
BRANCH  27  31
ATOM     31  C   UNL     1       3.318  -1.846  -5.546  0.00  0.00    +0.143 C 
BRANCH  31  35
ATOM     32  C   UNL     1       4.222   2.281  -6.209  0.00  0.00    +0.124 A 
ATOM     33  C   UNL     1       5.062   1.295  -6.706  0.00  0.00    +0.046 A 
ATOM     34  C   UNL     1       4.768  -0.038  -6.490  0.00  0.00    +0.012 A 
ATOM     35  C   UNL     1       3.637  -0.392  -5.779  0.00  0.00    +0.011 A 
ATOM     36  C   UNL     1       2.794   0.591  -5.281  0.00  0.00    +0.128 A 
ATOM     37  C   UNL     1       3.090   1.929  -5.491  0.00  0.00    +0.091 A 
BRANCH  32  39
ATOM     38  C   UNL     1       5.694   3.882  -7.171  0.00  0.00    +0.277 C 
ATOM     39  O   UNL     1       4.512   3.592  -6.422  0.00  0.00    -0.495 OA
ENDBRANCH  32  39
BRANCH  36  40
ATOM     40  O   UNL     1       1.682   0.243  -4.582  0.00  0.00    -0.495 OA
ATOM     41  C   UNL     1       0.860   1.307  -4.098  0.00  0.00    +0.277 C 
ENDBRANCH  36  40
ENDBRANCH  31  35
ENDBRANCH  27  31
ENDBRANCH   1  28
TORSDOF 7
