REMARK  Name = ZINC01109669
REMARK  6 active torsions:
REMARK  status: ('A' for Active; 'I' for Inactive)
REMARK    1  A    between atoms: C_2  and  C_3
REMARK    2  A    between atoms: C_3  and  N_4
REMARK    3  A    between atoms: C_11  and  C_14
REMARK    4  A    between atoms: C_11  and  O_23
REMARK    5  A    between atoms: C_14  and  C_15
REMARK    6  A    between atoms: C_15  and  C_17
REMARK                            x       y       z     vdW  Elec       q    Type
REMARK                         _______ _______ _______ _____ _____    ______ ____
ROOT
ATOM      1  N   UNL     1      -0.016   1.339   0.009  0.00  0.00    -0.265 N 
ATOM      2  C   UNL     1       1.268   1.885   0.000  0.00  0.00    +0.043 A 
ATOM      3  C   UNL     1       1.694   3.212   0.003  0.00  0.00    +0.025 A 
ATOM      4  C   UNL     1       3.042   3.507  -0.009  0.00  0.00    +0.017 A 
ATOM      5  C   UNL     1       3.980   2.490  -0.023  0.00  0.00    +0.018 A 
ATOM      6  C   UNL     1       3.564   1.170  -0.026  0.00  0.00    +0.024 A 
ATOM      7  C   UNL     1       2.220   0.874  -0.014  0.00  0.00    +0.016 A 
ATOM      8  C   UNL     1       1.455  -0.430  -0.014  0.00  0.00    +0.176 C 
ATOM      9  C   UNL     1       0.002  -0.004   0.002  0.00  0.00    +0.257 C 
ATOM     10  O   UNL     1      -0.964  -0.738   0.008  0.00  0.00    -0.272 OA
ATOM     11 BR   UNL     1       5.826   2.904  -0.040  0.00  0.00    -0.050 Br
ENDROOT
BRANCH   8  12
ATOM     12  O   UNL     1       1.743  -1.183  -1.194  0.00  0.00    -0.374 OA
ATOM     13  H   UNL     1       1.234  -2.001  -1.272  0.00  0.00    +0.211 HD
ENDBRANCH   8  12
BRANCH   1  14
ATOM     14  C   UNL     1      -1.243   2.139   0.020  0.00  0.00    +0.140 C 
BRANCH  14  16
ATOM     15  C   UNL     1      -1.844   3.637   1.852  0.00  0.00    +0.005 C 
ATOM     16  C   UNL     1      -1.657   2.407   1.444  0.00  0.00    -0.015 C 
ENDBRANCH  14  16
ENDBRANCH   1  14
BRANCH   8  17
ATOM     17  C   UNL     1       1.788  -1.247   1.236  0.00  0.00    +0.129 C 
BRANCH  17  18
ATOM     18  C   UNL     1       0.943  -2.494   1.261  0.00  0.00    +0.173 C 
ATOM     19  O   UNL     1       0.151  -2.709   0.365  0.00  0.00    -0.291 OA
BRANCH  18  20
ATOM     20  C   UNL     1       1.072  -3.413   2.324  0.00  0.00    +0.056 A 
ATOM     21  C   UNL     1       0.396  -4.611   2.535  0.00  0.00    +0.020 A 
ATOM     22  C   UNL     1       0.718  -5.317   3.663  0.00  0.00    +0.028 A 
ATOM     23  C   UNL     1       1.667  -4.824   4.508  0.00  0.00    +0.079 A 
ATOM     24  S   UNL     1       2.150  -3.345   3.744  0.00  0.00    -0.074 S 
ATOM     25 CL   UNL     1       2.255  -5.514   5.989  0.00  0.00    -0.076 Cl
ENDBRANCH  18  20
ENDBRANCH  17  18
ENDBRANCH   8  17
TORSDOF 6
