REMARK  Name = ZINC13467384
REMARK  10 active torsions:
REMARK  status: ('A' for Active; 'I' for Inactive)
REMARK    1  A    between atoms: C_1  and  C_2
REMARK    2  A    between atoms: C_2  and  O_4
REMARK    3  A    between atoms: O_4  and  C_5
REMARK    4  A    between atoms: C_9  and  C_35
REMARK    5  A    between atoms: C_14  and  C_34
REMARK    6  A    between atoms: C_20  and  O_25
REMARK    7  A    between atoms: C_22  and  O_24
REMARK    8  A    between atoms: C_28  and  O_30
REMARK    9  A    between atoms: O_30  and  C_31
REMARK   10  A    between atoms: C_31  and  C_33
REMARK                            x       y       z     vdW  Elec       q    Type
REMARK                         _______ _______ _______ _____ _____    ______ ____
ROOT
ATOM      1  C   UNL     1      -2.464   3.161   2.994  0.00  0.00    +0.179 C 
ATOM      2  C   UNL     1      -1.883   1.765   3.183  0.00  0.00    +0.045 C 
ATOM      3  C   UNL     1      -0.866   1.421   2.100  0.00  0.00    +0.013 C 
ATOM      4  C   UNL     1      -1.501   1.568   0.708  0.00  0.00    +0.002 C 
ATOM      5  C   UNL     1      -0.505   1.137  -0.358  0.00  0.00    +0.001 C 
ATOM      6  C   UNL     1       0.908   1.619  -0.072  0.00  0.00    +0.005 C 
ATOM      7  C   UNL     1       1.894   1.031  -1.099  0.00  0.00    +0.011 C 
ATOM      8  C   UNL     1       1.480   1.493  -2.477  0.00  0.00    +0.008 C 
ATOM      9  C   UNL     1       0.037   1.036  -2.763  0.00  0.00    +0.002 C 
ATOM     10  C   UNL     1      -0.973   1.516  -1.766  0.00  0.00    -0.001 C 
ATOM     11  C   UNL     1      -1.320   2.990  -1.866  0.00  0.00    +0.038 C 
ATOM     12  C   UNL     1      -2.434   3.322  -0.862  0.00  0.00    +0.147 C 
ATOM     13  C   UNL     1      -1.932   3.019   0.545  0.00  0.00    +0.101 C 
ATOM     14  C   UNL     1      -2.999   3.371   1.581  0.00  0.00    +0.082 C 
ATOM     15  C   UNL     1      -0.127   1.432  -4.234  0.00  0.00    +0.008 C 
ATOM     16  C   UNL     1       1.229   0.973  -4.844  0.00  0.00    +0.045 C 
ATOM     17  C   UNL     1       2.219   0.832  -3.657  0.00  0.00    +0.183 C 
ATOM     18  C   UNL     1       1.683   3.000  -2.619  0.00  0.00    +0.015 C 
ATOM     19  C   UNL     1      -2.710   0.624   0.643  0.00  0.00    +0.014 C 
ENDROOT
BRANCH  13  20
ATOM     20  O   UNL     1      -0.790   3.866   0.789  0.00  0.00    -0.385 OA
ATOM     21  H   UNL     1      -0.983   4.812   0.734  0.00  0.00    +0.210 HD
ENDBRANCH  13  20
BRANCH  12  22
ATOM     22  O   UNL     1      -3.620   2.610  -1.180  0.00  0.00    -0.389 OA
ATOM     23  H   UNL     1      -3.973   2.806  -2.059  0.00  0.00    +0.210 HD
ENDBRANCH  12  22
BRANCH   1  24
ATOM     24  O   UNL     1      -1.459   4.162   3.304  0.00  0.00    -0.461 OA
BRANCH  24  26
ATOM     25  C   UNL     1      -0.319   5.563   4.987  0.00  0.00    +0.136 C 
ATOM     26  C   UNL     1      -1.340   4.529   4.590  0.00  0.00    +0.304 C 
ATOM     27  O   UNL     1      -2.052   4.029   5.429  0.00  0.00    -0.251 OA
ENDBRANCH  24  26
ENDBRANCH   1  24
BRANCH  17  28
ATOM     28  O   UNL     1       2.472  -0.564  -3.368  0.00  0.00    -0.461 OA
BRANCH  28  29
ATOM     29  C   UNL     1       3.566  -1.112  -3.919  0.00  0.00    +0.304 C 
ATOM     30  O   UNL     1       4.288  -0.445  -4.621  0.00  0.00    -0.251 OA
ATOM     31  C   UNL     1       3.893  -2.561  -3.663  0.00  0.00    +0.136 C 
ENDBRANCH  28  29
ENDBRANCH  17  28
TORSDOF 6
