REMARK  Name = ZINC63175744
REMARK  4 active torsions:
REMARK  status: ('A' for Active; 'I' for Inactive)
REMARK    1  A    between atoms: C_6  and  S_7
REMARK    2  A    between atoms: S_7  and  N_10
REMARK    3  A    between atoms: N_10  and  C_11
REMARK    4  A    between atoms: C_16  and  N_18
REMARK                            x       y       z     vdW  Elec       q    Type
REMARK                         _______ _______ _______ _____ _____    ______ ____
ROOT
ATOM      1  S   UNL     1      -1.510  -0.909   0.018  0.00  0.00    +0.059 S 
ATOM      2  O   UNL     1      -1.212  -2.189   0.558  0.00  0.00    -0.153 OA
ATOM      3  O   UNL     1      -2.490  -0.052   0.586  0.00  0.00    -0.153 OA
ENDROOT
BRANCH   1   9
ATOM      4  C   UNL     1      -0.017   1.378   0.010  0.00  0.00    +0.032 A 
ATOM      5  C   UNL     1       1.164   2.091   0.002  0.00  0.00    +0.048 A 
ATOM      6  C   UNL     1       2.386   1.424  -0.015  0.00  0.00    +0.124 A 
ATOM      7  C   UNL     1       2.392   0.035  -0.030  0.00  0.00    -0.001 A 
ATOM      8  C   UNL     1       1.212  -0.675  -0.018  0.00  0.00    +0.035 A 
ATOM      9  C   UNL     1       0.002  -0.004   0.002  0.00  0.00    +0.106 A 
ATOM     10  C   UNL     1       3.844  -0.403  -0.071  0.00  0.00    +0.080 C 
ATOM     11  C   UNL     1       4.562   0.907  -0.473  0.00  0.00    +0.234 C 
ATOM     12  O   UNL     1       3.653   1.923  -0.013  0.00  0.00    -0.491 OA
ENDBRANCH   1   9
BRANCH   1  13
ATOM     13  N   UNL     1      -1.951  -1.152  -1.560  0.00  0.00    -0.188 NA
ATOM     14  H   UNL     1      -2.761  -0.744  -1.905  0.00  0.00    +0.148 HD
BRANCH  13  15
ATOM     15  C   UNL     1      -1.119  -1.982  -2.434  0.00  0.00    +0.062 C 
ATOM     16  C   UNL     1      -0.181  -1.090  -3.274  0.00  0.00    +0.019 C 
ATOM     17  C   UNL     1      -0.122  -1.794  -4.652  0.00  0.00    -0.000 C 
ATOM     18  C   UNL     1      -1.574  -2.299  -4.841  0.00  0.00    -0.015 C 
ATOM     19  C   UNL     1      -2.004  -2.751  -3.430  0.00  0.00    -0.056 C 
BRANCH  19  20
ATOM     20  N   UNL     1      -3.418  -2.422  -3.205  0.00  0.00    +0.381 N 
ATOM     21  H   UNL     1      -3.557  -1.431  -3.334  0.00  0.00    -0.090 HD
ATOM     22  H   UNL     1      -3.991  -2.930  -3.862  0.00  0.00    -0.090 HD
ATOM     23  H   UNL     1      -3.678  -2.678  -2.264  0.00  0.00    -0.090 HD
ENDBRANCH  19  20
ENDBRANCH  13  15
ENDBRANCH   1  13
TORSDOF 4
