REMARK  Name = ZINC64283032
REMARK  4 active torsions:
REMARK  status: ('A' for Active; 'I' for Inactive)
REMARK    1  A    between atoms: C_1  and  C_2
REMARK    2  A    between atoms: C_2  and  C_4
REMARK    3  A    between atoms: C_2  and  N_14
REMARK    4  A    between atoms: C_15  and  C_17
REMARK                            x       y       z     vdW  Elec       q    Type
REMARK                         _______ _______ _______ _____ _____    ______ ____
ROOT
ATOM      1  C   UNL     1      -0.026   1.541   0.025  0.00  0.00    +0.033 C 
ATOM      2  C   UNL     1      -0.003   0.011   0.003  0.00  0.00    +0.100 C 
ENDROOT
BRANCH   2   3
ATOM      3  C   UNL     1       0.701  -0.462  -1.244  0.00  0.00    -0.026 A 
ATOM      4  C   UNL     1      -0.030  -0.476  -2.505  0.00  0.00    +0.007 A 
ATOM      5  C   UNL     1       0.540  -0.887  -3.658  0.00  0.00    +0.025 A 
ATOM      6  C   UNL     1       1.932  -1.334  -3.655  0.00  0.00    +0.056 A 
ATOM      7  N   UNL     1       2.760  -1.781  -4.565  0.00  0.00    -0.268 N 
ATOM      8  C   UNL     1       3.966  -2.050  -3.960  0.00  0.00    +0.308 C 
ATOM      9  O   UNL     1       4.949  -2.478  -4.525  0.00  0.00    -0.252 OA
ATOM     10  N   UNL     1       3.888  -1.760  -2.618  0.00  0.00    -0.268 N 
ATOM     11  C   UNL     1       2.682  -1.320  -2.359  0.00  0.00    +0.056 A 
ATOM     12  C   UNL     1       1.990  -0.855  -1.159  0.00  0.00    +0.030 A 
ATOM     13  H   UNL     1       2.558  -1.902  -5.506  0.00  0.00    +0.156 HD
ATOM     14  H   UNL     1       4.605  -1.863  -1.973  0.00  0.00    +0.156 HD
ENDBRANCH   2   3
BRANCH   2  15
ATOM     15  N   UNL     1      -1.376  -0.499   0.012  0.00  0.00    -0.308 N 
ATOM     16  C   UNL     1      -2.029  -0.655   1.181  0.00  0.00    +0.221 C 
ATOM     17  O   UNL     1      -1.450  -0.463   2.229  0.00  0.00    -0.275 OA
ATOM     18  H   UNL     1      -1.815  -0.724  -0.823  0.00  0.00    +0.149 HD
BRANCH  16  19
ATOM     19  C   UNL     1      -3.478  -1.069   1.185  0.00  0.00    +0.105 C 
ATOM     20  C   UNL     1      -4.203  -0.350   2.321  0.00  0.00    +0.018 C 
ATOM     21  C   UNL     1      -5.612  -0.943   2.447  0.00  0.00    +0.006 C 
ATOM     22  C   UNL     1      -5.489  -2.364   2.993  0.00  0.00    +0.035 C 
ATOM     23  C   UNL     1      -4.494  -3.157   2.187  0.00  0.00    -0.043 A 
ATOM     24  C   UNL     1      -3.568  -2.562   1.361  0.00  0.00    -0.032 A 
ATOM     25  C   UNL     1      -2.673  -3.352   0.650  0.00  0.00    +0.004 A 
ATOM     26  C   UNL     1      -2.707  -4.726   0.764  0.00  0.00    +0.000 A 
ATOM     27  C   UNL     1      -3.640  -5.323   1.592  0.00  0.00    +0.000 A 
ATOM     28  C   UNL     1      -4.528  -4.541   2.298  0.00  0.00    +0.004 A 
ENDBRANCH  16  19
ENDBRANCH   2  15
TORSDOF 3
