REMARK  Name = ZINC16345335
REMARK  8 active torsions:
REMARK  status: ('A' for Active; 'I' for Inactive)
REMARK    1  A    between atoms: C_4  and  S_7
REMARK    2  A    between atoms: S_7  and  C_10
REMARK    3  A    between atoms: C_13  and  C_16
REMARK    4  A    between atoms: C_16  and  O_17
REMARK    5  A    between atoms: O_17  and  C_18
REMARK    6  A    between atoms: C_18  and  C_20
REMARK    7  A    between atoms: C_20  and  C_21
REMARK    8  A    between atoms: C_21  and  C_22
REMARK                            x       y       z     vdW  Elec       q    Type
REMARK                         _______ _______ _______ _____ _____    ______ ____
ROOT
ATOM      1  O   UNL     1       5.480  -0.623  -5.877  0.00  0.00    -0.460 OA
ENDROOT
BRANCH   1   2
ATOM      2  C   UNL     1       5.957  -0.890  -7.103  0.00  0.00    +0.308 C 
ATOM      3  O   UNL     1       5.338  -0.545  -8.081  0.00  0.00    -0.251 OA
BRANCH   2   4
ATOM      4  C   UNL     1       7.266  -1.621  -7.259  0.00  0.00    +0.127 C 
BRANCH   4   5
ATOM      5  C   UNL     1       7.579  -1.796  -8.746  0.00  0.00    +0.072 C 
BRANCH   5   6
ATOM      6  C   UNL     1       8.887  -2.527  -8.902  0.00  0.00    +0.107 A 
ATOM      7  C   UNL     1       9.407  -2.817 -10.243  0.00  0.00    +0.271 A 
ATOM      8  O   UNL     1       8.787  -2.471 -11.232  0.00  0.00    -0.266 OA
ATOM      9  N   UNL     1      10.581  -3.473 -10.367  0.00  0.00    -0.319 N 
ATOM     10  H   UNL     1      10.983  -3.697 -11.366  0.00  0.00    +0.169 HD
ATOM     11  C   UNL     1      11.259  -3.851  -9.225  0.00  0.00    +0.068 A 
ATOM     12  C   UNL     1      12.472  -4.528  -9.319  0.00  0.00    +0.028 A 
ATOM     13  C   UNL     1      13.139  -4.900  -8.173  0.00  0.00    +0.002 A 
ATOM     14  C   UNL     1      12.612  -4.605  -6.922  0.00  0.00    +0.002 A 
ATOM     15  C   UNL     1      11.425  -3.943  -6.806  0.00  0.00    +0.030 A 
ATOM     16  C   UNL     1      10.725  -3.553  -7.958  0.00  0.00    +0.088 A 
ATOM     17  N   UNL     1       9.555  -2.893  -7.846  0.00  0.00    -0.245 NA
ENDBRANCH   5   6
ENDBRANCH   4   5
ENDBRANCH   2   4
ENDBRANCH   1   2
BRANCH   1  18
ATOM     18  C   UNL     1       4.214   0.084  -5.802  0.00  0.00    +0.267 C 
BRANCH  18  22
ATOM     19  C   UNL     1       3.151   0.678  -1.708  0.00  0.00    +0.094 A 
ATOM     20  C   UNL     1       2.744  -0.466  -2.369  0.00  0.00    +0.028 A 
ATOM     21  C   UNL     1       3.084  -0.656  -3.695  0.00  0.00    +0.009 A 
ATOM     22  C   UNL     1       3.840   0.293  -4.358  0.00  0.00    -0.010 A 
ATOM     23  C   UNL     1       4.252   1.434  -3.695  0.00  0.00    +0.009 A 
ATOM     24  C   UNL     1       3.908   1.627  -2.370  0.00  0.00    +0.028 A 
BRANCH  19  25
ATOM     25  S   UNL     1       2.713   0.923  -0.019  0.00  0.00    +0.025 S 
ATOM     26  O   UNL     1       3.680   1.809   0.527  0.00  0.00    -0.164 OA
ATOM     27  O   UNL     1       2.464  -0.365   0.527  0.00  0.00    -0.164 OA
BRANCH  25  31
ATOM     28  C   UNL     1      -1.238   3.133   0.030  0.00  0.00    +0.000 A 
ATOM     29  C   UNL     1      -1.219   1.751   0.017  0.00  0.00    +0.002 A 
ATOM     30  C   UNL     1      -0.013   1.076   0.008  0.00  0.00    +0.027 A 
ATOM     31  C   UNL     1       1.175   1.783   0.000  0.00  0.00    +0.094 A 
ATOM     32  C   UNL     1       1.156   3.165   0.008  0.00  0.00    +0.027 A 
ATOM     33  C   UNL     1      -0.050   3.840   0.022  0.00  0.00    +0.002 A 
ENDBRANCH  25  31
ENDBRANCH  19  25
ENDBRANCH  18  22
ENDBRANCH   1  18
TORSDOF 8
