REMARK  Name = ZINC00902405
REMARK  7 active torsions:
REMARK  status: ('A' for Active; 'I' for Inactive)
REMARK    1  A    between atoms: N_9  and  C_10
REMARK    2  A    between atoms: C_10  and  C_11
REMARK    3  A    between atoms: N_13  and  C_14
REMARK    4  A    between atoms: N_13  and  C_23
REMARK    5  A    between atoms: C_23  and  C_25
REMARK    6  A    between atoms: C_23  and  C_32
REMARK    7  A    between atoms: N_34  and  C_35
REMARK                            x       y       z     vdW  Elec       q    Type
REMARK                         _______ _______ _______ _____ _____    ______ ____
ROOT
ATOM      1  C   UNL     1       5.395  -0.906   1.898  0.00  0.00    +0.242 C 
ATOM      2  O   UNL     1       5.395  -1.848   2.662  0.00  0.00    -0.273 OA
ATOM      3  N   UNL     1       6.445  -0.062   1.869  0.00  0.00    -0.254 N 
ENDROOT
BRANCH   3   4
ATOM      4  C   UNL     1       6.386   1.103   1.092  0.00  0.00    +0.041 A 
ATOM      5  C   UNL     1       6.447   1.018  -0.292  0.00  0.00    +0.027 A 
ATOM      6  C   UNL     1       6.389   2.166  -1.059  0.00  0.00    +0.051 A 
ATOM      7  C   UNL     1       6.270   3.404  -0.450  0.00  0.00    +0.166 A 
ATOM      8  C   UNL     1       6.208   3.493   0.939  0.00  0.00    +0.168 A 
ATOM      9  C   UNL     1       6.261   2.341   1.707  0.00  0.00    +0.073 A 
ATOM     10  O   UNL     1       6.094   4.807   1.288  0.00  0.00    -0.453 OA
ATOM     11  C   UNL     1       6.497   5.551   0.123  0.00  0.00    +0.466 C 
ATOM     12  O   UNL     1       6.194   4.665  -0.971  0.00  0.00    -0.453 OA
ENDBRANCH   3   4
BRANCH   1  13
ATOM     13  C   UNL     1       4.221  -0.680   0.981  0.00  0.00    +0.242 C 
BRANCH  13  22
ATOM     14  C   UNL     1      -0.032  -2.386   3.578  0.00  0.00    +0.002 A 
ATOM     15  C   UNL     1       0.622  -1.173   3.755  0.00  0.00    +0.002 A 
ATOM     16  C   UNL     1       1.721  -0.860   3.007  0.00  0.00    +0.029 A 
ATOM     17  C   UNL     1       2.192  -1.762   2.058  0.00  0.00    +0.090 A 
ATOM     18  C   UNL     1       1.536  -2.991   1.874  0.00  0.00    +0.113 A 
ATOM     19  C   UNL     1       0.410  -3.288   2.655  0.00  0.00    +0.032 A 
ATOM     20  N   UNL     1       2.191  -3.664   0.908  0.00  0.00    -0.129 NA
ATOM     21  N   UNL     1       3.186  -2.971   0.477  0.00  0.00    -0.064 NA
ATOM     22  N   UNL     1       3.240  -1.752   1.169  0.00  0.00    -0.235 N 
ENDBRANCH  13  22
ENDBRANCH   1  13
BRANCH   3  23
ATOM     23  C   UNL     1       7.648  -0.362   2.650  0.00  0.00    +0.197 C 
BRANCH  23  24
ATOM     24  C   UNL     1       8.604   0.800   2.565  0.00  0.00    -0.018 A 
ATOM     25  C   UNL     1       9.027   1.258   1.331  0.00  0.00    +0.009 A 
ATOM     26  C   UNL     1       9.903   2.324   1.253  0.00  0.00    +0.038 A 
ATOM     27  C   UNL     1      10.358   2.933   2.410  0.00  0.00    +0.123 A 
ATOM     28  C   UNL     1       9.934   2.473   3.645  0.00  0.00    +0.038 A 
ATOM     29  C   UNL     1       9.053   1.410   3.721  0.00  0.00    +0.009 A 
ATOM     30  F   UNL     1      11.215   3.974   2.335  0.00  0.00    -0.205 F 
ENDBRANCH  23  24
BRANCH  23  31
ATOM     31  C   UNL     1       8.309  -1.598   2.097  0.00  0.00    +0.239 C 
ATOM     32  O   UNL     1       7.824  -2.172   1.146  0.00  0.00    -0.273 OA
ATOM     33  N   UNL     1       9.441  -2.066   2.661  0.00  0.00    -0.311 N 
ATOM     34  H   UNL     1       9.829  -1.607   3.422  0.00  0.00    +0.149 HD
BRANCH  33  35
ATOM     35  C   UNL     1      10.084  -3.268   2.125  0.00  0.00    +0.073 C 
ATOM     36  C   UNL     1       9.437  -4.510   2.740  0.00  0.00    +0.022 C 
ATOM     37  C   UNL     1      10.109  -5.765   2.180  0.00  0.00    +0.002 C 
ATOM     38  C   UNL     1      11.600  -5.743   2.523  0.00  0.00    +0.000 C 
ATOM     39  C   UNL     1      12.246  -4.500   1.908  0.00  0.00    +0.002 C 
ATOM     40  C   UNL     1      11.575  -3.245   2.468  0.00  0.00    +0.022 C 
ENDBRANCH  33  35
ENDBRANCH  23  31
ENDBRANCH   3  23
TORSDOF 7
