REMARK  Name = ZINC25171325
REMARK  8 active torsions:
REMARK  status: ('A' for Active; 'I' for Inactive)
REMARK    1  A    between atoms: C_1  and  O_2
REMARK    2  A    between atoms: O_2  and  C_3
REMARK    3  A    between atoms: C_3  and  C_5
REMARK    4  A    between atoms: C_5  and  N_11
REMARK    5  A    between atoms: C_12  and  C_14
REMARK    6  A    between atoms: N_19  and  C_21
REMARK    7  A    between atoms: C_21  and  C_22
REMARK    8  A    between atoms: C_22  and  C_23
REMARK                            x       y       z     vdW  Elec       q    Type
REMARK                         _______ _______ _______ _____ _____    ______ ____
ROOT
ATOM      1  N   UNL     1      -1.065  -6.603   1.266  0.00  0.00    -0.300 N 
ATOM      2  C   UNL     1      -1.427  -5.312   1.129  0.00  0.00    +0.219 C 
ATOM      3  O   UNL     1      -2.361  -5.017   0.413  0.00  0.00    -0.275 OA
ATOM      4  H   UNL     1      -0.219  -6.870   1.915  0.00  0.00    +0.150 HD
ENDROOT
BRANCH   1   5
ATOM      5  C   UNL     1      -1.800  -7.650   0.552  0.00  0.00    +0.132 C 
ATOM      6  C   UNL     1      -3.268  -7.629   0.985  0.00  0.00    +0.037 C 
ATOM      7  C   UNL     1      -3.358  -7.880   2.491  0.00  0.00    +0.003 C 
ATOM      8  C   UNL     1      -2.749  -9.244   2.819  0.00  0.00    +0.000 C 
ATOM      9  C   UNL     1      -1.282  -9.265   2.386  0.00  0.00    +0.003 C 
ATOM     10  C   UNL     1      -1.191  -9.014   0.880  0.00  0.00    +0.037 C 
BRANCH   5  11
ATOM     11  C   UNL     1      -1.710  -7.403  -0.932  0.00  0.00    +0.331 C 
ATOM     12  O   UNL     1      -1.650  -8.336  -1.697  0.00  0.00    -0.248 OA
BRANCH  11  14
ATOM     13  C   UNL     1      -1.610  -5.984  -2.844  0.00  0.00    +0.280 C 
ATOM     14  O   UNL     1      -1.698  -6.146  -1.404  0.00  0.00    -0.466 OA
ENDBRANCH  11  14
ENDBRANCH   5  11
ENDBRANCH   1   5
BRANCH   2  15
ATOM     15  C   UNL     1      -0.672  -4.235   1.864  0.00  0.00    +0.101 C 
ATOM     16  C   UNL     1       0.811  -4.201   1.425  0.00  0.00    +0.110 C 
ATOM     17  C   UNL     1       1.163  -2.730   1.419  0.00  0.00    +0.216 C 
ATOM     18  O   UNL     1       2.291  -2.286   1.404  0.00  0.00    -0.276 OA
ATOM     19  N   UNL     1       0.043  -1.987   1.434  0.00  0.00    -0.300 N 
ATOM     20  C   UNL     1      -1.158  -2.831   1.446  0.00  0.00    +0.121 C 
BRANCH  19  21
ATOM     21  C   UNL     1       0.023  -0.522   1.442  0.00  0.00    +0.112 C 
BRANCH  21  22
ATOM     22  C   UNL     1       0.002  -0.004   0.002  0.00  0.00    +0.054 C 
BRANCH  22  23
ATOM     23  C   UNL     1      -0.018   1.503   0.010  0.00  0.00    -0.046 A 
ATOM     24  C   UNL     1      -1.225   2.178   0.020  0.00  0.00    +0.004 A 
ATOM     25  C   UNL     1      -1.244   3.560   0.031  0.00  0.00    +0.000 A 
ATOM     26  C   UNL     1      -0.056   4.267   0.025  0.00  0.00    +0.000 A 
ATOM     27  C   UNL     1       1.151   3.592   0.010  0.00  0.00    +0.000 A 
ATOM     28  C   UNL     1       1.169   2.210   0.003  0.00  0.00    +0.004 A 
ENDBRANCH  22  23
ENDBRANCH  21  22
ENDBRANCH  19  21
ENDBRANCH   2  15
TORSDOF 7
