REMARK  Name = ZINC09466392
REMARK  6 active torsions:
REMARK  status: ('A' for Active; 'I' for Inactive)
REMARK    1  A    between atoms: C_8  and  C_10
REMARK    2  A    between atoms: C_11  and  C_12
REMARK    3  A    between atoms: C_12  and  O_14
REMARK    4  A    between atoms: O_14  and  C_15
REMARK    5  A    between atoms: C_15  and  C_16
REMARK    6  A    between atoms: N_18  and  C_19
REMARK                            x       y       z     vdW  Elec       q    Type
REMARK                         _______ _______ _______ _____ _____    ______ ____
ROOT
ATOM      1  C   UNL     1      -2.521  -6.843  -0.015  0.00  0.00    +0.255 C 
ATOM      2  O   UNL     1      -1.338  -7.112  -0.020  0.00  0.00    -0.272 OA
ATOM      3  N   UNL     1      -3.436  -7.833  -0.009  0.00  0.00    -0.282 N 
ATOM      4  H   UNL     1      -4.379  -7.620   0.075  0.00  0.00    +0.155 HD
ENDROOT
BRANCH   3   5
ATOM      5  C   UNL     1      -3.026  -9.167  -0.126  0.00  0.00    +0.050 A 
ATOM      6  C   UNL     1      -1.822  -9.470  -0.744  0.00  0.00    +0.052 A 
ATOM      7  C   UNL     1      -1.419 -10.791  -0.858  0.00  0.00    +0.069 A 
ATOM      8  C   UNL     1      -2.225 -11.812  -0.351  0.00  0.00    +0.068 A 
ATOM      9  C   UNL     1      -3.428 -11.504   0.266  0.00  0.00    +0.045 A 
ATOM     10  C   UNL     1      -3.824 -10.186   0.383  0.00  0.00    +0.041 A 
ATOM     11 BR   UNL     1      -5.461  -9.765   1.232  0.00  0.00    -0.048 Br
ATOM     12  N   UNL     1      -1.565 -13.013  -0.611  0.00  0.00    -0.306 N 
ATOM     13  H   UNL     1      -1.883 -13.898  -0.374  0.00  0.00    +0.170 HD
ATOM     14  C   UNL     1      -0.412 -12.733  -1.246  0.00  0.00    +0.325 A 
ATOM     15  O   UNL     1       0.402 -13.559  -1.616  0.00  0.00    -0.247 OA
ATOM     16  N   UNL     1      -0.295 -11.402  -1.410  0.00  0.00    -0.306 N 
ATOM     17  H   UNL     1       0.446 -10.946  -1.839  0.00  0.00    +0.170 HD
ENDBRANCH   3   5
BRANCH   1  18
ATOM     18  C   UNL     1      -2.967  -5.404  -0.015  0.00  0.00    +0.328 C 
BRANCH  18  19
ATOM     19  O   UNL     1      -1.802  -4.537  -0.022  0.00  0.00    -0.452 OA
BRANCH  19  20
ATOM     20  C   UNL     1      -2.029  -3.207  -0.023  0.00  0.00    +0.332 C 
ATOM     21  O   UNL     1      -3.170  -2.785  -0.018  0.00  0.00    -0.246 OA
BRANCH  20  23
ATOM     22  C   UNL     1      -1.129  -0.941  -0.031  0.00  0.00    +0.042 C 
ATOM     23  C   UNL     1      -0.902  -2.272  -0.030  0.00  0.00    +0.094 C 
BRANCH  22  31
ATOM     24  C   UNL     1       4.446   1.636  -0.064  0.00  0.00    +0.002 A 
ATOM     25  C   UNL     1       3.938   2.929  -0.064  0.00  0.00    +0.001 A 
ATOM     26  C   UNL     1       2.569   3.120  -0.056  0.00  0.00    +0.017 A 
ATOM     27  C   UNL     1       1.735   2.027  -0.050  0.00  0.00    +0.040 A 
ATOM     28  C   UNL     1       2.223   0.696  -0.050  0.00  0.00    +0.079 A 
ATOM     29  C   UNL     1       3.633   0.548  -0.057  0.00  0.00    +0.029 A 
ATOM     30  N   UNL     1       1.292  -0.264  -0.044  0.00  0.00    -0.240 NA
ATOM     31  C   UNL     1       0.000  -0.003  -0.037  0.00  0.00    +0.103 A 
ATOM     32  S   UNL     1      -0.025   1.784  -0.040  0.00  0.00    -0.068 S 
ENDBRANCH  22  31
ENDBRANCH  20  23
ENDBRANCH  19  20
ENDBRANCH  18  19
ENDBRANCH   1  18
TORSDOF 6
