REMARK  Name = ZINC09674066
REMARK  9 active torsions:
REMARK  status: ('A' for Active; 'I' for Inactive)
REMARK    1  A    between atoms: C_1  and  C_2
REMARK    2  A    between atoms: C_5  and  C_36
REMARK    3  A    between atoms: C_9  and  C_10
REMARK    4  A    between atoms: C_9  and  N_75
REMARK    5  A    between atoms: C_10  and  C_11
REMARK    6  A    between atoms: C_11  and  N_12
REMARK    7  A    between atoms: C_13  and  C_15
REMARK    8  A    between atoms: N_17  and  C_30
REMARK    9  A    between atoms: N_28  and  C_29
REMARK                            x       y       z     vdW  Elec       q    Type
REMARK                         _______ _______ _______ _____ _____    ______ ____
ROOT
ATOM      1  C   UNL     1      -0.941   1.851  -6.095  0.00  0.00    +0.063 A 
ATOM      2  C   UNL     1      -0.493   1.551  -7.352  0.00  0.00    +0.103 A 
ATOM      3  N   UNL     1      -1.091   2.078  -8.446  0.00  0.00    -0.310 N 
ATOM      4  C   UNL     1      -2.135   2.920  -8.360  0.00  0.00    +0.276 A 
ATOM      5  O   UNL     1      -2.632   3.369  -9.379  0.00  0.00    -0.265 OA
ATOM      6  C   UNL     1      -2.663   3.292  -7.104  0.00  0.00    +0.116 A 
ATOM      7  C   UNL     1      -2.079   2.768  -5.955  0.00  0.00    +0.026 A 
ATOM      8  C   UNL     1      -2.817   3.316  -4.814  0.00  0.00    +0.009 A 
ATOM      9  C   UNL     1      -2.708   3.166  -3.431  0.00  0.00    +0.010 A 
ATOM     10  C   UNL     1      -3.570   3.829  -2.604  0.00  0.00    +0.001 A 
ATOM     11  C   UNL     1      -4.556   4.653  -3.129  0.00  0.00    +0.002 A 
ATOM     12  C   UNL     1      -4.682   4.815  -4.491  0.00  0.00    +0.026 A 
ATOM     13  C   UNL     1      -3.814   4.149  -5.353  0.00  0.00    +0.050 A 
ATOM     14  N   UNL     1      -3.704   4.120  -6.726  0.00  0.00    -0.339 N 
ATOM     15  C   UNL     1      -4.565   4.860  -7.653  0.00  0.00    +0.149 C 
ENDROOT
BRANCH   3  16
ATOM     16  C   UNL     1      -0.579   1.722  -9.771  0.00  0.00    +0.090 C 
ATOM     17  C   UNL     1      -0.686   0.208  -9.969  0.00  0.00    +0.025 C 
ATOM     18  C   UNL     1      -0.151  -0.164 -11.354  0.00  0.00    +0.002 C 
ATOM     19  C   UNL     1       1.314   0.262 -11.465  0.00  0.00    +0.000 C 
ATOM     20  C   UNL     1       1.421   1.776 -11.267  0.00  0.00    +0.002 C 
ATOM     21  C   UNL     1       0.886   2.148  -9.883  0.00  0.00    +0.025 C 
ENDBRANCH   3  16
BRANCH   1  23
ATOM     22  N   UNL     1       0.836   0.546  -5.042  0.00  0.00    -0.311 N 
ATOM     23  C   UNL     1      -0.292   1.272  -4.907  0.00  0.00    +0.246 C 
ATOM     24  O   UNL     1      -0.774   1.448  -3.804  0.00  0.00    -0.270 OA
ATOM     25  H   UNL     1       1.179   0.344  -5.926  0.00  0.00    +0.149 HD
BRANCH  22  26
ATOM     26  C   UNL     1       1.543   0.064  -3.853  0.00  0.00    +0.102 C 
BRANCH  26  27
ATOM     27  C   UNL     1       2.781  -0.727  -4.282  0.00  0.00    +0.000 C 
BRANCH  27  28
ATOM     28  C   UNL     1       3.519  -1.231  -3.040  0.00  0.00    -0.077 C 
BRANCH  28  36
ATOM     29  C   UNL     1       5.191  -5.196  -5.422  0.00  0.00    +0.005 C 
ATOM     30  C   UNL     1       5.585  -3.905  -4.701  0.00  0.00    -0.031 C 
ATOM     31  C   UNL     1       6.520  -4.236  -3.534  0.00  0.00    +0.003 C 
ATOM     32  C   UNL     1       6.861  -2.947  -2.783  0.00  0.00    -0.031 C 
ATOM     33  C   UNL     1       5.568  -2.287  -2.299  0.00  0.00    -0.076 C 
ATOM     34  C   UNL     1       4.329  -3.217  -4.162  0.00  0.00    -0.076 C 
ATOM     35  C   UNL     1       7.747  -3.275  -1.579  0.00  0.00    +0.005 C 
ATOM     36  N   UNL     1       4.723  -1.972  -3.471  0.00  0.00    +0.380 N 
ATOM     37  H   UNL     1       5.260  -1.386  -4.121  0.00  0.00    -0.082 HD
ENDBRANCH  28  36
ENDBRANCH  27  28
ENDBRANCH  26  27
ENDBRANCH  22  26
ENDBRANCH   1  23
TORSDOF 6
