REMARK  Name = ZINC20532119
REMARK  7 active torsions:
REMARK  status: ('A' for Active; 'I' for Inactive)
REMARK    1  A    between atoms: C_1  and  C_2
REMARK    2  A    between atoms: C_2  and  O_3
REMARK    3  A    between atoms: O_3  and  C_4
REMARK    4  A    between atoms: C_4  and  C_6
REMARK    5  A    between atoms: C_10  and  N_11
REMARK    6  A    between atoms: C_18  and  C_21
REMARK    7  A    between atoms: C_21  and  N_22
REMARK                            x       y       z     vdW  Elec       q    Type
REMARK                         _______ _______ _______ _____ _____    ______ ____
ROOT
ATOM      1  N   UNL     1      -1.668  -2.280  -2.163  0.00  0.00    -0.263 N 
ATOM      2  C   UNL     1      -2.524  -3.152  -2.731  0.00  0.00    +0.307 C 
ATOM      3  O   UNL     1      -2.277  -4.343  -2.718  0.00  0.00    -0.252 OA
ATOM      4  N   UNL     1      -3.654  -2.705  -3.314  0.00  0.00    -0.285 N 
ATOM      5  C   UNL     1      -3.912  -1.264  -3.438  0.00  0.00    +0.109 C 
ATOM      6  C   UNL     1      -4.210  -0.941  -4.906  0.00  0.00    +0.019 C 
ATOM      7  C   UNL     1      -5.354  -1.829  -5.398  0.00  0.00    +0.005 C 
ATOM      8  C   UNL     1      -4.939  -3.299  -5.302  0.00  0.00    -0.010 C 
ATOM      9  C   UNL     1      -4.647  -3.649  -3.844  0.00  0.00    +0.111 C 
ATOM     10  H   UNL     1      -1.849  -1.198  -2.247  0.00  0.00    +0.157 HD
ENDROOT
BRANCH   1  15
ATOM     11  C   UNL     1       0.425  -2.012  -0.826  0.00  0.00    +0.091 A 
ATOM     12  C   UNL     1       1.488  -2.752  -0.164  0.00  0.00    -0.021 A 
ATOM     13  C   UNL     1       1.398  -4.096  -0.260  0.00  0.00    -0.004 A 
ATOM     14  S   UNL     1      -0.068  -4.386  -1.209  0.00  0.00    -0.077 S 
ATOM     15  C   UNL     1      -0.560  -2.746  -1.472  0.00  0.00    +0.087 A 
ATOM     16  C   UNL     1       2.341  -5.107   0.317  0.00  0.00    +0.043 C 
ATOM     17  C   UNL     1       3.636  -4.387   0.720  0.00  0.00    +0.005 C 
ATOM     18  C   UNL     1       3.274  -3.130   1.517  0.00  0.00    +0.005 C 
ATOM     19  C   UNL     1       2.635  -2.093   0.592  0.00  0.00    +0.037 C 
BRANCH  11  20
ATOM     20  C   UNL     1       0.392  -0.549  -0.805  0.00  0.00    +0.342 C 
ATOM     21  O   UNL     1       0.948   0.085  -1.683  0.00  0.00    -0.245 OA
BRANCH  20  22
ATOM     22  O   UNL     1      -0.254   0.098   0.187  0.00  0.00    -0.461 OA
BRANCH  22  24
ATOM     23  C   UNL     1      -1.023   2.100   1.340  0.00  0.00    +0.048 C 
ATOM     24  C   UNL     1      -0.246   1.549   0.143  0.00  0.00    +0.229 C 
ENDBRANCH  22  24
ENDBRANCH  20  22
ENDBRANCH  11  20
ENDBRANCH   1  15
BRANCH   8  25
ATOM     25  C   UNL     1      -6.072  -4.185  -5.825  0.00  0.00    -0.073 C 
BRANCH  25  26
ATOM     26  N   UNL     1      -5.642  -5.590  -5.807  0.00  0.00    +0.383 N 
ATOM     27  C   UNL     1      -4.671  -5.858  -6.880  0.00  0.00    -0.074 C 
ATOM     28  C   UNL     1      -3.992  -7.198  -6.597  0.00  0.00    +0.017 C 
ATOM     29  C   UNL     1      -5.032  -8.254  -6.324  0.00  0.00    -0.048 A 
ATOM     30  C   UNL     1      -4.656  -9.587  -6.394  0.00  0.00    +0.004 A 
ATOM     31  C   UNL     1      -5.575 -10.585  -6.143  0.00  0.00    +0.000 A 
ATOM     32  C   UNL     1      -6.878 -10.255  -5.821  0.00  0.00    +0.000 A 
ATOM     33  C   UNL     1      -7.255  -8.929  -5.754  0.00  0.00    +0.002 A 
ATOM     34  C   UNL     1      -6.332  -7.924  -6.007  0.00  0.00    -0.061 A 
ATOM     35  C   UNL     1      -6.792  -6.492  -5.926  0.00  0.00    -0.043 C 
ATOM     36  H   UNL     1      -5.155  -5.777  -4.839  0.00  0.00    -0.081 HD
ENDBRANCH  25  26
ENDBRANCH   8  25
TORSDOF 6
