REMARK  Name = ZINC20881577
REMARK  10 active torsions:
REMARK  status: ('A' for Active; 'I' for Inactive)
REMARK    1  A    between atoms: C_1  and  C_2
REMARK    2  A    between atoms: C_2  and  C_3
REMARK    3  A    between atoms: C_2  and  O_4
REMARK    4  A    between atoms: O_4  and  C_5
REMARK    5  A    between atoms: C_8  and  C_11
REMARK    6  A    between atoms: C_16  and  C_26
REMARK    7  A    between atoms: C_30  and  O_34
REMARK    8  A    between atoms: C_31  and  O_32
REMARK    9  A    between atoms: O_32  and  C_33
REMARK   10  A    between atoms: O_34  and  C_35
REMARK                            x       y       z     vdW  Elec       q    Type
REMARK                         _______ _______ _______ _____ _____    ______ ____
ROOT
ATOM      1  C   UNL     1      -2.730  -1.237   3.770  0.00  0.00    +0.032 C 
ATOM      2  C   UNL     1      -2.453  -2.651   3.263  0.00  0.00    +0.059 C 
ATOM      3  C   UNL     1      -1.684  -2.593   1.954  0.00  0.00    +0.017 C 
ATOM      4  C   UNL     1      -1.871  -1.575   1.097  0.00  0.00    +0.037 C 
ATOM      5  C   UNL     1      -1.180  -1.399  -0.234  0.00  0.00    +0.140 C 
ATOM      6  N   UNL     1      -0.449  -2.563  -0.688  0.00  0.00    -0.331 N 
ATOM      7  C   UNL     1       0.660  -3.035   0.009  0.00  0.00    +0.049 A 
ATOM      8  C   UNL     1       1.936  -2.961  -0.524  0.00  0.00    +0.025 A 
ATOM      9  C   UNL     1       3.020  -3.336   0.251  0.00  0.00    +0.002 A 
ATOM     10  C   UNL     1       2.832  -3.783   1.546  0.00  0.00    +0.002 A 
ATOM     11  C   UNL     1       1.556  -3.878   2.075  0.00  0.00    +0.025 A 
ATOM     12  C   UNL     1       0.470  -3.520   1.294  0.00  0.00    +0.052 A 
ATOM     13  N   UNL     1      -0.840  -3.635   1.744  0.00  0.00    -0.316 N 
ATOM     14  C   UNL     1      -2.781  -0.538   1.411  0.00  0.00    +0.163 C 
ATOM     15  O   UNL     1      -2.946   0.360   0.609  0.00  0.00    -0.292 OA
ATOM     16  C   UNL     1      -3.550  -0.509   2.697  0.00  0.00    +0.088 C 
ATOM     17  H   UNL     1      -0.768  -3.092  -1.598  0.00  0.00    +0.147 HD
ATOM     18  H   UNL     1      -1.180  -4.665   1.931  0.00  0.00    +0.152 HD
ENDROOT
BRANCH   1  22
ATOM     19  C   UNL     1      -4.950  -1.415   7.417  0.00  0.00    +0.121 A 
ATOM     20  C   UNL     1      -3.720  -0.773   7.383  0.00  0.00    +0.046 A 
ATOM     21  C   UNL     1      -3.005  -0.717   6.203  0.00  0.00    +0.007 A 
ATOM     22  C   UNL     1      -3.513  -1.299   5.056  0.00  0.00    -0.043 A 
ATOM     23  C   UNL     1      -4.741  -1.934   5.087  0.00  0.00    +0.007 A 
ATOM     24  C   UNL     1      -5.458  -1.998   6.266  0.00  0.00    +0.046 A 
BRANCH  19  25
ATOM     25  O   UNL     1      -5.656  -1.472   8.577  0.00  0.00    -0.489 OA
BRANCH  25  27
ATOM     26  C   UNL     1      -5.240   0.556   9.825  0.00  0.00    +0.051 C 
ATOM     27  C   UNL     1      -5.021  -0.956   9.749  0.00  0.00    +0.167 C 
ATOM     28  C   UNL     1      -5.621  -1.621  10.989  0.00  0.00    +0.051 C 
ENDBRANCH  25  27
ENDBRANCH  19  25
ENDBRANCH   1  22
BRANCH   5  29
ATOM     29  C   UNL     1      -0.218  -0.245  -0.124  0.00  0.00    +0.023 A 
ATOM     30  C   UNL     1       0.170   0.216   1.121  0.00  0.00    +0.009 A 
ATOM     31  C   UNL     1       1.053   1.274   1.226  0.00  0.00    +0.004 A 
ATOM     32  C   UNL     1       1.553   1.877   0.086  0.00  0.00    +0.049 A 
ATOM     33  C   UNL     1       1.169   1.420  -1.164  0.00  0.00    +0.162 A 
ATOM     34  C   UNL     1       0.280   0.355  -1.270  0.00  0.00    +0.167 A 
BRANCH  34  35
ATOM     35  O   UNL     1      -0.096  -0.101  -2.495  0.00  0.00    -0.491 OA
ATOM     36  C   UNL     1      -1.184   0.572  -3.132  0.00  0.00    +0.277 C 
ENDBRANCH  34  35
BRANCH  33  37
ATOM     37  O   UNL     1       1.660   2.012  -2.286  0.00  0.00    -0.491 OA
ATOM     38  C   UNL     1       2.567   3.100  -2.102  0.00  0.00    +0.277 C 
ENDBRANCH  33  37
ENDBRANCH   5  29
TORSDOF 6
