REMARK  Name = ZINC67000385
REMARK  6 active torsions:
REMARK  status: ('A' for Active; 'I' for Inactive)
REMARK    1  A    between atoms: C_1  and  N_2
REMARK    2  A    between atoms: N_2  and  C_3
REMARK    3  A    between atoms: C_13  and  C_15
REMARK    4  A    between atoms: N_17  and  C_18
REMARK    5  A    between atoms: C_18  and  C_19
REMARK    6  A    between atoms: C_19  and  O_29
REMARK                            x       y       z     vdW  Elec       q    Type
REMARK                         _______ _______ _______ _____ _____    ______ ____
ROOT
ATOM      1  C   UNL     1      -0.500   0.296  -2.249  0.00  0.00    +0.300 C 
ATOM      2  O   UNL     1      -0.235   1.476  -2.350  0.00  0.00    -0.265 OA
ATOM      3  N   UNL     1      -0.738  -0.438  -3.355  0.00  0.00    -0.304 N 
ATOM      4  H   UNL     1      -0.950  -1.381  -3.274  0.00  0.00    +0.149 HD
ENDROOT
BRANCH   1   7
ATOM      5  C   UNL     1      -0.138   1.841   0.093  0.00  0.00    +0.139 C 
ATOM      6  N   UNL     1      -0.338   0.394   0.205  0.00  0.00    -0.267 N 
ATOM      7  C   UNL     1      -0.563  -0.343  -0.901  0.00  0.00    +0.305 C 
ATOM      8  O   UNL     1      -0.818  -1.525  -0.801  0.00  0.00    -0.265 OA
BRANCH   6   9
ATOM      9  C   UNL     1      -0.293  -0.223   1.457  0.00  0.00    +0.037 A 
ATOM     10  C   UNL     1      -0.140  -1.612   1.541  0.00  0.00    +0.024 A 
ATOM     11  C   UNL     1      -0.095  -2.238   2.746  0.00  0.00    +0.010 A 
ATOM     12  C   UNL     1      -0.201  -1.488   3.931  0.00  0.00    -0.018 A 
ATOM     13  C   UNL     1      -0.156  -2.108   5.191  0.00  0.00    +0.008 A 
ATOM     14  C   UNL     1      -0.262  -1.353   6.318  0.00  0.00    +0.001 A 
ATOM     15  C   UNL     1      -0.414   0.030   6.244  0.00  0.00    +0.001 A 
ATOM     16  C   UNL     1      -0.462   0.666   5.042  0.00  0.00    +0.008 A 
ATOM     17  C   UNL     1      -0.355  -0.081   3.856  0.00  0.00    -0.016 A 
ATOM     18  C   UNL     1      -0.395   0.543   2.598  0.00  0.00    +0.032 A 
ENDBRANCH   6   9
ENDBRANCH   1   7
BRANCH   3  19
ATOM     19  C   UNL     1      -0.676   0.189  -4.677  0.00  0.00    +0.144 C 
BRANCH  19  20
ATOM     20  C   UNL     1      -1.106  -0.823  -5.742  0.00  0.00    +0.107 C 
ATOM     21  C   UNL     1      -2.515  -1.318  -5.425  0.00  0.00    +0.041 C 
ATOM     22  C   UNL     1      -3.011  -2.157  -6.609  0.00  0.00    +0.008 C 
ATOM     23  C   UNL     1      -3.258  -1.222  -7.792  0.00  0.00    +0.035 C 
ATOM     24  C   UNL     1      -2.054  -0.352  -8.039  0.00  0.00    -0.041 A 
ATOM     25  C   UNL     1      -1.067  -0.165  -7.096  0.00  0.00    -0.011 A 
ATOM     26  C   UNL     1       0.015   0.655  -7.386  0.00  0.00    +0.007 A 
ATOM     27  C   UNL     1       0.111   1.283  -8.611  0.00  0.00    +0.000 A 
ATOM     28  C   UNL     1      -0.877   1.093  -9.559  0.00  0.00    +0.000 A 
ATOM     29  C   UNL     1      -1.954   0.279  -9.272  0.00  0.00    +0.004 A 
BRANCH  20  30
ATOM     30  O   UNL     1      -0.204  -1.931  -5.730  0.00  0.00    -0.382 OA
ATOM     31  H   UNL     1       0.715  -1.692  -5.915  0.00  0.00    +0.211 HD
ENDBRANCH  20  30
ENDBRANCH  19  20
ENDBRANCH   3  19
TORSDOF 5
