REMARK  Name = ZINC63097112
REMARK  6 active torsions:
REMARK  status: ('A' for Active; 'I' for Inactive)
REMARK    1  A    between atoms: C_1  and  C_2
REMARK    2  A    between atoms: C_2  and  C_3
REMARK    3  A    between atoms: C_2  and  C_4
REMARK    4  A    between atoms: C_2  and  C_5
REMARK    5  A    between atoms: C_8  and  C_11
REMARK    6  A    between atoms: N_19  and  C_20
REMARK                            x       y       z     vdW  Elec       q    Type
REMARK                         _______ _______ _______ _____ _____    ______ ____
ROOT
ATOM      1  C   UNL     1       2.969  -1.481  -4.520  0.00  0.00    +0.028 C 
ATOM      2  C   UNL     1       3.840  -2.694  -4.193  0.00  0.00    +0.034 C 
ATOM      3  C   UNL     1       4.917  -2.245  -3.205  0.00  0.00    +0.115 C 
ATOM      4  C   UNL     1       5.735  -1.184  -3.933  0.00  0.00    +0.029 C 
ATOM      5  C   UNL     1       7.016  -1.434  -3.608  0.00  0.00    +0.093 C 
ATOM      6  N   UNL     1       7.113  -2.588  -2.889  0.00  0.00    -0.281 N 
ATOM      7  N   UNL     1       5.913  -3.294  -2.928  0.00  0.00    -0.182 NA
ATOM      8  C   UNL     1       5.174  -0.279  -4.830  0.00  0.00    +0.163 C 
ATOM      9  O   UNL     1       5.867   0.599  -5.306  0.00  0.00    -0.292 OA
ATOM     10  C   UNL     1       3.730  -0.370  -5.216  0.00  0.00    +0.087 C 
ATOM     11  H   UNL     1       7.903  -2.876  -2.406  0.00  0.00    +0.166 HD
ENDROOT
BRANCH   7  12
ATOM     12  C   UNL     1       5.630  -3.964  -1.652  0.00  0.00    +0.269 C 
ATOM     13  N   UNL     1       4.359  -4.694  -1.736  0.00  0.00    -0.350 N 
ATOM     14  C   UNL     1       3.560  -4.192  -0.840  0.00  0.00    +0.061 A 
ATOM     15  C   UNL     1       2.177  -4.499  -0.450  0.00  0.00    +0.027 A 
ATOM     16  C   UNL     1       1.593  -3.794   0.539  0.00  0.00    +0.002 A 
ATOM     17  C   UNL     1       2.255  -2.762   1.228  0.00  0.00    +0.002 A 
ATOM     18  C   UNL     1       3.523  -2.399   0.949  0.00  0.00    +0.027 A 
ATOM     19  C   UNL     1       4.261  -3.099  -0.111  0.00  0.00    +0.061 A 
ATOM     20  N   UNL     1       5.466  -2.968  -0.585  0.00  0.00    -0.350 N 
ATOM     21  H   UNL     1       4.153  -5.418  -2.348  0.00  0.00    +0.163 HD
ATOM     22  H   UNL     1       6.133  -2.330  -0.288  0.00  0.00    +0.163 HD
ENDBRANCH   7  12
BRANCH   1  26
ATOM     23  C   UNL     1       1.329   0.048  -0.885  0.00  0.00    -0.042 A 
ATOM     24  C   UNL     1       0.719  -1.014  -1.525  0.00  0.00    +0.004 A 
ATOM     25  C   UNL     1       1.249  -1.509  -2.702  0.00  0.00    +0.004 A 
ATOM     26  C   UNL     1       2.390  -0.941  -3.238  0.00  0.00    -0.044 A 
ATOM     27  C   UNL     1       2.999   0.122  -2.598  0.00  0.00    +0.004 A 
ATOM     28  C   UNL     1       2.466   0.619  -1.424  0.00  0.00    +0.004 A 
BRANCH  23  30
ATOM     29  C   UNL     1       0.204   1.996   0.159  0.00  0.00    +0.015 C 
ATOM     30  C   UNL     1       0.750   0.587   0.398  0.00  0.00    -0.013 C 
ATOM     31  C   UNL     1       1.842   0.638   1.468  0.00  0.00    +0.015 C 
ATOM     32  C   UNL     1      -0.384  -0.325   0.870  0.00  0.00    +0.015 C 
ENDBRANCH  23  30
ENDBRANCH   1  26
TORSDOF 3
