REMARK  Name = ZINC36660374
REMARK  11 active torsions:
REMARK  status: ('A' for Active; 'I' for Inactive)
REMARK    1  A    between atoms: C_1  and  C_2
REMARK    2  A    between atoms: C_5  and  C_36
REMARK    3  A    between atoms: N_11  and  C_12
REMARK    4  A    between atoms: C_12  and  C_13
REMARK    5  A    between atoms: C_13  and  C_14
REMARK    6  A    between atoms: C_14  and  N_15
REMARK    7  A    between atoms: N_15  and  C_16
REMARK    8  A    between atoms: N_15  and  C_17
REMARK    9  A    between atoms: C_18  and  C_20
REMARK   10  A    between atoms: N_25  and  S_26
REMARK   11  A    between atoms: S_26  and  C_29
REMARK                            x       y       z     vdW  Elec       q    Type
REMARK                         _______ _______ _______ _____ _____    ______ ____
ROOT
ATOM      1  C   UNL     1      -0.514   0.355   0.446  0.00  0.00    +0.046 C 
ATOM      2  C   UNL     1      -0.243  -1.094   0.762  0.00  0.00    -0.024 A 
ATOM      3  C   UNL     1      -0.190  -2.011  -0.256  0.00  0.00    +0.006 A 
ATOM      4  C   UNL     1       0.056  -3.353  -0.010  0.00  0.00    +0.005 A 
ATOM      5  C   UNL     1       0.252  -3.779   1.292  0.00  0.00    -0.035 A 
ATOM      6  C   UNL     1       0.200  -2.868   2.317  0.00  0.00    +0.044 A 
ATOM      7  C   UNL     1      -0.043  -1.492   2.103  0.00  0.00    +0.083 A 
ATOM      8  N   UNL     1      -0.058  -0.721   3.213  0.00  0.00    -0.224 NA
ATOM      9  C   UNL     1       0.143  -1.211   4.414  0.00  0.00    +0.168 A 
ATOM     10  S   UNL     1       0.384  -2.950   4.082  0.00  0.00    -0.052 S 
ATOM     11  N   UNL     1       0.156  -0.548   5.631  0.00  0.00    -0.249 N 
ATOM     12  C   UNL     1      -0.058   0.782   5.677  0.00  0.00    +0.240 C 
ATOM     13  O   UNL     1      -0.358   1.383   4.667  0.00  0.00    -0.273 OA
ATOM     14  C   UNL     1       0.520  -5.233   1.582  0.00  0.00    +0.045 C 
ENDROOT
BRANCH  12  15
ATOM     15  C   UNL     1       0.077   1.522   6.982  0.00  0.00    +0.166 C 
ATOM     16  C   UNL     1      -1.283   1.553   7.711  0.00  0.00    +0.031 C 
ATOM     17  C   UNL     1      -1.313   2.975   8.330  0.00  0.00    +0.019 C 
ATOM     18  C   UNL     1      -0.592   3.805   7.239  0.00  0.00    +0.110 C 
ATOM     19  N   UNL     1       0.472   2.915   6.729  0.00  0.00    -0.165 NA
BRANCH  19  20
ATOM     20  S   UNL     1       1.873   3.403   5.994  0.00  0.00    +0.062 S 
ATOM     21  O   UNL     1       2.214   4.660   6.562  0.00  0.00    -0.153 OA
ATOM     22  O   UNL     1       2.756   2.289   6.022  0.00  0.00    -0.153 OA
BRANCH  20  23
ATOM     23  C   UNL     1       1.496   3.703   4.299  0.00  0.00    +0.106 A 
ATOM     24  C   UNL     1       1.686   2.705   3.362  0.00  0.00    +0.031 A 
ATOM     25  C   UNL     1       1.390   2.938   2.032  0.00  0.00    +0.040 A 
ATOM     26  C   UNL     1       0.903   4.173   1.639  0.00  0.00    +0.124 A 
ATOM     27  C   UNL     1       0.713   5.173   2.579  0.00  0.00    +0.040 A 
ATOM     28  C   UNL     1       1.004   4.935   3.908  0.00  0.00    +0.031 A 
ATOM     29  F   UNL     1       0.613   4.403   0.340  0.00  0.00    -0.205 F 
ENDBRANCH  20  23
ENDBRANCH  19  20
ENDBRANCH  12  15
BRANCH  11  30
ATOM     30  C   UNL     1       0.403  -1.293   6.868  0.00  0.00    +0.114 C 
BRANCH  30  31
ATOM     31  C   UNL     1       1.910  -1.410   7.101  0.00  0.00    +0.001 C 
BRANCH  31  32
ATOM     32  C   UNL     1       2.168  -2.189   8.393  0.00  0.00    -0.078 C 
BRANCH  32  33
ATOM     33  N   UNL     1       3.615  -2.301   8.617  0.00  0.00    +0.376 N 
ATOM     34  C   UNL     1       4.180  -0.965   8.849  0.00  0.00    -0.097 C 
ATOM     35  C   UNL     1       3.865  -3.149   9.790  0.00  0.00    -0.097 C 
ATOM     36  H   UNL     1       4.050  -2.713   7.805  0.00  0.00    -0.083 HD
ENDBRANCH  32  33
ENDBRANCH  31  32
ENDBRANCH  30  31
ENDBRANCH  11  30
TORSDOF 7
