REMARK  Name = ZINC26786819
REMARK  9 active torsions:
REMARK  status: ('A' for Active; 'I' for Inactive)
REMARK    1  A    between atoms: C_1  and  C_2
REMARK    2  A    between atoms: C_4  and  N_20
REMARK    3  A    between atoms: C_5  and  C_19
REMARK    4  A    between atoms: C_6  and  S_9
REMARK    5  A    between atoms: C_7  and  O_8
REMARK    6  A    between atoms: S_9  and  C_12
REMARK    7  A    between atoms: N_20  and  S_21
REMARK    8  A    between atoms: S_21  and  C_24
REMARK    9  A    between atoms: C_28  and  N_30
REMARK                            x       y       z     vdW  Elec       q    Type
REMARK                         _______ _______ _______ _____ _____    ______ ____
ROOT
ATOM      1  C   UNL     1       0.803   1.900  -2.169  0.00  0.00    +0.047 C 
ATOM      2  C   UNL     1       1.619   2.176  -0.932  0.00  0.00    -0.005 A 
ATOM      3  C   UNL     1       2.929   2.599  -1.050  0.00  0.00    +0.031 A 
ATOM      4  C   UNL     1       3.680   2.853   0.090  0.00  0.00    +0.053 A 
ATOM      5  C   UNL     1       3.114   2.684   1.346  0.00  0.00    +0.001 A 
ATOM      6  C   UNL     1       1.802   2.267   1.462  0.00  0.00    +0.140 A 
ATOM      7  C   UNL     1       1.054   2.007   0.323  0.00  0.00    +0.145 A 
ATOM      8  C   UNL     1       3.929   2.960   2.584  0.00  0.00    +0.048 C 
ENDROOT
BRANCH   6   9
ATOM      9  S   UNL     1       1.081   2.059   3.056  0.00  0.00    +0.029 S 
ATOM     10  O   UNL     1       1.816   2.889   3.945  0.00  0.00    -0.164 OA
ATOM     11  O   UNL     1      -0.324   2.181   2.885  0.00  0.00    -0.164 OA
BRANCH   9  12
ATOM     12  C   UNL     1       1.386   0.396   3.552  0.00  0.00    +0.094 A 
ATOM     13  C   UNL     1       0.474  -0.596   3.242  0.00  0.00    +0.029 A 
ATOM     14  C   UNL     1       0.715  -1.901   3.626  0.00  0.00    +0.022 A 
ATOM     15  C   UNL     1       1.864  -2.214   4.331  0.00  0.00    +0.041 A 
ATOM     16  C   UNL     1       2.773  -1.220   4.646  0.00  0.00    +0.022 A 
ATOM     17  C   UNL     1       2.534   0.084   4.256  0.00  0.00    +0.029 A 
ATOM     18 CL   UNL     1       2.164  -3.853   4.820  0.00  0.00    -0.084 Cl
ENDBRANCH   9  12
ENDBRANCH   6   9
BRANCH   7  19
ATOM     19  O   UNL     1      -0.236   1.592   0.437  0.00  0.00    -0.505 OA
ATOM     20  H   UNL     1      -0.684   1.458   1.433  0.00  0.00    +0.292 HD
ENDBRANCH   7  19
BRANCH   4  21
ATOM     21  N   UNL     1       5.007   3.282  -0.028  0.00  0.00    -0.216 N 
ATOM     22  H   UNL     1       5.759   2.951   0.704  0.00  0.00    +0.174 HD
BRANCH  21  23
ATOM     23  S   UNL     1       5.446   4.287  -1.269  0.00  0.00    +0.072 S 
ATOM     24  O   UNL     1       6.803   4.644  -1.042  0.00  0.00    -0.150 OA
ATOM     25  O   UNL     1       5.013   3.662  -2.470  0.00  0.00    -0.150 OA
BRANCH  23  26
ATOM     26  C   UNL     1       4.502   5.764  -1.101  0.00  0.00    +0.111 A 
ATOM     27  C   UNL     1       4.991   6.816  -0.349  0.00  0.00    +0.029 A 
ATOM     28  C   UNL     1       4.250   7.976  -0.218  0.00  0.00    +0.004 A 
ATOM     29  C   UNL     1       3.020   8.084  -0.839  0.00  0.00    +0.033 A 
ATOM     30  C   UNL     1       2.530   7.032  -1.590  0.00  0.00    +0.128 A 
ATOM     31  C   UNL     1       3.274   5.875  -1.726  0.00  0.00    +0.061 A 
BRANCH  30  32
ATOM     32  N   UNL     1       1.213   7.148  -2.256  0.00  0.00    +0.056 N 
ATOM     33  O   UNL     1       0.560   8.170  -2.140  0.00  0.00    -0.126 OA
ATOM     34  O   UNL     1       0.782   6.222  -2.918  0.00  0.00    -0.126 OA
ENDBRANCH  30  32
ENDBRANCH  23  26
ENDBRANCH  21  23
ENDBRANCH   4  21
TORSDOF 7
