REMARK  Name = ZINC15613946
REMARK  8 active torsions:
REMARK  status: ('A' for Active; 'I' for Inactive)
REMARK    1  A    between atoms: C_1  and  C_2
REMARK    2  A    between atoms: C_7  and  C_9
REMARK    3  A    between atoms: C_7  and  C_10
REMARK    4  A    between atoms: N_13  and  C_17
REMARK    5  A    between atoms: C_17  and  C_18
REMARK    6  A    between atoms: N_20  and  C_21
REMARK    7  A    between atoms: C_21  and  C_22
REMARK    8  A    between atoms: N_24  and  C_25
REMARK                            x       y       z     vdW  Elec       q    Type
REMARK                         _______ _______ _______ _____ _____    ______ ____
ROOT
ATOM      1  C   UNL     1      -2.317  -3.314  -4.335  0.00  0.00    +0.231 C 
ATOM      2  O   UNL     1      -1.977  -2.172  -4.561  0.00  0.00    -0.274 OA
ATOM      3  N   UNL     1      -3.336  -3.863  -5.025  0.00  0.00    -0.305 N 
ATOM      4  H   UNL     1      -3.608  -4.776  -4.844  0.00  0.00    +0.149 HD
ENDROOT
BRANCH   1   5
ATOM      5  C   UNL     1      -1.599  -4.119  -3.283  0.00  0.00    +0.213 C 
BRANCH   5  17
ATOM      6  C   UNL     1      -0.094   1.541   0.059  0.00  0.00    +0.007 C 
ATOM      7  C   UNL     1      -0.067   0.010   0.049  0.00  0.00    -0.011 C 
ATOM      8  C   UNL     1       0.668  -0.474  -1.203  0.00  0.00    +0.038 C 
ATOM      9  C   UNL     1       0.659  -1.996  -1.249  0.00  0.00    +0.113 C 
ATOM     10  C   UNL     1       1.205  -2.627   0.017  0.00  0.00    +0.041 C 
ATOM     11  C   UNL     1       0.717  -2.015   1.318  0.00  0.00    -0.032 C 
ATOM     12  C   UNL     1       0.688  -0.492   1.278  0.00  0.00    +0.009 C 
ATOM     13  C   UNL     1      -0.666  -2.558   1.687  0.00  0.00    +0.011 C 
ATOM     14  C   UNL     1       1.692  -2.437   2.439  0.00  0.00    +0.011 C 
ATOM     15  C   UNL     1      -0.713  -2.516  -1.599  0.00  0.00    +0.247 C 
ATOM     16  O   UNL     1      -1.768  -2.274  -1.054  0.00  0.00    -0.273 OA
ATOM     17  N   UNL     1      -0.541  -3.305  -2.682  0.00  0.00    -0.215 N 
ATOM     18  C   UNL     1       0.717  -3.247  -3.135  0.00  0.00    +0.310 C 
ATOM     19  O   UNL     1       1.113  -3.859  -4.108  0.00  0.00    -0.252 OA
ATOM     20  N   UNL     1       1.491  -2.439  -2.391  0.00  0.00    -0.285 N 
ATOM     21  H   UNL     1       2.411  -2.187  -2.555  0.00  0.00    +0.151 HD
ENDBRANCH   5  17
ENDBRANCH   1   5
BRANCH   3  22
ATOM     22  C   UNL     1      -4.034  -3.080  -6.048  0.00  0.00    +0.200 C 
BRANCH  22  23
ATOM     23  C   UNL     1      -5.123  -3.918  -6.666  0.00  0.00    +0.234 C 
ATOM     24  O   UNL     1      -5.300  -5.057  -6.289  0.00  0.00    -0.274 OA
ATOM     25  N   UNL     1      -5.901  -3.402  -7.638  0.00  0.00    -0.282 N 
ATOM     26  H   UNL     1      -5.804  -2.471  -7.894  0.00  0.00    +0.155 HD
BRANCH  25  27
ATOM     27  C   UNL     1      -6.852  -4.209  -8.277  0.00  0.00    +0.072 A 
ATOM     28  C   UNL     1      -7.516  -5.197  -7.565  0.00  0.00    +0.029 A 
ATOM     29  C   UNL     1      -8.453  -5.993  -8.196  0.00  0.00    +0.043 A 
ATOM     30  C   UNL     1      -8.731  -5.806  -9.539  0.00  0.00    +0.161 A 
ATOM     31  C   UNL     1      -8.070  -4.820 -10.255  0.00  0.00    +0.195 A 
ATOM     32  C   UNL     1      -7.134  -4.017  -9.625  0.00  0.00    +0.182 A 
ATOM     33  F   UNL     1      -6.494  -3.051 -10.319  0.00  0.00    -0.200 F 
ATOM     34  F   UNL     1      -8.341  -4.640 -11.566  0.00  0.00    -0.199 F 
ATOM     35  F   UNL     1      -9.647  -6.586 -10.154  0.00  0.00    -0.202 F 
ENDBRANCH  25  27
ENDBRANCH  22  23
ENDBRANCH   3  22
TORSDOF 5
