REMARK  Name = ZINC04003838
REMARK  8 active torsions:
REMARK  status: ('A' for Active; 'I' for Inactive)
REMARK    1  A    between atoms: C_1  and  O_2
REMARK    2  A    between atoms: O_2  and  C_3
REMARK    3  A    between atoms: C_5  and  C_13
REMARK    4  A    between atoms: C_7  and  O_11
REMARK    5  A    between atoms: C_8  and  O_9
REMARK    6  A    between atoms: O_9  and  C_10
REMARK    7  A    between atoms: O_11  and  C_12
REMARK    8  A    between atoms: C_18  and  C_28
REMARK                            x       y       z     vdW  Elec       q    Type
REMARK                         _______ _______ _______ _____ _____    ______ ____
ROOT
ATOM      1  C   UNL     1       6.535  -1.784   1.466  0.00  0.00    +0.032 C 
ATOM      2  C   UNL     1       5.064  -1.903   1.070  0.00  0.00    +0.059 C 
ATOM      3  C   UNL     1       4.503  -0.527   0.748  0.00  0.00    +0.017 C 
ATOM      4  C   UNL     1       4.946   0.556   1.407  0.00  0.00    +0.037 C 
ATOM      5  C   UNL     1       4.453   1.971   1.218  0.00  0.00    +0.139 C 
ATOM      6  N   UNL     1       3.613   2.160   0.054  0.00  0.00    -0.331 N 
ATOM      7  C   UNL     1       2.372   1.534  -0.046  0.00  0.00    +0.049 A 
ATOM      8  C   UNL     1       1.192   2.261  -0.036  0.00  0.00    +0.025 A 
ATOM      9  C   UNL     1      -0.020   1.593  -0.063  0.00  0.00    +0.002 A 
ATOM     10  C   UNL     1      -0.057   0.211  -0.106  0.00  0.00    +0.002 A 
ATOM     11  C   UNL     1       1.120  -0.518  -0.143  0.00  0.00    +0.025 A 
ATOM     12  C   UNL     1       2.332   0.149  -0.121  0.00  0.00    +0.052 A 
ATOM     13  N   UNL     1       3.549  -0.517  -0.217  0.00  0.00    -0.316 N 
ATOM     14  C   UNL     1       5.967   0.432   2.379  0.00  0.00    +0.163 C 
ATOM     15  O   UNL     1       6.333   1.427   2.973  0.00  0.00    -0.292 OA
ATOM     16  C   UNL     1       6.614  -0.881   2.702  0.00  0.00    +0.088 C 
ATOM     17  H   UNL     1       3.950   2.807  -0.769  0.00  0.00    +0.147 HD
ATOM     18  H   UNL     1       3.712  -1.063  -1.158  0.00  0.00    +0.152 HD
ENDROOT
BRANCH   5  19
ATOM     19  C   UNL     1       3.670   2.373   2.441  0.00  0.00    +0.012 A 
ATOM     20  C   UNL     1       3.209   1.406   3.315  0.00  0.00    +0.008 A 
ATOM     21  C   UNL     1       2.495   1.774   4.440  0.00  0.00    +0.001 A 
ATOM     22  C   UNL     1       2.231   3.109   4.686  0.00  0.00    +0.003 A 
ATOM     23  C   UNL     1       2.686   4.077   3.810  0.00  0.00    +0.039 A 
ATOM     24  C   UNL     1       3.406   3.709   2.686  0.00  0.00    +0.129 A 
ATOM     25  F   UNL     1       3.850   4.654   1.829  0.00  0.00    -0.205 F 
ENDBRANCH   5  19
BRANCH   1  28
ATOM     26  C   UNL     1       8.664  -4.905   1.365  0.00  0.00    +0.165 A 
ATOM     27  C   UNL     1       8.152  -3.651   1.068  0.00  0.00    +0.053 A 
ATOM     28  C   UNL     1       7.088  -3.147   1.793  0.00  0.00    -0.036 A 
ATOM     29  C   UNL     1       6.534  -3.888   2.820  0.00  0.00    +0.053 A 
ATOM     30  C   UNL     1       7.037  -5.145   3.120  0.00  0.00    +0.165 A 
ATOM     31  C   UNL     1       8.106  -5.655   2.394  0.00  0.00    +0.204 A 
BRANCH  26  33
ATOM     32  C   UNL     1      10.233  -4.575  -0.391  0.00  0.00    +0.277 C 
ATOM     33  O   UNL     1       9.710  -5.401   0.651  0.00  0.00    -0.491 OA
ENDBRANCH  26  33
BRANCH  31  34
ATOM     34  O   UNL     1       8.605  -6.887   2.689  0.00  0.00    -0.488 OA
ATOM     35  C   UNL     1       9.656  -6.947   3.655  0.00  0.00    +0.277 C 
ENDBRANCH  31  34
BRANCH  30  36
ATOM     36  O   UNL     1       6.487  -5.875   4.127  0.00  0.00    -0.491 OA
ATOM     37  C   UNL     1       5.391  -5.287   4.831  0.00  0.00    +0.277 C 
ENDBRANCH  30  36
ENDBRANCH   1  28
TORSDOF 5
