REMARK  Name = ZINC60308988
REMARK  9 active torsions:
REMARK  status: ('A' for Active; 'I' for Inactive)
REMARK    1  A    between atoms: C_1  and  C_2
REMARK    2  A    between atoms: C_2  and  C_3
REMARK    3  A    between atoms: C_3  and  C_4
REMARK    4  A    between atoms: C_14  and  C_16
REMARK    5  A    between atoms: C_16  and  C_17
REMARK    6  A    between atoms: C_17  and  C_18
REMARK    7  A    between atoms: C_20  and  C_23
REMARK    8  A    between atoms: C_23  and  N_30
REMARK    9  A    between atoms: C_31  and  C_33
REMARK                            x       y       z     vdW  Elec       q    Type
REMARK                         _______ _______ _______ _____ _____    ______ ____
ROOT
ATOM      1  C   UNL     1       0.413 -11.084   3.289  0.00  0.00    +0.108 C 
ENDROOT
BRANCH   1   2
ATOM      2  C   UNL     1       0.002 -12.523   3.468  0.00  0.00    +0.228 A 
ATOM      3  N   UNL     1       0.043 -13.449   2.551  0.00  0.00    -0.194 NA
ATOM      4  C   UNL     1      -0.394 -14.610   3.051  0.00  0.00    +0.195 A 
ATOM      5  N   UNL     1      -0.719 -14.436   4.300  0.00  0.00    -0.059 NA
ATOM      6  O   UNL     1      -0.462 -13.072   4.598  0.00  0.00    -0.338 OA
BRANCH   4   7
ATOM      7  C   UNL     1      -0.494 -15.909   2.292  0.00  0.00    +0.097 C 
ATOM      8  C   UNL     1      -1.390 -15.697   1.055  0.00  0.00    +0.034 C 
ATOM      9  C   UNL     1      -1.089 -16.781   0.056  0.00  0.00    +0.003 C 
ATOM     10  C   UNL     1      -2.044 -17.983   0.186  0.00  0.00    +0.000 C 
ATOM     11  C   UNL     1      -2.323 -18.369   1.651  0.00  0.00    +0.000 C 
ATOM     12  C   UNL     1      -1.086 -18.320   2.505  0.00  0.00    +0.003 C 
ATOM     13  C   UNL     1      -1.013 -16.936   3.183  0.00  0.00    +0.034 C 
BRANCH   7  14
ATOM     14  N   UNL     1       0.845 -16.300   1.845  0.00  0.00    -0.303 N 
ATOM     15  C   UNL     1       1.546 -15.489   1.028  0.00  0.00    +0.211 C 
ATOM     16  O   UNL     1       1.069 -14.436   0.664  0.00  0.00    -0.276 OA
ATOM     17  C   UNL     1       2.924 -15.892   0.568  0.00  0.00    +0.109 C 
ATOM     18  H   UNL     1       1.226 -17.143   2.136  0.00  0.00    +0.150 HD
ENDBRANCH   7  14
ENDBRANCH   4   7
ENDBRANCH   1   2
BRANCH   1  19
ATOM     19  C   UNL     1      -0.795 -10.261   2.839  0.00  0.00    +0.105 C 
BRANCH  19  29
ATOM     20  C   UNL     1       0.763  -2.041   1.233  0.00  0.00    -0.006 C 
ATOM     21  C   UNL     1       1.603  -2.549   2.408  0.00  0.00    +0.010 C 
ATOM     22  C   UNL     1       1.837  -4.055   2.275  0.00  0.00    +0.056 C 
ATOM     23  C   UNL     1       0.493  -4.743   2.083  0.00  0.00    +0.054 A 
ATOM     24  C   UNL     1      -0.594  -4.034   1.683  0.00  0.00    +0.015 A 
ATOM     25  S   UNL     1      -1.859  -5.271   1.618  0.00  0.00    -0.057 S 
ATOM     26  C   UNL     1      -0.912  -6.580   2.099  0.00  0.00    +0.165 A 
ATOM     27  N   UNL     1       0.273  -6.040   2.280  0.00  0.00    -0.229 NA
ATOM     28  N   UNL     1      -1.291  -7.907   2.264  0.00  0.00    -0.265 N 
ATOM     29  C   UNL     1      -0.384  -8.822   2.660  0.00  0.00    +0.219 C 
ATOM     30  O   UNL     1       0.762  -8.488   2.872  0.00  0.00    -0.275 OA
ATOM     31  C   UNL     1      -0.671  -2.576   1.377  0.00  0.00    +0.048 C 
ATOM     32  H   UNL     1      -2.208  -8.174   2.094  0.00  0.00    +0.157 HD
BRANCH  20  33
ATOM     33  C   UNL     1       0.742  -0.511   1.242  0.00  0.00    +0.003 C 
BRANCH  33  35
ATOM     34  C   UNL     1      -0.019   1.526   0.010  0.00  0.00    +0.004 C 
ATOM     35  C   UNL     1       0.002  -0.004   0.002  0.00  0.00    -0.003 C 
ENDBRANCH  33  35
ENDBRANCH  20  33
ENDBRANCH  19  29
ENDBRANCH   1  19
TORSDOF 7
