REMARK  Name = ZINC36019790
REMARK  13 active torsions:
REMARK  status: ('A' for Active; 'I' for Inactive)
REMARK    1  A    between atoms: C_1  and  C_2
REMARK    2  A    between atoms: C_2  and  O_3
REMARK    3  A    between atoms: O_3  and  C_4
REMARK    4  A    between atoms: C_4  and  C_6
REMARK    5  A    between atoms: C_7  and  C_24
REMARK    6  A    between atoms: N_8  and  C_21
REMARK    7  A    between atoms: C_12  and  C_14
REMARK    8  A    between atoms: C_21  and  C_22
REMARK    9  A    between atoms: C_24  and  N_25
REMARK   10  A    between atoms: C_29  and  C_32
REMARK   11  A    between atoms: N_35  and  C_36
REMARK   12  A    between atoms: C_36  and  C_37
REMARK   13  A    between atoms: C_36  and  C_38
REMARK                            x       y       z     vdW  Elec       q    Type
REMARK                         _______ _______ _______ _____ _____    ______ ____
ROOT
ATOM      1  C   UNL     1       2.369  -2.965  -2.272  0.00  0.00    +0.080 C 
ATOM      2  C   UNL     1       2.369  -4.304  -2.441  0.00  0.00    +0.041 C 
ATOM      3  N   UNL     1       2.966  -4.878  -3.527  0.00  0.00    -0.254 N 
ATOM      4  C   UNL     1       3.584  -4.182  -4.489  0.00  0.00    +0.307 C 
ATOM      5  O   UNL     1       4.087  -4.782  -5.419  0.00  0.00    -0.252 OA
ATOM      6  N   UNL     1       3.668  -2.837  -4.460  0.00  0.00    -0.288 N 
ATOM      7  C   UNL     1       3.049  -2.121  -3.331  0.00  0.00    +0.144 C 
ATOM      8  H   UNL     1       4.121  -2.352  -5.167  0.00  0.00    +0.151 HD
ENDROOT
BRANCH   7   9
ATOM      9  C   UNL     1       2.028  -1.161  -3.887  0.00  0.00    -0.021 A 
ATOM     10  C   UNL     1       1.116  -1.594  -4.832  0.00  0.00    +0.006 A 
ATOM     11  C   UNL     1       0.179  -0.715  -5.342  0.00  0.00    +0.002 A 
ATOM     12  C   UNL     1       0.154   0.598  -4.908  0.00  0.00    +0.020 A 
ATOM     13  C   UNL     1       1.067   1.031  -3.963  0.00  0.00    +0.041 A 
ATOM     14  C   UNL     1       2.001   0.149  -3.448  0.00  0.00    +0.025 A 
ATOM     15 CL   UNL     1       1.037   2.679  -3.418  0.00  0.00    -0.084 Cl
ENDBRANCH   7   9
BRANCH   1  16
ATOM     16  C   UNL     1       1.751  -2.369  -1.148  0.00  0.00    +0.339 C 
ATOM     17  O   UNL     1       0.671  -1.821  -1.267  0.00  0.00    -0.245 OA
BRANCH  16  18
ATOM     18  O   UNL     1       2.359  -2.409   0.056  0.00  0.00    -0.462 OA
BRANCH  18  20
ATOM     19  C   UNL     1       2.514  -1.932   2.420  0.00  0.00    +0.048 C 
ATOM     20  C   UNL     1       1.678  -1.787   1.147  0.00  0.00    +0.229 C 
ENDBRANCH  18  20
ENDBRANCH  16  18
ENDBRANCH   1  16
BRANCH   3  21
ATOM     21  C   UNL     1       2.927  -6.338  -3.647  0.00  0.00    +0.141 C 
BRANCH  21  22
ATOM     22  C   UNL     1       1.692  -6.747  -4.407  0.00  0.00    -0.015 C 
ATOM     23  C   UNL     1       1.799  -7.497  -5.476  0.00  0.00    +0.005 C 
ENDBRANCH  21  22
ENDBRANCH   3  21
BRANCH   2  24
ATOM     24  C   UNL     1       1.699  -5.181  -1.414  0.00  0.00    +0.136 C 
BRANCH  24  25
ATOM     25  N   UNL     1       0.525  -5.829  -2.014  0.00  0.00    -0.294 NA
ATOM     26  C   UNL     1      -0.502  -4.838  -2.362  0.00  0.00    +0.104 C 
ATOM     27  C   UNL     1      -1.626  -5.526  -3.145  0.00  0.00    +0.125 C 
ATOM     28  N   UNL     1      -2.108  -6.672  -2.360  0.00  0.00    -0.280 N 
ATOM     29  C   UNL     1      -1.119  -7.637  -1.858  0.00  0.00    +0.088 C 
ATOM     30  C   UNL     1      -0.015  -6.866  -1.126  0.00  0.00    +0.107 C 
ATOM     31  C   UNL     1      -1.796  -8.613  -0.893  0.00  0.00    +0.029 C 
ATOM     32  C   UNL     1      -3.422  -6.834  -2.108  0.00  0.00    +0.303 C 
ATOM     33  O   UNL     1      -3.795  -7.736  -1.382  0.00  0.00    -0.253 OA
ATOM     34  N   UNL     1      -4.323  -5.997  -2.660  0.00  0.00    -0.297 N 
ATOM     35  H   UNL     1      -4.034  -5.326  -3.298  0.00  0.00    +0.150 HD
BRANCH  34  36
ATOM     36  C   UNL     1      -5.738  -6.102  -2.298  0.00  0.00    +0.068 C 
ATOM     37  C   UNL     1      -5.998  -5.302  -1.020  0.00  0.00    +0.027 C 
ATOM     38  C   UNL     1      -6.598  -5.542  -3.433  0.00  0.00    +0.027 C 
ENDBRANCH  34  36
ENDBRANCH  24  25
ENDBRANCH   2  24
TORSDOF 9
