REMARK  Name = ZINC08431530
REMARK  11 active torsions:
REMARK  status: ('A' for Active; 'I' for Inactive)
REMARK    1  A    between atoms: C_1  and  C_2
REMARK    2  A    between atoms: C_5  and  O_12
REMARK    3  A    between atoms: C_8  and  C_10
REMARK    4  A    between atoms: C_8  and  C_11
REMARK    5  A    between atoms: O_12  and  C_13
REMARK    6  A    between atoms: C_13  and  C_14
REMARK    7  A    between atoms: C_14  and  C_16
REMARK    8  A    between atoms: C_14  and  O_38
REMARK    9  A    between atoms: C_16  and  N_76
REMARK   10  A    between atoms: C_19  and  C_22
REMARK   11  A    between atoms: C_22  and  N_23
REMARK                            x       y       z     vdW  Elec       q    Type
REMARK                         _______ _______ _______ _____ _____    ______ ____
ROOT
ATOM      1  C   UNL     1      -8.831   0.118   1.780  0.00  0.00    -0.078 C 
ATOM      2  C   UNL     1     -10.214  -0.506   1.579  0.00  0.00    -0.014 C 
ATOM      3  C   UNL     1     -11.230   0.218   2.467  0.00  0.00    +0.003 C 
ATOM      4  C   UNL     1     -11.227   1.709   2.120  0.00  0.00    -0.014 C 
ATOM      5  C   UNL     1      -9.815   2.269   2.306  0.00  0.00    -0.078 C 
ATOM      6  N   UNL     1      -8.890   1.546   1.406  0.00  0.00    +0.381 N 
ATOM      7  H   UNL     1      -9.235   1.624   0.442  0.00  0.00    -0.082 HD
ENDROOT
BRANCH   6   8
ATOM      8  C   UNL     1      -7.542   2.145   1.483  0.00  0.00    -0.045 C 
BRANCH   8   9
ATOM      9  C   UNL     1      -6.577   1.308   0.641  0.00  0.00    +0.124 C 
BRANCH   9  10
ATOM     10  O   UNL     1      -7.049   1.248  -0.707  0.00  0.00    -0.391 OA
ATOM     11  H   UNL     1      -7.127   2.112  -1.135  0.00  0.00    +0.210 HD
ENDBRANCH   9  10
BRANCH   9  12
ATOM     12  C   UNL     1      -5.189   1.951   0.666  0.00  0.00    +0.189 C 
BRANCH  12  13
ATOM     13  O   UNL     1      -4.261   1.109  -0.023  0.00  0.00    -0.374 OA
BRANCH  13  17
ATOM     14  C   UNL     1       0.043   1.161   2.350  0.00  0.00    +0.007 C 
ATOM     15  C   UNL     1      -0.728   1.664   1.128  0.00  0.00    -0.011 C 
ATOM     16  C   UNL     1      -2.156   1.117   1.165  0.00  0.00    +0.035 C 
ATOM     17  C   UNL     1      -2.927   1.620  -0.057  0.00  0.00    +0.119 C 
ATOM     18  C   UNL     1      -2.231   1.142  -1.333  0.00  0.00    +0.038 C 
ATOM     19  C   UNL     1      -0.802   1.689  -1.369  0.00  0.00    -0.032 C 
ATOM     20  C   UNL     1      -0.031   1.185  -0.147  0.00  0.00    +0.009 C 
ATOM     21  C   UNL     1      -0.842   3.219  -1.353  0.00  0.00    +0.011 C 
ATOM     22  C   UNL     1      -0.105   1.210  -2.645  0.00  0.00    +0.011 C 
ENDBRANCH  13  17
ENDBRANCH  12  13
ENDBRANCH   9  12
ENDBRANCH   8   9
ENDBRANCH   6   8
BRANCH   3  23
ATOM     23  C   UNL     1     -12.625  -0.361   2.227  0.00  0.00    +0.120 C 
BRANCH  23  24
ATOM     24  N   UNL     1     -12.659  -1.757   2.671  0.00  0.00    -0.234 N 
ATOM     25  C   UNL     1     -12.348  -2.725   1.788  0.00  0.00    +0.254 C 
ATOM     26  O   UNL     1     -12.046  -2.430   0.648  0.00  0.00    -0.270 OA
ATOM     27  C   UNL     1     -12.366  -4.137   2.198  0.00  0.00    +0.046 A 
ATOM     28  C   UNL     1     -12.046  -5.166   1.324  0.00  0.00    +0.014 A 
ATOM     29  C   UNL     1     -12.082  -6.486   1.758  0.00  0.00    +0.001 A 
ATOM     30  C   UNL     1     -12.426  -6.810   3.039  0.00  0.00    +0.008 A 
ATOM     31  C   UNL     1     -12.755  -5.797   3.956  0.00  0.00    -0.016 A 
ATOM     32  C   UNL     1     -12.723  -4.453   3.528  0.00  0.00    +0.006 A 
ATOM     33  C   UNL     1     -13.049  -3.412   4.427  0.00  0.00    +0.046 A 
ATOM     34  C   UNL     1     -13.399  -3.732   5.730  0.00  0.00    +0.014 A 
ATOM     35  C   UNL     1     -13.427  -5.060   6.139  0.00  0.00    +0.001 A 
ATOM     36  C   UNL     1     -13.115  -6.079   5.285  0.00  0.00    +0.008 A 
ATOM     37  C   UNL     1     -13.004  -2.024   3.944  0.00  0.00    +0.254 C 
ATOM     38  O   UNL     1     -13.281  -1.112   4.700  0.00  0.00    -0.270 OA
ENDBRANCH  23  24
ENDBRANCH   3  23
TORSDOF 8
