REMARK  Name = ZINC12417198
REMARK  8 active torsions:
REMARK  status: ('A' for Active; 'I' for Inactive)
REMARK    1  A    between atoms: C_1  and  C_2
REMARK    2  A    between atoms: C_4  and  C_28
REMARK    3  A    between atoms: C_12  and  C_13
REMARK    4  A    between atoms: C_16  and  C_18
REMARK    5  A    between atoms: C_21  and  O_26
REMARK    6  A    between atoms: C_22  and  O_24
REMARK    7  A    between atoms: O_24  and  C_25
REMARK    8  A    between atoms: O_26  and  C_27
REMARK                            x       y       z     vdW  Elec       q    Type
REMARK                         _______ _______ _______ _____ _____    ______ ____
ROOT
ATOM      1  C   UNL     1      -0.296   0.734  -2.454  0.00  0.00    +0.010 C 
ATOM      2  C   UNL     1      -0.784   1.508  -1.227  0.00  0.00    +0.022 C 
ATOM      3  C   UNL     1      -2.278   1.244  -1.009  0.00  0.00    +0.104 C 
ATOM      4  N   UNL     1      -2.761   2.131   0.050  0.00  0.00    -0.336 N 
ATOM      5  C   UNL     1      -2.018   2.044   1.217  0.00  0.00    +0.046 A 
ATOM      6  C   UNL     1      -0.728   1.544   1.255  0.00  0.00    -0.017 A 
ATOM      7  C   UNL     1      -0.036   1.507   2.454  0.00  0.00    +0.021 A 
ATOM      8  C   UNL     1      -0.620   1.959   3.625  0.00  0.00    +0.019 A 
ATOM      9  C   UNL     1      -1.906   2.454   3.610  0.00  0.00    +0.032 A 
ATOM     10  C   UNL     1      -2.617   2.500   2.410  0.00  0.00    +0.085 A 
ATOM     11 BR   UNL     1       0.349   1.899   5.248  0.00  0.00    -0.050 Br
ATOM     12  C   UNL     1      -0.034   1.030   0.018  0.00  0.00    +0.056 C 
ATOM     13  H   UNL     1      -3.741   1.976   0.233  0.00  0.00    +0.147 HD
ENDROOT
BRANCH   3  14
ATOM     14  C   UNL     1      -3.032   1.522  -2.284  0.00  0.00    -0.027 A 
ATOM     15  C   UNL     1      -3.339   2.823  -2.635  0.00  0.00    +0.008 A 
ATOM     16  C   UNL     1      -4.026   3.079  -3.807  0.00  0.00    +0.038 A 
ATOM     17  C   UNL     1      -4.416   2.032  -4.624  0.00  0.00    +0.123 A 
ATOM     18  C   UNL     1      -4.113   0.728  -4.268  0.00  0.00    +0.038 A 
ATOM     19  C   UNL     1      -3.421   0.475  -3.099  0.00  0.00    +0.008 A 
ATOM     20  F   UNL     1      -5.093   2.281  -5.766  0.00  0.00    -0.205 F 
ENDBRANCH   3  14
BRANCH  12  21
ATOM     21  C   UNL     1       1.380   1.550  -0.017  0.00  0.00    -0.036 A 
ATOM     22  C   UNL     1       1.613   2.912  -0.045  0.00  0.00    +0.008 A 
ATOM     23  C   UNL     1       2.909   3.394  -0.077  0.00  0.00    +0.050 A 
ATOM     24  C   UNL     1       3.976   2.511  -0.081  0.00  0.00    +0.162 A 
ATOM     25  C   UNL     1       3.741   1.140  -0.053  0.00  0.00    +0.162 A 
ATOM     26  C   UNL     1       2.441   0.663  -0.015  0.00  0.00    +0.053 A 
BRANCH  25  27
ATOM     27  O   UNL     1       4.786   0.269  -0.057  0.00  0.00    -0.491 OA
ATOM     28  C   UNL     1       4.470  -1.124  -0.027  0.00  0.00    +0.277 C 
ENDBRANCH  25  27
BRANCH  24  29
ATOM     29  O   UNL     1       5.251   2.984  -0.113  0.00  0.00    -0.491 OA
ATOM     30  C   UNL     1       5.417   4.403  -0.142  0.00  0.00    +0.277 C 
ENDBRANCH  24  29
ENDBRANCH  12  21
BRANCH  10  31
ATOM     31  C   UNL     1      -3.993   3.025   2.389  0.00  0.00    +0.388 C 
ATOM     32  O   UNL     1      -4.570   3.174   1.330  0.00  0.00    -0.241 OA
ATOM     33  O   UNL     1      -4.612   3.339   3.545  0.00  0.00    -0.241 OA
ENDBRANCH  10  31
TORSDOF 5
