REMARK  Name = ZINC38646330
REMARK  5 active torsions:
REMARK  status: ('A' for Active; 'I' for Inactive)
REMARK    1  A    between atoms: C_1  and  C_2
REMARK    2  A    between atoms: C_7  and  C_8
REMARK    3  A    between atoms: C_7  and  C_9
REMARK    4  A    between atoms: N_12  and  N_13
REMARK    5  A    between atoms: C_14  and  C_16
REMARK                            x       y       z     vdW  Elec       q    Type
REMARK                         _______ _______ _______ _____ _____    ______ ____
ROOT
ATOM      1  C   UNL     1      -0.037   1.546   0.137  0.00  0.00    +0.018 C 
ATOM      2  C   UNL     1      -0.001   0.018   0.071  0.00  0.00    +0.013 C 
ATOM      3  C   UNL     1       0.673  -0.592  -1.195  0.00  0.00    +0.013 C 
ATOM      4  C   UNL     1       1.037  -2.037  -0.785  0.00  0.00    +0.005 C 
ATOM      5  C   UNL     1       0.538  -2.161   0.688  0.00  0.00    +0.001 C 
ATOM      6  C   UNL     1       0.806  -0.704   1.207  0.00  0.00    -0.021 C 
ATOM      7  C   UNL     1       2.293  -0.345   1.174  0.00  0.00    +0.012 C 
ATOM      8  C   UNL     1       0.194  -0.464   2.589  0.00  0.00    +0.012 C 
ATOM      9  C   UNL     1      -1.017  -2.155   0.570  0.00  0.00    +0.057 C 
ATOM     10  C   UNL     1      -1.359  -0.689   0.187  0.00  0.00    +0.044 C 
ATOM     11  N   UNL     1      -2.517  -0.183  -0.014  0.00  0.00    -0.188 NA
ENDROOT
BRANCH  11  12
ATOM     12  N   UNL     1      -2.635   1.113  -0.532  0.00  0.00    -0.203 N 
ATOM     13  C   UNL     1      -3.849   1.688  -0.640  0.00  0.00    +0.270 C 
ATOM     14  O   UNL     1      -4.844   1.081  -0.286  0.00  0.00    -0.268 OA
ATOM     15  H   UNL     1      -1.843   1.597  -0.813  0.00  0.00    +0.178 HD
BRANCH  13  16
ATOM     16  C   UNL     1      -3.973   3.043  -1.181  0.00  0.00    +0.077 A 
ATOM     17  C   UNL     1      -5.114   3.809  -1.369  0.00  0.00    +0.022 A 
ATOM     18  C   UNL     1      -4.913   5.058  -1.903  0.00  0.00    +0.028 A 
ATOM     19  C   UNL     1      -3.649   5.451  -2.204  0.00  0.00    +0.079 A 
ATOM     20  S   UNL     1      -2.695   4.140  -1.764  0.00  0.00    -0.072 S 
ATOM     21 CL   UNL     1      -3.135   6.964  -2.882  0.00  0.00    -0.076 Cl
ENDBRANCH  13  16
ENDBRANCH  11  12
TORSDOF 2
