REMARK  Name = ZINC40114426
REMARK  7 active torsions:
REMARK  status: ('A' for Active; 'I' for Inactive)
REMARK    1  A    between atoms: C_1  and  C_2
REMARK    2  A    between atoms: C_2  and  C_3
REMARK    3  A    between atoms: C_2  and  C_4
REMARK    4  A    between atoms: C_4  and  C_6
REMARK    5  A    between atoms: C_4  and  N_12
REMARK    6  A    between atoms: N_10  and  C_11
REMARK    7  A    between atoms: C_13  and  C_15
REMARK                            x       y       z     vdW  Elec       q    Type
REMARK                         _______ _______ _______ _____ _____    ______ ____
ROOT
ATOM      1  N   UNL     1      -1.413  -1.998   0.005  0.00  0.00    -0.301 N 
ATOM      2  C   UNL     1      -1.292  -2.677   1.163  0.00  0.00    +0.251 C 
ATOM      3  O   UNL     1      -1.198  -2.073   2.215  0.00  0.00    -0.270 OA
ATOM      4  H   UNL     1      -1.488  -2.480  -0.834  0.00  0.00    +0.150 HD
ENDROOT
BRANCH   2   5
ATOM      5  C   UNL     1      -1.272  -4.143   1.155  0.00  0.00    +0.074 A 
ATOM      6  C   UNL     1      -1.162  -5.019   2.212  0.00  0.00    +0.024 A 
ATOM      7  C   UNL     1      -1.144  -6.383   1.908  0.00  0.00    -0.036 A 
ATOM      8  C   UNL     1      -1.193  -6.718   0.605  0.00  0.00    -0.006 A 
ATOM      9  S   UNL     1      -1.390  -5.263  -0.224  0.00  0.00    -0.088 S 
ATOM     10  C   UNL     1      -1.037  -8.034  -0.116  0.00  0.00    +0.043 C 
ATOM     11  C   UNL     1      -0.752  -9.191   0.842  0.00  0.00    +0.005 C 
ATOM     12  C   UNL     1      -2.031  -9.672   1.507  0.00  0.00    +0.000 C 
ATOM     13  C   UNL     1      -2.979  -8.541   1.850  0.00  0.00    +0.000 C 
ATOM     14  C   UNL     1      -2.530  -7.978   3.202  0.00  0.00    +0.005 C 
ATOM     15  C   UNL     1      -1.128  -7.388   3.051  0.00  0.00    +0.036 C 
ENDBRANCH   2   5
BRANCH   1  16
ATOM     16  C   UNL     1      -1.433  -0.534   0.013  0.00  0.00    +0.142 C 
BRANCH  16  17
ATOM     17  C   UNL     1      -2.162  -0.034  -1.208  0.00  0.00    +0.130 A 
ATOM     18  N   UNL     1      -2.006  -0.483  -2.424  0.00  0.00    -0.239 NA
ATOM     19  C   UNL     1      -2.816   0.193  -3.252  0.00  0.00    +0.130 A 
ATOM     20  C   UNL     1      -3.500   1.095  -2.522  0.00  0.00    +0.106 A 
ATOM     21  N   UNL     1      -3.090   0.947  -1.225  0.00  0.00    -0.336 N 
ATOM     22  C   UNL     1      -3.565   1.713  -0.070  0.00  0.00    +0.150 C 
ENDBRANCH  16  17
BRANCH  16  24
ATOM     23  C   UNL     1      -0.019   1.526   0.010  0.00  0.00    +0.009 C 
ATOM     24  C   UNL     1       0.002  -0.004   0.002  0.00  0.00    +0.011 C 
ATOM     25  C   UNL     1       0.742  -0.511   1.242  0.00  0.00    +0.009 C 
ENDBRANCH  16  24
ENDBRANCH   1  16
TORSDOF 4
