REMARK  Name = ZINC40399660
REMARK  9 active torsions:
REMARK  status: ('A' for Active; 'I' for Inactive)
REMARK    1  A    between atoms: C_1  and  C_2
REMARK    2  A    between atoms: C_2  and  C_3
REMARK    3  A    between atoms: C_3  and  C_5
REMARK    4  A    between atoms: C_3  and  N_6
REMARK    5  A    between atoms: C_9  and  C_27
REMARK    6  A    between atoms: N_15  and  S_18
REMARK    7  A    between atoms: S_18  and  C_21
REMARK    8  A    between atoms: C_27  and  C_28
REMARK    9  A    between atoms: C_27  and  C_29
REMARK                            x       y       z     vdW  Elec       q    Type
REMARK                         _______ _______ _______ _____ _____    ______ ____
ROOT
ATOM      1  N   UNL     1      -0.203  -0.015  -2.435  0.00  0.00    -0.311 N 
ATOM      2  C   UNL     1      -1.532  -0.207  -2.576  0.00  0.00    +0.201 C 
ATOM      3  O   UNL     1      -2.249  -0.800  -1.798  0.00  0.00    -0.277 OA
ATOM      4  C   UNL     1      -1.976   0.443  -3.869  0.00  0.00    +0.022 C 
ATOM      5  N   UNL     1      -0.724   0.657  -4.634  0.00  0.00    +0.401 N 
ATOM      6  C   UNL     1       0.303   0.757  -3.573  0.00  0.00    +0.006 C 
ATOM      7  C   UNL     1       1.618   0.162  -4.072  0.00  0.00    +0.023 C 
ATOM      8  C   UNL     1       2.664   0.230  -2.954  0.00  0.00    +0.109 C 
ATOM      9  N   UNL     1       2.760   1.617  -2.481  0.00  0.00    -0.177 NA
ATOM     10  C   UNL     1       1.535   2.304  -2.049  0.00  0.00    +0.109 C 
ATOM     11  C   UNL     1       0.499   2.219  -3.175  0.00  0.00    +0.023 C 
ATOM     12  H   UNL     1      -0.539  -0.127  -5.242  0.00  0.00    -0.082 HD
ATOM     13  H   UNL     1      -0.771   1.516  -5.162  0.00  0.00    -0.082 HD
ENDROOT
BRANCH   9  14
ATOM     14  S   UNL     1       4.222   2.394  -2.437  0.00  0.00    +0.061 S 
ATOM     15  O   UNL     1       4.105   3.425  -1.466  0.00  0.00    -0.153 OA
ATOM     16  O   UNL     1       5.217   1.382  -2.358  0.00  0.00    -0.153 OA
BRANCH  14  17
ATOM     17  C   UNL     1       4.436   3.191  -3.994  0.00  0.00    +0.105 A 
ATOM     18  C   UNL     1       5.050   2.519  -5.035  0.00  0.00    +0.028 A 
ATOM     19  C   UNL     1       5.218   3.144  -6.256  0.00  0.00    +0.002 A 
ATOM     20  C   UNL     1       4.772   4.441  -6.437  0.00  0.00    +0.000 A 
ATOM     21  C   UNL     1       4.158   5.111  -5.396  0.00  0.00    +0.002 A 
ATOM     22  C   UNL     1       3.986   4.485  -4.176  0.00  0.00    +0.028 A 
ENDBRANCH  14  17
ENDBRANCH   9  14
BRANCH   4  23
ATOM     23  C   UNL     1      -2.920  -0.485  -4.635  0.00  0.00    -0.023 C 
ATOM     24  C   UNL     1      -4.168  -0.752  -3.792  0.00  0.00    +0.006 C 
ATOM     25  C   UNL     1      -3.327   0.177  -5.953  0.00  0.00    +0.006 C 
ENDBRANCH   4  23
BRANCH   1  26
ATOM     26  C   UNL     1       0.606  -0.499  -1.314  0.00  0.00    +0.071 C 
ATOM     27  C   UNL     1       1.075  -1.926  -1.602  0.00  0.00    +0.028 C 
BRANCH  26  29
ATOM     28  C   UNL     1      -0.653   0.951   0.285  0.00  0.00    +0.005 C 
ATOM     29  C   UNL     1      -0.234  -0.486  -0.035  0.00  0.00    +0.019 C 
ENDBRANCH  26  29
ENDBRANCH   1  26
TORSDOF 5
