REMARK  Name = ZINC09663460
REMARK  8 active torsions:
REMARK  status: ('A' for Active; 'I' for Inactive)
REMARK    1  A    between atoms: C_1  and  C_2
REMARK    2  A    between atoms: C_2  and  C_4
REMARK    3  A    between atoms: C_2  and  N_61
REMARK    4  A    between atoms: N_6  and  C_7
REMARK    5  A    between atoms: C_8  and  C_17
REMARK    6  A    between atoms: N_21  and  S_24
REMARK    7  A    between atoms: S_24  and  C_27
REMARK    8  A    between atoms: C_32  and  C_33
REMARK                            x       y       z     vdW  Elec       q    Type
REMARK                         _______ _______ _______ _____ _____    ______ ____
ROOT
ATOM      1  C   UNL     1       1.135  -2.115   5.285  0.00  0.00    -0.004 C 
ATOM      2  C   UNL     1       1.093  -0.614   4.993  0.00  0.00    +0.017 C 
ENDROOT
BRANCH   2   8
ATOM      3  C   UNL     1       3.167  -0.971   3.796  0.00  0.00    -0.060 C 
ATOM      4  C   UNL     1       3.985  -0.509   2.585  0.00  0.00    +0.091 C 
ATOM      5  N   UNL     1       3.201  -0.764   1.367  0.00  0.00    -0.180 NA
ATOM      6  C   UNL     1       1.818  -0.267   1.312  0.00  0.00    +0.091 C 
ATOM      7  C   UNL     1       1.084  -0.744   2.575  0.00  0.00    -0.060 C 
ATOM      8  N   UNL     1       1.848  -0.302   3.762  0.00  0.00    +0.389 N 
ATOM      9  H   UNL     1       1.991   0.713   3.706  0.00  0.00    -0.081 HD
BRANCH   5  10
ATOM     10  S   UNL     1       3.861  -1.584   0.088  0.00  0.00    +0.062 S 
ATOM     11  O   UNL     1       5.252  -1.295   0.095  0.00  0.00    -0.153 OA
ATOM     12  O   UNL     1       3.033  -1.319  -1.035  0.00  0.00    -0.153 OA
BRANCH  10  13
ATOM     13  C   UNL     1       3.703  -3.304   0.435  0.00  0.00    +0.123 A 
ATOM     14  C   UNL     1       4.827  -4.068   0.675  0.00  0.00    +0.030 A 
ATOM     15  C   UNL     1       4.705  -5.418   0.948  0.00  0.00    +0.002 A 
ATOM     16  C   UNL     1       3.456  -6.013   0.984  0.00  0.00    +0.001 A 
ATOM     17  C   UNL     1       2.324  -5.261   0.751  0.00  0.00    +0.021 A 
ATOM     18  C   UNL     1       2.440  -3.898   0.469  0.00  0.00    +0.078 A 
BRANCH  18  19
ATOM     19  C   UNL     1       1.269  -3.112   0.222  0.00  0.00    +0.101 C 
ATOM     20  N   UNL     1       0.340  -2.489   0.026  0.00  0.00    -0.191 NA
ENDBRANCH  18  19
ENDBRANCH  10  13
ENDBRANCH   5  10
ENDBRANCH   2   8
BRANCH   2  21
ATOM     21  C   UNL     1       1.711   0.139   6.142  0.00  0.00    +0.204 C 
ATOM     22  O   UNL     1       2.771   0.708   5.994  0.00  0.00    -0.277 OA
ATOM     23  N   UNL     1       1.085   0.180   7.335  0.00  0.00    -0.280 N 
ATOM     24  H   UNL     1       0.236  -0.275   7.454  0.00  0.00    +0.155 HD
BRANCH  23  25
ATOM     25  C   UNL     1       1.654   0.874   8.394  0.00  0.00    +0.090 A 
ATOM     26  C   UNL     1       1.169   1.030   9.682  0.00  0.00    +0.084 A 
ATOM     27  C   UNL     1       1.965   1.811  10.617  0.00  0.00    -0.018 A 
ATOM     28  C   UNL     1       3.110   2.315  10.108  0.00  0.00    -0.004 A 
ATOM     29  S   UNL     1       3.148   1.750   8.428  0.00  0.00    -0.077 S 
ATOM     30  C   UNL     1       4.127   3.164  10.804  0.00  0.00    +0.043 C 
ATOM     31  C   UNL     1       4.485   2.522  12.151  0.00  0.00    +0.005 C 
ATOM     32  C   UNL     1       3.527   3.056  13.211  0.00  0.00    +0.001 C 
ATOM     33  C   UNL     1       2.155   3.324  12.594  0.00  0.00    +0.005 C 
ATOM     34  C   UNL     1       1.546   2.030  12.066  0.00  0.00    +0.037 C 
BRANCH  26  35
ATOM     35  C   UNL     1      -0.075   0.441  10.080  0.00  0.00    +0.102 C 
ATOM     36  N   UNL     1      -1.061  -0.025  10.396  0.00  0.00    -0.191 NA
ENDBRANCH  26  35
ENDBRANCH  23  25
ENDBRANCH   2  21
TORSDOF 7
