REMARK  Name = ZINC12447165
REMARK  6 active torsions:
REMARK  status: ('A' for Active; 'I' for Inactive)
REMARK    1  A    between atoms: C_1  and  C_2
REMARK    2  A    between atoms: C_5  and  N_9
REMARK    3  A    between atoms: C_10  and  C_12
REMARK    4  A    between atoms: C_12  and  S_13
REMARK    5  A    between atoms: S_13  and  C_14
REMARK    6  A    between atoms: N_24  and  C_25
REMARK                            x       y       z     vdW  Elec       q    Type
REMARK                         _______ _______ _______ _____ _____    ______ ____
ROOT
ATOM      1  C   UNL     1       1.756   2.097   0.015  0.00  0.00    +0.173 C 
ENDROOT
BRANCH   1   3
ATOM      2  N   UNL     1       3.240   4.076  -0.007  0.00  0.00    -0.284 N 
ATOM      3  C   UNL     1       1.984   3.586   0.009  0.00  0.00    +0.228 C 
ATOM      4  O   UNL     1       1.038   4.345   0.018  0.00  0.00    -0.275 OA
ATOM      5  H   UNL     1       3.996   3.472   0.051  0.00  0.00    +0.155 HD
BRANCH   2  10
ATOM      6  C   UNL     1       4.100   9.670  -0.411  0.00  0.00    +0.044 C 
ATOM      7  C   UNL     1       3.872   8.184  -0.305  0.00  0.00    -0.049 A 
ATOM      8  C   UNL     1       2.782   7.702   0.397  0.00  0.00    +0.005 A 
ATOM      9  C   UNL     1       2.569   6.341   0.497  0.00  0.00    +0.025 A 
ATOM     10  C   UNL     1       3.452   5.456  -0.107  0.00  0.00    +0.052 A 
ATOM     11  C   UNL     1       4.549   5.942  -0.807  0.00  0.00    +0.062 A 
ATOM     12  C   UNL     1       4.753   7.306  -0.908  0.00  0.00    +0.025 A 
ATOM     13 CL   UNL     1       5.659   4.840  -1.559  0.00  0.00    -0.082 Cl
ENDBRANCH   2  10
ENDBRANCH   1   3
BRANCH   1  14
ATOM     14  S   UNL     1      -0.022   1.759   0.036  0.00  0.00    -0.078 S 
BRANCH  14  15
ATOM     15  C   UNL     1       0.001  -0.003   0.040  0.00  0.00    +0.171 A 
ATOM     16  N   UNL     1       1.081  -0.744   0.024  0.00  0.00    -0.215 NA
ATOM     17  C   UNL     1       0.726  -2.053   0.035  0.00  0.00    +0.173 A 
ATOM     18  C   UNL     1       1.448  -3.271   0.029  0.00  0.00    +0.279 A 
ATOM     19  O   UNL     1       2.668  -3.275   0.014  0.00  0.00    -0.265 OA
ATOM     20  N   UNL     1       0.750  -4.428   0.040  0.00  0.00    -0.312 N 
ATOM     21  H   UNL     1       1.222  -5.276   0.036  0.00  0.00    +0.170 HD
ATOM     22  C   UNL     1      -0.607  -4.411   0.056  0.00  0.00    +0.201 A 
ATOM     23  N   UNL     1      -1.286  -3.298   0.062  0.00  0.00    -0.218 NA
ATOM     24  C   UNL     1      -0.670  -2.108   0.052  0.00  0.00    +0.168 A 
ATOM     25  N   UNL     1      -1.106  -0.806   0.055  0.00  0.00    -0.307 N 
ATOM     26  C   UNL     1      -2.501  -0.360   0.071  0.00  0.00    +0.153 C 
ENDBRANCH  14  15
ENDBRANCH   1  14
TORSDOF 4
