REMARK  Name = ZINC04100837
REMARK  8 active torsions:
REMARK  status: ('A' for Active; 'I' for Inactive)
REMARK    1  A    between atoms: C_4  and  C_7
REMARK    2  A    between atoms: C_7  and  O_8
REMARK    3  A    between atoms: O_8  and  C_9
REMARK    4  A    between atoms: C_11  and  O_38
REMARK    5  A    between atoms: C_13  and  O_37
REMARK    6  A    between atoms: C_15  and  O_29
REMARK    7  A    between atoms: O_29  and  C_30
REMARK    8  A    between atoms: C_30  and  C_31
REMARK                            x       y       z     vdW  Elec       q    Type
REMARK                         _______ _______ _______ _____ _____    ______ ____
ROOT
ATOM      1  C   UNL     1       0.825  -0.546  -1.178  0.00  0.00    +0.181 C 
ATOM      2  C   UNL     1       0.002  -0.004   0.002  0.00  0.00    +0.177 C 
ATOM      3  C   UNL     1      -0.019   1.522   0.010  0.00  0.00    +0.177 C 
ATOM      4  C   UNL     1       1.404   2.103  -0.000  0.00  0.00    +0.181 C 
ATOM      5  C   UNL     1       2.103   1.569  -1.236  0.00  0.00    +0.184 C 
ATOM      6  C   UNL     1       2.221   0.029  -1.058  0.00  0.00    +0.184 C 
ATOM      7  O   UNL     1       3.162  -0.313  -2.069  0.00  0.00    -0.340 OA
ATOM      8  C   UNL     1       3.996   0.854  -2.231  0.00  0.00    +0.171 C 
ATOM      9  O   UNL     1       3.482   1.916  -1.394  0.00  0.00    -0.340 OA
ATOM     10  C   UNL     1       5.424   0.521  -1.805  0.00  0.00    +0.065 C 
ATOM     11  C   UNL     1       6.313   1.754  -1.985  0.00  0.00    +0.005 C 
ATOM     12  C   UNL     1       6.295   2.184  -3.454  0.00  0.00    +0.000 C 
ATOM     13  C   UNL     1       4.863   2.532  -3.865  0.00  0.00    +0.005 C 
ATOM     14  C   UNL     1       3.969   1.302  -3.691  0.00  0.00    +0.065 C 
ENDROOT
BRANCH   3  15
ATOM     15  O   UNL     1      -0.722   1.986  -1.144  0.00  0.00    -0.386 OA
ATOM     16  H   UNL     1      -1.639   1.685  -1.193  0.00  0.00    +0.210 HD
ENDBRANCH   3  15
BRANCH   2  17
ATOM     17  O   UNL     1      -1.338  -0.489  -0.101  0.00  0.00    -0.386 OA
ATOM     18  H   UNL     1      -1.914  -0.212   0.625  0.00  0.00    +0.210 HD
ENDBRANCH   2  17
BRANCH   1  19
ATOM     19  O   UNL     1       0.880  -1.973  -1.117  0.00  0.00    -0.367 OA
BRANCH  19  20
ATOM     20  C   UNL     1      -0.182  -2.626  -1.815  0.00  0.00    +0.195 C 
BRANCH  20  24
ATOM     21  C   UNL     1       0.262  -6.859  -1.447  0.00  0.00    +0.000 A 
ATOM     22  C   UNL     1      -0.474  -6.157  -0.511  0.00  0.00    +0.000 A 
ATOM     23  C   UNL     1      -0.618  -4.787  -0.630  0.00  0.00    +0.006 A 
ATOM     24  C   UNL     1      -0.025  -4.119  -1.685  0.00  0.00    -0.022 A 
ATOM     25  C   UNL     1       0.706  -4.822  -2.624  0.00  0.00    +0.006 A 
ATOM     26  C   UNL     1       0.854  -6.191  -2.502  0.00  0.00    +0.000 A 
ENDBRANCH  20  24
ENDBRANCH  19  20
ENDBRANCH   1  19
BRANCH   4  27
ATOM     27  O   UNL     1       1.346   3.530  -0.054  0.00  0.00    -0.367 OA
BRANCH  27  28
ATOM     28  C   UNL     1       1.311   4.159   1.228  0.00  0.00    +0.195 C 
BRANCH  28  29
ATOM     29  C   UNL     1       1.251   5.655   1.053  0.00  0.00    -0.022 A 
ATOM     30  C   UNL     1       2.419   6.391   0.986  0.00  0.00    +0.006 A 
ATOM     31  C   UNL     1       2.363   7.762   0.819  0.00  0.00    +0.000 A 
ATOM     32  C   UNL     1       1.139   8.398   0.732  0.00  0.00    +0.000 A 
ATOM     33  C   UNL     1      -0.029   7.663   0.804  0.00  0.00    +0.000 A 
ATOM     34  C   UNL     1       0.027   6.291   0.965  0.00  0.00    +0.006 A 
ENDBRANCH  28  29
ENDBRANCH  27  28
ENDBRANCH   4  27
TORSDOF 8
