REMARK  Name = ZINC13234866
REMARK  7 active torsions:
REMARK  status: ('A' for Active; 'I' for Inactive)
REMARK    1  A    between atoms: C_10  and  N_12
REMARK    2  A    between atoms: C_13  and  C_15
REMARK    3  A    between atoms: C_15  and  N_16
REMARK    4  A    between atoms: N_19  and  CA_20
REMARK    5  A    between atoms: CA_20  and  CB_22
REMARK    6  A    between atoms: CA_20  and  C_33
REMARK    7  A    between atoms: CB_22  and  CG_23
REMARK                            x       y       z     vdW  Elec       q    Type
REMARK                         _______ _______ _______ _____ _____    ______ ____
ROOT
ATOM      1  N   UNK A   0      -1.063   8.489  -0.683  0.00  0.00    -0.291 N 
ATOM      2  C   UNK A   0      -0.848   9.650  -1.334  0.00  0.00    +0.301 C 
ATOM      3  O   UNK A   0      -1.195   9.771  -2.493  0.00  0.00    -0.253 OA
ATOM      4  N   TRP A   1      -0.247  10.677  -0.700  0.00  0.00    -0.286 N 
ATOM      5  H   UNK A   0      -0.786   8.393   0.241  0.00  0.00    +0.151 HD
ATOM      6  H   TRP A   1       0.029  10.580   0.225  0.00  0.00    +0.151 HD
ENDROOT
BRANCH   1   7
ATOM      7  C   UNK A   0      -1.715   7.373  -1.373  0.00  0.00    +0.201 C 
BRANCH   7   9
ATOM      8  N   UNK A   0      -2.408   5.057  -0.851  0.00  0.00    -0.307 N 
ATOM      9  C   UNK A   0      -1.836   6.203  -0.431  0.00  0.00    +0.231 C 
ATOM     10  O   UNK A   0      -1.418   6.292   0.704  0.00  0.00    -0.274 OA
ATOM     11  H   UNK A   0      -2.742   4.985  -1.759  0.00  0.00    +0.149 HD
BRANCH   8  21
ATOM     12  C   UNK A   0       1.176   1.776   0.000  0.00  0.00    +0.000 A 
ATOM     13  C   UNK A   0       1.158   3.159   0.008  0.00  0.00    +0.000 A 
ATOM     14  C   UNK A   0      -0.048   3.828   0.027  0.00  0.00    +0.006 A 
ATOM     15  C   UNK A   0      -1.246   3.125   0.036  0.00  0.00    -0.024 A 
ATOM     16  C   UNK A   0      -1.228   1.748   0.017  0.00  0.00    -0.042 A 
ATOM     17  C   UNK A   0      -0.013   1.076   0.008  0.00  0.00    +0.004 A 
ATOM     18  C   UNK A   0      -2.487   0.921   0.017  0.00  0.00    +0.035 C 
ATOM     19  C   UNK A   0      -3.682   1.760   0.466  0.00  0.00    +0.007 C 
ATOM     20  C   UNK A   0      -3.707   3.050  -0.362  0.00  0.00    +0.027 C 
ATOM     21  C   UNK A   0      -2.525   3.919   0.065  0.00  0.00    +0.103 C 
ENDBRANCH   8  21
ENDBRANCH   7   9
ENDBRANCH   1   7
BRANCH   4  22
ATOM     22  CA  TRP A   1      -0.013  11.938  -1.407  0.00  0.00    +0.192 C 
BRANCH  22  23
ATOM     23  C   TRP A   1      -1.248  12.797  -1.323  0.00  0.00    +0.376 C 
ATOM     24  O   TRP A   1      -2.224  12.397  -0.734  0.00  0.00    -0.244 OA
ATOM     25  OXT TRP A   1      -1.264  14.007  -1.904  0.00  0.00    -0.244 OA
ENDBRANCH  22  23
BRANCH  22  26
ATOM     26  CB  TRP A   1       1.164  12.673  -0.763  0.00  0.00    +0.071 C 
BRANCH  26  27
ATOM     27  CG  TRP A   1       2.424  11.869  -0.954  0.00  0.00    -0.020 A 
ATOM     28  CD1 TRP A   1       2.954  10.995  -0.084  0.00  0.00    +0.087 A 
ATOM     29  NE1 TRP A   1       4.100  10.456  -0.602  0.00  0.00    -0.360 N 
ATOM     30  HE1 TRP A   1       4.658   9.800  -0.157  0.00  0.00    +0.165 HD
ATOM     31  CE2 TRP A   1       4.342  10.984  -1.851  0.00  0.00    +0.047 A 
ATOM     32  CD2 TRP A   1       3.299  11.887  -2.129  0.00  0.00    +0.003 A 
ATOM     33  CE3 TRP A   1       3.280  12.576  -3.343  0.00  0.00    +0.010 A 
ATOM     34  CZ3 TRP A   1       4.273  12.366  -4.258  0.00  0.00    +0.001 A 
ATOM     35  CH2 TRP A   1       5.301  11.473  -3.990  0.00  0.00    +0.002 A 
ATOM     36  CZ2 TRP A   1       5.344  10.789  -2.795  0.00  0.00    +0.026 A 
ENDBRANCH  26  27
ENDBRANCH  22  26
ENDBRANCH   4  22
TORSDOF 7
