REMARK  Name = ZINC35523320
REMARK  7 active torsions:
REMARK  status: ('A' for Active; 'I' for Inactive)
REMARK    1  A    between atoms: C_1  and  C_2
REMARK    2  A    between atoms: C_7  and  C_9
REMARK    3  A    between atoms: C_7  and  C_10
REMARK    4  A    between atoms: C_13  and  C_15
REMARK    5  A    between atoms: C_18  and  C_20
REMARK    6  A    between atoms: C_20  and  N_21
REMARK    7  A    between atoms: C_29  and  C_31
REMARK                            x       y       z     vdW  Elec       q    Type
REMARK                         _______ _______ _______ _____ _____    ______ ____
ROOT
ATOM      1  C   UNL     1      -3.642  -2.461  -0.624  0.00  0.00    +0.190 A 
ATOM      2  C   UNL     1      -4.737  -3.251  -0.821  0.00  0.00    +0.055 A 
ATOM      3  C   UNL     1      -5.819  -2.603  -0.205  0.00  0.00    +0.043 A 
ATOM      4  C   UNL     1      -5.342  -1.459   0.334  0.00  0.00    +0.090 A 
ATOM      5  O   UNL     1      -4.029  -1.379   0.084  0.00  0.00    -0.457 OA
ENDROOT
BRANCH   1  17
ATOM      6  C   UNL     1      -0.019   1.532   0.011  0.00  0.00    +0.013 C 
ATOM      7  C   UNL     1       0.002  -0.004   0.002  0.00  0.00    -0.014 C 
ATOM      8  C   UNL     1       0.685  -0.578  -1.269  0.00  0.00    +0.030 C 
ATOM      9  C   UNL     1       0.129  -2.024  -1.231  0.00  0.00    +0.078 C 
ATOM     10  C   UNL     1       0.888  -2.772  -0.139  0.00  0.00    +0.029 C 
ATOM     11  C   UNL     1       0.823  -2.105   1.223  0.00  0.00    -0.033 C 
ATOM     12  C   UNL     1       0.726  -0.591   1.212  0.00  0.00    +0.014 C 
ATOM     13  C   UNL     1       2.126  -2.474   1.975  0.00  0.00    +0.011 C 
ATOM     14  C   UNL     1      -0.332  -2.701   2.040  0.00  0.00    +0.011 C 
ATOM     15  N   UNL     1      -1.283  -1.875  -0.825  0.00  0.00    -0.291 N 
ATOM     16  C   UNL     1      -1.417  -0.610  -0.086  0.00  0.00    +0.115 C 
ATOM     17  C   UNL     1      -2.281  -2.741  -1.094  0.00  0.00    +0.282 C 
ATOM     18  O   UNL     1      -2.053  -3.755  -1.726  0.00  0.00    -0.267 OA
ENDBRANCH   1  17
BRANCH   4  19
ATOM     19  C   UNL     1      -6.154  -0.442   1.095  0.00  0.00    -0.002 C 
BRANCH  19  20
ATOM     20  N   UNL     1      -6.148  -0.781   2.524  0.00  0.00    +0.394 N 
ATOM     21  C   UNL     1      -4.779  -0.671   3.045  0.00  0.00    -0.055 C 
ATOM     22  C   UNL     1      -4.697  -1.317   4.434  0.00  0.00    +0.103 C 
ATOM     23  N   UNL     1      -5.779  -0.764   5.257  0.00  0.00    -0.353 N 
ATOM     24  C   UNL     1      -5.915  -0.808   6.606  0.00  0.00    +0.086 A 
ATOM     25  C   UNL     1      -7.058  -0.167   6.935  0.00  0.00    +0.019 A 
ATOM     26  C   UNL     1      -7.649   0.288   5.737  0.00  0.00    +0.021 A 
ATOM     27  C   UNL     1      -6.851  -0.091   4.729  0.00  0.00    +0.009 A 
ATOM     28  C   UNL     1      -7.037   0.141   3.249  0.00  0.00    +0.012 C 
ATOM     29  H   UNL     1      -6.476  -1.728   2.645  0.00  0.00    -0.080 HD
BRANCH  28  30
ATOM     30  C   UNL     1      -8.470  -0.129   2.869  0.00  0.00    -0.037 A 
ATOM     31  C   UNL     1      -8.840  -1.380   2.412  0.00  0.00    +0.004 A 
ATOM     32  C   UNL     1     -10.154  -1.629   2.062  0.00  0.00    +0.000 A 
ATOM     33  C   UNL     1     -11.100  -0.626   2.170  0.00  0.00    +0.001 A 
ATOM     34  C   UNL     1     -10.731   0.626   2.627  0.00  0.00    +0.020 A 
ATOM     35  C   UNL     1      -9.417   0.873   2.982  0.00  0.00    +0.043 A 
ATOM     36 CL   UNL     1      -8.955   2.443   3.562  0.00  0.00    -0.083 Cl
ENDBRANCH  28  30
ENDBRANCH  19  20
ENDBRANCH   4  19
TORSDOF 4
