REMARK  Name = ZINC24997377
REMARK  4 active torsions:
REMARK  status: ('A' for Active; 'I' for Inactive)
REMARK    1  A    between atoms: C_7  and  C_11
REMARK    2  A    between atoms: C_11  and  C_12
REMARK    3  A    between atoms: C_12  and  C_14
REMARK    4  A    between atoms: C_12  and  N_26
REMARK                            x       y       z     vdW  Elec       q    Type
REMARK                         _______ _______ _______ _____ _____    ______ ____
ROOT
ATOM      1  C   UNL     1       0.236  -3.589  -1.455  0.00  0.00    +0.165 C 
ENDROOT
BRANCH   1   2
ATOM      2  C   UNL     1      -0.795  -4.689  -1.442  0.00  0.00    +0.236 C 
ATOM      3  O   UNL     1      -0.467  -5.830  -1.689  0.00  0.00    -0.274 OA
ATOM      4  N   UNL     1      -2.080  -4.404  -1.154  0.00  0.00    -0.300 N 
ATOM      5  C   UNL     1      -2.493  -3.025  -0.858  0.00  0.00    +0.113 C 
ATOM      6  C   UNL     1      -3.223  -3.008   0.489  0.00  0.00    +0.084 C 
ATOM      7  C   UNL     1      -4.371  -4.018   0.456  0.00  0.00    +0.173 C 
ATOM      8  C   UNL     1      -3.820  -5.426   0.219  0.00  0.00    +0.084 C 
ATOM      9  C   UNL     1      -3.096  -5.465  -1.137  0.00  0.00    +0.113 C 
ATOM     10  O   UNL     1      -5.078  -3.983   1.702  0.00  0.00    -0.346 OA
ATOM     11  C   UNL     1      -6.445  -3.627   1.409  0.00  0.00    +0.191 C 
ATOM     12  C   UNL     1      -6.592  -4.004  -0.087  0.00  0.00    +0.191 C 
ATOM     13  O   UNL     1      -5.279  -3.676  -0.603  0.00  0.00    -0.346 OA
ENDBRANCH   1   2
BRANCH   1  14
ATOM     14  N   UNL     1       1.401  -4.022  -2.231  0.00  0.00    -0.288 N 
ATOM     15  C   UNL     1       2.095  -5.114  -1.853  0.00  0.00    +0.298 C 
ATOM     16  O   UNL     1       1.754  -5.740  -0.868  0.00  0.00    -0.253 OA
ATOM     17  N   UNL     1       3.167  -5.511  -2.567  0.00  0.00    -0.313 N 
ATOM     18  H   UNL     1       1.673  -3.522  -3.017  0.00  0.00    +0.151 HD
ATOM     19  H   UNL     1       3.439  -5.012  -3.353  0.00  0.00    +0.146 HD
ATOM     20  H   UNL     1       3.666  -6.297  -2.295  0.00  0.00    +0.146 HD
ENDBRANCH   1  14
BRANCH   1  21
ATOM     21  C   UNL     1       0.666  -3.275  -0.021  0.00  0.00    +0.069 C 
BRANCH  21  28
ATOM     22  C   UNL     1      -0.017   1.362   0.009  0.00  0.00    +0.001 A 
ATOM     23  C   UNL     1       1.170   2.083   0.002  0.00  0.00    +0.002 A 
ATOM     24  C   UNL     1       2.386   1.436  -0.013  0.00  0.00    +0.026 A 
ATOM     25  C   UNL     1       2.428   0.046  -0.021  0.00  0.00    +0.047 A 
ATOM     26  C   UNL     1       1.223  -0.681  -0.013  0.00  0.00    +0.003 A 
ATOM     27  C   UNL     1       0.002  -0.004   0.002  0.00  0.00    +0.010 A 
ATOM     28  C   UNL     1       1.604  -2.095  -0.025  0.00  0.00    -0.020 A 
ATOM     29  C   UNL     1       2.945  -2.141  -0.038  0.00  0.00    +0.087 A 
ATOM     30  N   UNL     1       3.455  -0.871  -0.036  0.00  0.00    -0.360 N 
ATOM     31  H   UNL     1       4.399  -0.650  -0.044  0.00  0.00    +0.165 HD
ENDBRANCH  21  28
ENDBRANCH   1  21
TORSDOF 4
