REMARK  Name = ZINC13547950
REMARK  7 active torsions:
REMARK  status: ('A' for Active; 'I' for Inactive)
REMARK    1  A    between atoms: C_1  and  C_2
REMARK    2  A    between atoms: C_2  and  C_3
REMARK    3  A    between atoms: C_2  and  C_4
REMARK    4  A    between atoms: C_2  and  C_5
REMARK    5  A    between atoms: C_8  and  C_11
REMARK    6  A    between atoms: N_12  and  N_13
REMARK    7  A    between atoms: C_18  and  C_21
REMARK                            x       y       z     vdW  Elec       q    Type
REMARK                         _______ _______ _______ _____ _____    ______ ____
ROOT
ATOM      1  N   UNL     1       4.535  -0.709  -4.144  0.00  0.00    -0.127 NA
ATOM      2  C   UNL     1       5.757  -0.298  -4.410  0.00  0.00    +0.183 C 
ATOM      3  N   UNL     1       6.515  -0.552  -5.533  0.00  0.00    -0.262 N 
ATOM      4  C   UNL     1       7.740  -0.078  -5.685  0.00  0.00    +0.236 C 
ATOM      5  O   UNL     1       8.400  -0.306  -6.676  0.00  0.00    -0.274 OA
ATOM      6  C   UNL     1       8.268   0.770  -4.539  0.00  0.00    +0.170 C 
ATOM      7  S   UNL     1       6.820   0.726  -3.404  0.00  0.00    -0.071 S 
ATOM      8  H   UNL     1       6.136  -1.099  -6.238  0.00  0.00    +0.157 HD
ENDROOT
BRANCH   6   9
ATOM      9  C   UNL     1       9.483   0.140  -3.908  0.00  0.00    -0.025 A 
ATOM     10  C   UNL     1       9.396  -1.121  -3.349  0.00  0.00    +0.005 A 
ATOM     11  C   UNL     1      10.511  -1.699  -2.770  0.00  0.00    +0.000 A 
ATOM     12  C   UNL     1      11.713  -1.016  -2.751  0.00  0.00    +0.000 A 
ATOM     13  C   UNL     1      11.800   0.245  -3.312  0.00  0.00    +0.000 A 
ATOM     14  C   UNL     1      10.686   0.821  -3.894  0.00  0.00    +0.005 A 
ENDBRANCH   6   9
BRANCH   1  16
ATOM     15  C   UNL     1       2.693  -1.858  -4.727  0.00  0.00    +0.143 C 
ATOM     16  N   UNL     1       3.905  -1.451  -4.991  0.00  0.00    -0.155 NA
BRANCH  15  20
ATOM     17  C   UNL     1       0.750  -0.579  -1.181  0.00  0.00    -0.042 A 
ATOM     18  C   UNL     1       1.979  -0.044  -1.523  0.00  0.00    +0.005 A 
ATOM     19  C   UNL     1       2.617  -0.455  -2.675  0.00  0.00    +0.010 A 
ATOM     20  C   UNL     1       2.019  -1.415  -3.497  0.00  0.00    -0.005 A 
ATOM     21  C   UNL     1       0.777  -1.951  -3.143  0.00  0.00    +0.010 A 
ATOM     22  C   UNL     1       0.154  -1.534  -1.986  0.00  0.00    +0.005 A 
BRANCH  17  24
ATOM     23  C   UNL     1      -0.144  -1.322   1.010  0.00  0.00    +0.015 C 
ATOM     24  C   UNL     1       0.060  -0.125   0.080  0.00  0.00    -0.013 C 
ATOM     25  C   UNL     1      -1.299   0.483  -0.274  0.00  0.00    +0.015 C 
ATOM     26  C   UNL     1       0.921   0.927   0.782  0.00  0.00    +0.015 C 
ENDBRANCH  17  24
ENDBRANCH  15  20
ENDBRANCH   1  16
TORSDOF 4
