REMARK  Name = ZINC01827221
REMARK  7 active torsions:
REMARK  status: ('A' for Active; 'I' for Inactive)
REMARK    1  A    between atoms: C_1  and  C_2
REMARK    2  A    between atoms: C_7  and  N_8
REMARK    3  A    between atoms: C_9  and  C_11
REMARK    4  A    between atoms: C_11  and  S_12
REMARK    5  A    between atoms: S_12  and  C_13
REMARK    6  A    between atoms: N_19  and  C_20
REMARK    7  A    between atoms: C_20  and  C_21
REMARK                            x       y       z     vdW  Elec       q    Type
REMARK                         _______ _______ _______ _____ _____    ______ ____
ROOT
ATOM      1  C   UNL     1      -0.013   4.207   0.031  0.00  0.00    +0.173 A 
ATOM      2  N   UNL     1       1.134   3.558   0.005  0.00  0.00    -0.223 NA
ATOM      3  C   UNL     1       1.166   2.222  -0.045  0.00  0.00    +0.083 A 
ATOM      4  C   UNL     1      -0.017   1.501  -0.043  0.00  0.00    +0.050 A 
ATOM      5  C   UNL     1      -1.233   2.197  -0.015  0.00  0.00    +0.259 A 
ATOM      6  O   UNL     1      -2.295   1.596  -0.018  0.00  0.00    -0.267 OA
ATOM      7  N   UNL     1      -1.204   3.547   0.010  0.00  0.00    -0.280 N 
ATOM      8  C   UNL     1       0.004  -0.003  -0.063  0.00  0.00    +0.007 C 
ATOM      9  C   UNL     1      -1.312  -0.517  -0.655  0.00  0.00    +0.012 C 
ATOM     10  C   UNL     1      -1.299  -2.047  -0.673  0.00  0.00    +0.001 C 
ATOM     11  C   UNL     1      -1.149  -2.572   0.756  0.00  0.00    +0.000 C 
ATOM     12  C   UNL     1       0.162  -2.057   1.353  0.00  0.00    +0.001 C 
ATOM     13  C   UNL     1       0.149  -0.527   1.369  0.00  0.00    +0.012 C 
ATOM     14  C   UNL     1       1.170  -0.512  -0.908  0.00  0.00    +0.047 C 
ATOM     15  C   UNL     1       2.456   0.154  -0.500  0.00  0.00    -0.037 A 
ATOM     16  C   UNL     1       2.454   1.494  -0.111  0.00  0.00    +0.004 A 
ATOM     17  C   UNL     1       3.646   2.121   0.237  0.00  0.00    +0.010 A 
ATOM     18  C   UNL     1       4.827   1.406   0.213  0.00  0.00    +0.001 A 
ATOM     19  C   UNL     1       4.823   0.073  -0.155  0.00  0.00    +0.000 A 
ATOM     20  C   UNL     1       3.641  -0.552  -0.512  0.00  0.00    +0.004 A 
ENDROOT
BRANCH   1  21
ATOM     21  S   UNL     1      -0.005   5.968   0.093  0.00  0.00    -0.078 S 
BRANCH  21  22
ATOM     22  C   UNL     1       1.778   6.274   0.100  0.00  0.00    +0.173 C 
BRANCH  22  24
ATOM     23  N   UNL     1       3.297   8.226   0.166  0.00  0.00    -0.285 N 
ATOM     24  C   UNL     1       2.033   7.759   0.152  0.00  0.00    +0.227 C 
ATOM     25  O   UNL     1       1.100   8.533   0.181  0.00  0.00    -0.275 OA
ATOM     26  H   UNL     1       4.042   7.607   0.223  0.00  0.00    +0.155 HD
BRANCH  23  33
ATOM     27  C   UNL     1       5.740   9.222   1.232  0.00  0.00    +0.045 C 
ATOM     28  C   UNL     1       4.714  10.131   0.606  0.00  0.00    -0.029 A 
ATOM     29  C   UNL     1       4.946  11.491   0.537  0.00  0.00    +0.005 A 
ATOM     30  C   UNL     1       4.006  12.326  -0.038  0.00  0.00    +0.000 A 
ATOM     31  C   UNL     1       2.831  11.803  -0.546  0.00  0.00    +0.002 A 
ATOM     32  C   UNL     1       2.595  10.444  -0.484  0.00  0.00    +0.023 A 
ATOM     33  C   UNL     1       3.535   9.603   0.097  0.00  0.00    +0.036 A 
ENDBRANCH  23  33
ENDBRANCH  22  24
ENDBRANCH  21  22
ENDBRANCH   1  21
BRANCH   7  34
ATOM     34  C   UNL     1      -2.459   4.303   0.020  0.00  0.00    +0.201 C 
BRANCH  34  35
ATOM     35  C   UNL     1      -2.882   4.593  -1.397  0.00  0.00    +0.125 A 
ATOM     36  C   UNL     1      -3.662   3.808  -2.162  0.00  0.00    +0.046 A 
ATOM     37  C   UNL     1      -3.803   4.461  -3.408  0.00  0.00    +0.041 A 
ATOM     38  C   UNL     1      -3.095   5.602  -3.333  0.00  0.00    +0.195 A 
ATOM     39  O   UNL     1      -2.539   5.677  -2.113  0.00  0.00    -0.466 OA
ENDBRANCH  34  35
ENDBRANCH   7  34
TORSDOF 6
