REMARK  Name = ZINC08972139
REMARK  5 active torsions:
REMARK  status: ('A' for Active; 'I' for Inactive)
REMARK    1  A    between atoms: C_1  and  O_2
REMARK    2  A    between atoms: O_2  and  C_3
REMARK    3  A    between atoms: C_7  and  N_9
REMARK    4  A    between atoms: C_14  and  C_31
REMARK    5  A    between atoms: C_31  and  C_32
REMARK                            x       y       z     vdW  Elec       q    Type
REMARK                         _______ _______ _______ _____ _____    ______ ____
ROOT
ATOM      1  N   UNL     1      -4.723   1.594   3.761  0.00  0.00    -0.210 N 
ATOM      2  C   UNL     1      -4.197   2.380   4.748  0.00  0.00    +0.228 C 
ATOM      3  O   UNL     1      -3.188   3.049   4.692  0.00  0.00    -0.275 OA
ATOM      4  C   UNL     1      -5.131   2.243   5.917  0.00  0.00    +0.074 C 
ATOM      5  C   UNL     1      -5.514   3.479   6.730  0.00  0.00    -0.053 C 
ATOM      6  C   UNL     1      -7.488   2.238   6.098  0.00  0.00    +0.050 C 
ATOM      7  C   UNL     1      -6.457   2.132   5.060  0.00  0.00    +0.088 C 
ATOM      8  C   UNL     1      -6.030   1.249   3.998  0.00  0.00    +0.229 C 
ATOM      9  O   UNL     1      -6.683   0.394   3.440  0.00  0.00    -0.275 OA
ATOM     10  C   UNL     1      -7.677   1.008   6.943  0.00  0.00    -0.025 A 
ATOM     11  C   UNL     1      -6.817   0.223   7.679  0.00  0.00    +0.043 A 
ATOM     12  C   UNL     1      -7.300  -0.874   8.374  0.00  0.00    +0.124 A 
ATOM     13  C   UNL     1      -8.650  -1.180   8.324  0.00  0.00    +0.040 A 
ATOM     14  C   UNL     1      -9.513  -0.397   7.586  0.00  0.00    +0.026 A 
ATOM     15  C   UNL     1      -9.034   0.709   6.886  0.00  0.00    +0.036 A 
ATOM     16  N   UNL     1      -9.701   1.639   6.085  0.00  0.00    -0.286 N 
ATOM     17  C   UNL     1      -8.866   2.569   5.585  0.00  0.00    +0.211 C 
ATOM     18  O   UNL     1      -9.165   3.495   4.862  0.00  0.00    -0.277 OA
ATOM     19  F   UNL     1      -6.457  -1.643   9.097  0.00  0.00    -0.205 F 
ATOM     20  H   UNL     1     -10.654   1.617   5.909  0.00  0.00    +0.155 HD
ATOM     21  N   UNL     1      -6.982   3.357   6.942  0.00  0.00    +0.394 N 
ATOM     22  H   UNL     1      -7.445   4.232   6.671  0.00  0.00    -0.083 HD
ATOM     23  H   UNL     1      -7.174   3.159   7.931  0.00  0.00    -0.083 HD
ENDROOT
BRANCH   1  28
ATOM     24  C   UNL     1      -1.975   1.163   1.348  0.00  0.00    +0.122 A 
ATOM     25  C   UNL     1      -2.589   0.364   0.394  0.00  0.00    +0.046 A 
ATOM     26  C   UNL     1      -3.902  -0.032   0.563  0.00  0.00    +0.005 A 
ATOM     27  C   UNL     1      -4.611   0.377   1.676  0.00  0.00    +0.024 A 
ATOM     28  C   UNL     1      -4.004   1.181   2.631  0.00  0.00    +0.047 A 
ATOM     29  C   UNL     1      -2.683   1.574   2.466  0.00  0.00    +0.069 A 
BRANCH  24  31
ATOM     30  C   UNL     1      -0.013   1.086   0.008  0.00  0.00    +0.277 C 
ATOM     31  O   UNL     1      -0.682   1.547   1.184  0.00  0.00    -0.495 OA
ENDBRANCH  24  31
ENDBRANCH   1  28
BRANCH   5  32
ATOM     32  C   UNL     1      -5.191   4.751   5.944  0.00  0.00    +0.022 C 
BRANCH  32  33
ATOM     33  C   UNL     1      -5.460   5.957   6.808  0.00  0.00    -0.024 A 
ATOM     34  C   UNL     1      -6.585   6.689   6.828  0.00  0.00    +0.087 A 
ATOM     35  N   UNL     1      -6.467   7.702   7.740  0.00  0.00    -0.360 N 
ATOM     36  H   UNL     1      -7.152   8.360   7.934  0.00  0.00    +0.165 HD
ATOM     37  C   UNL     1      -5.227   7.651   8.337  0.00  0.00    +0.047 A 
ATOM     38  C   UNL     1      -4.542   6.556   7.779  0.00  0.00    +0.003 A 
ATOM     39  C   UNL     1      -3.245   6.258   8.200  0.00  0.00    +0.010 A 
ATOM     40  C   UNL     1      -2.646   7.033   9.153  0.00  0.00    +0.001 A 
ATOM     41  C   UNL     1      -3.317   8.114   9.707  0.00  0.00    +0.002 A 
ATOM     42  C   UNL     1      -4.598   8.426   9.306  0.00  0.00    +0.026 A 
ENDBRANCH  32  33
ENDBRANCH   5  32
TORSDOF 4
