REMARK  Name = ZINC01331398
REMARK  7 active torsions:
REMARK  status: ('A' for Active; 'I' for Inactive)
REMARK    1  A    between atoms: C_1  and  C_2
REMARK    2  A    between atoms: C_2  and  C_3
REMARK    3  A    between atoms: C_4  and  C_25
REMARK    4  A    between atoms: C_11  and  S_12
REMARK    5  A    between atoms: S_12  and  C_13
REMARK    6  A    between atoms: C_13  and  C_14
REMARK    7  A    between atoms: C_21  and  C_23
REMARK                            x       y       z     vdW  Elec       q    Type
REMARK                         _______ _______ _______ _____ _____    ______ ____
ROOT
ATOM      1  C   UNL     1       1.113   1.035  -1.676  0.00  0.00    +0.018 A 
ATOM      2  C   UNL     1       0.424   0.848  -2.832  0.00  0.00    +0.048 A 
ATOM      3  N   UNL     1       1.008   0.280  -3.892  0.00  0.00    -0.221 NA
ATOM      4  C   UNL     1       2.256  -0.129  -3.863  0.00  0.00    +0.201 A 
ATOM      5  N   UNL     1       3.013   0.019  -2.736  0.00  0.00    -0.242 N 
ATOM      6  C   UNL     1       2.457   0.606  -1.614  0.00  0.00    +0.169 A 
ATOM      7  N   UNL     1       3.391   0.623  -0.688  0.00  0.00    -0.128 NA
ATOM      8  N   UNL     1       4.471   0.096  -1.149  0.00  0.00    -0.122 NA
ATOM      9  C   UNL     1       4.298  -0.289  -2.392  0.00  0.00    +0.199 A 
ATOM     10  N   UNL     1       2.807  -0.711  -4.979  0.00  0.00    -0.328 N 
ATOM     11  C   UNL     1      -1.014   1.292  -2.922  0.00  0.00    +0.066 C 
ATOM     12  H   UNL     1       3.728  -1.014  -4.964  0.00  0.00    +0.145 HD
ATOM     13  H   UNL     1       2.274  -0.819  -5.782  0.00  0.00    +0.145 HD
ENDROOT
BRANCH   1  15
ATOM     14  C   UNL     1       0.668   3.195  -0.542  0.00  0.00    +0.009 C 
ATOM     15  C   UNL     1       0.456   1.681  -0.483  0.00  0.00    +0.037 C 
ENDBRANCH   1  15
BRANCH   9  16
ATOM     16  S   UNL     1       5.499  -1.060  -3.425  0.00  0.00    -0.076 S 
BRANCH  16  17
ATOM     17  C   UNL     1       6.971  -1.180  -2.371  0.00  0.00    +0.173 C 
BRANCH  17  18
ATOM     18  C   UNL     1       8.090  -1.831  -3.143  0.00  0.00    +0.226 C 
ATOM     19  O   UNL     1       7.912  -2.180  -4.291  0.00  0.00    -0.275 OA
ATOM     20  N   UNL     1       9.289  -2.025  -2.558  0.00  0.00    -0.298 N 
ATOM     21  C   UNL     1       9.557  -1.504  -1.211  0.00  0.00    +0.108 C 
ATOM     22  C   UNL     1      10.828  -0.657  -1.249  0.00  0.00    +0.019 C 
ATOM     23  C   UNL     1      11.971  -1.483  -1.843  0.00  0.00    +0.003 C 
ATOM     24  C   UNL     1      11.617  -1.890  -3.276  0.00  0.00    +0.022 C 
ATOM     25  C   UNL     1      10.354  -2.756  -3.258  0.00  0.00    +0.073 C 
ATOM     26  C   UNL     1       9.915  -3.052  -4.694  0.00  0.00    +0.028 C 
ENDBRANCH  17  18
ENDBRANCH  16  17
ENDBRANCH   9  16
TORSDOF 4
