REMARK  Name = ZINC09737294
REMARK  6 active torsions:
REMARK  status: ('A' for Active; 'I' for Inactive)
REMARK    1  A    between atoms: C_1  and  C_2
REMARK    2  A    between atoms: C_2  and  C_3
REMARK    3  A    between atoms: C_3  and  N_4
REMARK    4  A    between atoms: C_14  and  S_15
REMARK    5  A    between atoms: S_15  and  C_16
REMARK    6  A    between atoms: C_24  and  C_26
REMARK                            x       y       z     vdW  Elec       q    Type
REMARK                         _______ _______ _______ _____ _____    ______ ____
ROOT
ATOM      1  S   UNL     1      -1.601  -1.735  -2.582  0.00  0.00    -0.031 S 
ENDROOT
BRANCH   1  12
ATOM      2  N   UNL     1       0.738  -1.962  -1.265  0.00  0.00    -0.287 N 
ATOM      3  C   UNL     1       1.773  -2.623  -0.696  0.00  0.00    +0.262 A 
ATOM      4  O   UNL     1       2.694  -2.022  -0.173  0.00  0.00    -0.267 OA
ATOM      5  C   UNL     1       1.742  -4.091  -0.727  0.00  0.00    +0.065 A 
ATOM      6  C   UNL     1       2.758  -4.862  -0.165  0.00  0.00    +0.015 A 
ATOM      7  C   UNL     1       2.681  -6.227  -0.228  0.00  0.00    +0.001 A 
ATOM      8  C   UNL     1       1.604  -6.850  -0.845  0.00  0.00    +0.002 A 
ATOM      9  C   UNL     1       0.595  -6.118  -1.404  0.00  0.00    +0.028 A 
ATOM     10  C   UNL     1       0.644  -4.722  -1.356  0.00  0.00    +0.079 A 
ATOM     11  N   UNL     1      -0.334  -3.958  -1.897  0.00  0.00    -0.223 NA
ATOM     12  C   UNL     1      -0.285  -2.650  -1.852  0.00  0.00    +0.178 A 
BRANCH   2  13
ATOM     13  C   UNL     1       0.718  -0.497  -1.257  0.00  0.00    +0.127 C 
BRANCH  13  15
ATOM     14  C   UNL     1      -0.019   1.526   0.010  0.00  0.00    +0.005 C 
ATOM     15  C   UNL     1       0.002  -0.004   0.002  0.00  0.00    +0.018 C 
ENDBRANCH  13  15
ENDBRANCH   2  13
ENDBRANCH   1  12
BRANCH   1  16
ATOM     16  C   UNL     1      -2.606  -3.059  -3.167  0.00  0.00    +0.116 A 
ATOM     17  C   UNL     1      -3.821  -2.804  -3.849  0.00  0.00    +0.033 A 
ATOM     18  C   UNL     1      -4.280  -1.504  -4.091  0.00  0.00    +0.012 A 
ATOM     19  C   UNL     1      -5.458  -1.320  -4.753  0.00  0.00    +0.001 A 
ATOM     20  C   UNL     1      -6.208  -2.407  -5.192  0.00  0.00    +0.002 A 
ATOM     21  C   UNL     1      -5.789  -3.685  -4.973  0.00  0.00    +0.028 A 
ATOM     22  C   UNL     1      -4.583  -3.911  -4.295  0.00  0.00    +0.076 A 
ATOM     23  N   UNL     1      -4.125  -5.148  -4.054  0.00  0.00    -0.224 NA
ATOM     24  C   UNL     1      -2.991  -5.325  -3.416  0.00  0.00    +0.236 A 
ATOM     25  N   UNL     1      -2.243  -4.321  -2.986  0.00  0.00    -0.217 NA
BRANCH  24  26
ATOM     26  C   UNL     1      -2.518  -6.734  -3.168  0.00  0.00    +0.452 C 
ATOM     27  F   UNL     1      -1.468  -7.033  -4.043  0.00  0.00    -0.163 F 
ATOM     28  F   UNL     1      -2.072  -6.850  -1.847  0.00  0.00    -0.163 F 
ATOM     29  F   UNL     1      -3.574  -7.625  -3.384  0.00  0.00    -0.163 F 
ENDBRANCH  24  26
ENDBRANCH   1  16
TORSDOF 5
