REMARK  Name = ZINC10049877
REMARK  9 active torsions:
REMARK  status: ('A' for Active; 'I' for Inactive)
REMARK    1  A    between atoms: C_1  and  C_2
REMARK    2  A    between atoms: C_7  and  N_8
REMARK    3  A    between atoms: C_9  and  C_36
REMARK    4  A    between atoms: C_10  and  C_35
REMARK    5  A    between atoms: N_18  and  C_23
REMARK    6  A    between atoms: N_21  and  C_22
REMARK    7  A    between atoms: C_23  and  C_24
REMARK    8  A    between atoms: C_24  and  C_25
REMARK    9  A    between atoms: C_25  and  N_69
REMARK                            x       y       z     vdW  Elec       q    Type
REMARK                         _______ _______ _______ _____ _____    ______ ____
ROOT
ATOM      1  N   UNL     1       0.002  -0.004   0.002  0.00  0.00    -0.282 N 
ATOM      2  C   UNL     1      -0.017   1.379   0.010  0.00  0.00    +0.043 A 
ATOM      3  C   UNL     1       1.241   1.811  -0.000  0.00  0.00    +0.044 A 
ATOM      4  N   UNL     1       2.080   0.711  -0.014  0.00  0.00    -0.274 N 
ATOM      5  C   UNL     1       1.314  -0.405  -0.013  0.00  0.00    +0.223 A 
ATOM      6  N   UNL     1       2.097  -1.474  -0.026  0.00  0.00    -0.193 NA
ATOM      7  C   UNL     1       3.374  -1.100  -0.036  0.00  0.00    +0.170 A 
ATOM      8  C   UNL     1       3.403   0.294  -0.029  0.00  0.00    +0.157 A 
ATOM      9  C   UNL     1       4.643   0.953  -0.037  0.00  0.00    +0.283 A 
ATOM     10  O   UNL     1       4.693   2.171  -0.032  0.00  0.00    -0.265 OA
ATOM     11  N   UNL     1       5.779   0.225  -0.053  0.00  0.00    -0.259 N 
ATOM     12  C   UNL     1       5.741  -1.119  -0.059  0.00  0.00    +0.333 A 
ATOM     13  O   UNL     1       6.786  -1.741  -0.072  0.00  0.00    -0.246 OA
ATOM     14  N   UNL     1       4.576  -1.793  -0.052  0.00  0.00    -0.279 N 
ATOM     15  C   UNL     1       4.576  -3.258  -0.059  0.00  0.00    +0.155 C 
ATOM     16  C   UNL     1       1.678   3.253   0.003  0.00  0.00    +0.066 C 
ATOM     17  C   UNL     1      -1.249   2.247   0.020  0.00  0.00    +0.066 C 
ENDROOT
BRANCH   1  24
ATOM     18  C   UNL     1      -1.044  -0.834   2.515  0.00  0.00    +0.046 C 
ATOM     19  C   UNL     1      -1.660  -1.273   1.212  0.00  0.00    -0.027 A 
ATOM     20  C   UNL     1      -2.767  -2.099   1.214  0.00  0.00    +0.005 A 
ATOM     21  C   UNL     1      -3.330  -2.507   0.018  0.00  0.00    +0.000 A 
ATOM     22  C   UNL     1      -2.789  -2.085  -1.183  0.00  0.00    +0.002 A 
ATOM     23  C   UNL     1      -1.685  -1.256  -1.192  0.00  0.00    +0.026 A 
ATOM     24  C   UNL     1      -1.118  -0.845   0.007  0.00  0.00    +0.053 A 
ENDBRANCH   1  24
BRANCH  11  25
ATOM     25  C   UNL     1       7.074   0.909  -0.062  0.00  0.00    +0.128 C 
BRANCH  25  26
ATOM     26  C   UNL     1       7.539   1.140   1.377  0.00  0.00    +0.003 C 
BRANCH  26  27
ATOM     27  C   UNL     1       8.891   1.855   1.368  0.00  0.00    -0.077 C 
BRANCH  27  37
ATOM     28  C   UNL     1      10.733   2.544   2.785  0.00  0.00    -0.074 C 
ATOM     29  C   UNL     1      11.023   3.102   4.178  0.00  0.00    +0.017 C 
ATOM     30  C   UNL     1      10.597   2.109   5.229  0.00  0.00    -0.048 A 
ATOM     31  C   UNL     1      11.085   2.261   6.519  0.00  0.00    +0.004 A 
ATOM     32  C   UNL     1      10.716   1.376   7.512  0.00  0.00    +0.000 A 
ATOM     33  C   UNL     1       9.857   0.333   7.220  0.00  0.00    +0.000 A 
ATOM     34  C   UNL     1       9.372   0.180   5.937  0.00  0.00    +0.002 A 
ATOM     35  C   UNL     1       9.742   1.068   4.937  0.00  0.00    -0.061 A 
ATOM     36  C   UNL     1       9.191   0.858   3.551  0.00  0.00    -0.043 C 
ATOM     37  N   UNL     1       9.327   2.094   2.763  0.00  0.00    +0.383 N 
ATOM     38  H   UNL     1       8.735   2.823   3.178  0.00  0.00    -0.081 HD
ENDBRANCH  27  37
ENDBRANCH  26  27
ENDBRANCH  25  26
ENDBRANCH  11  25
TORSDOF 5
