REMARK  Name = ZINC20357818
REMARK  7 active torsions:
REMARK  status: ('A' for Active; 'I' for Inactive)
REMARK    1  A    between atoms: C_1  and  C_2
REMARK    2  A    between atoms: C_2  and  C_25
REMARK    3  A    between atoms: C_9  and  N_22
REMARK    4  A    between atoms: C_11  and  S_13
REMARK    5  A    between atoms: S_13  and  C_14
REMARK    6  A    between atoms: C_14  and  C_15
REMARK    7  A    between atoms: C_15  and  N_16
REMARK                            x       y       z     vdW  Elec       q    Type
REMARK                         _______ _______ _______ _____ _____    ______ ____
ROOT
ATOM      1  C   UNL     1       5.269   2.608  -3.081  0.00  0.00    +0.041 C 
ATOM      2  C   UNL     1       5.726   2.645  -1.621  0.00  0.00    +0.068 C 
ATOM      3  C   UNL     1       4.909   1.636  -0.809  0.00  0.00    +0.071 C 
ATOM      4  C   UNL     1       3.478   2.160  -0.705  0.00  0.00    -0.020 A 
ATOM      5  C   UNL     1       3.225   3.461  -0.961  0.00  0.00    +0.021 A 
ATOM      6  S   UNL     1       1.479   3.645  -0.732  0.00  0.00    -0.071 S 
ATOM      7  C   UNL     1       1.090   1.971  -0.291  0.00  0.00    +0.115 A 
ATOM      8  C   UNL     1       2.340   1.319  -0.337  0.00  0.00    +0.051 A 
ATOM      9  C   UNL     1       2.320  -0.068  -0.020  0.00  0.00    +0.129 A 
ATOM     10  N   UNL     1       1.171  -0.644   0.289  0.00  0.00    -0.207 NA
ATOM     11  C   UNL     1       0.027   0.030   0.314  0.00  0.00    +0.191 A 
ATOM     12  N   UNL     1      -0.015   1.324   0.028  0.00  0.00    -0.215 NA
ATOM     13  C   UNL     1       4.231   4.499  -1.352  0.00  0.00    +0.203 C 
ATOM     14  O   UNL     1       5.540   3.963  -1.100  0.00  0.00    -0.368 OA
ATOM     15  C   UNL     1       7.208   2.273  -1.544  0.00  0.00    +0.041 C 
ENDROOT
BRANCH   9  16
ATOM     16  N   UNL     1       3.490  -0.805  -0.035  0.00  0.00    -0.343 N 
ATOM     17  H   UNL     1       3.468  -1.876   0.212  0.00  0.00    +0.144 HD
ATOM     18  H   UNL     1       4.443  -0.319  -0.293  0.00  0.00    +0.144 HD
ENDBRANCH   9  16
BRANCH  11  19
ATOM     19  S   UNL     1      -1.463  -0.811   0.736  0.00  0.00    -0.085 S 
BRANCH  19  20
ATOM     20  C   UNL     1      -0.815  -2.478   1.013  0.00  0.00    +0.093 C 
BRANCH  20  21
ATOM     21  C   UNL     1      -1.962  -3.413   1.402  0.00  0.00    +0.095 C 
BRANCH  21  22
ATOM     22  N   UNL     1      -1.437  -4.766   1.627  0.00  0.00    -0.297 NA
ATOM     23  C   UNL     1      -0.929  -5.349   0.377  0.00  0.00    +0.112 C 
ATOM     24  C   UNL     1      -0.338  -6.731   0.667  0.00  0.00    +0.175 C 
ATOM     25  O   UNL     1      -1.336  -7.551   1.281  0.00  0.00    -0.377 OA
ATOM     26  C   UNL     1      -1.852  -7.014   2.501  0.00  0.00    +0.175 C 
ATOM     27  C   UNL     1      -2.458  -5.635   2.229  0.00  0.00    +0.112 C 
ENDBRANCH  21  22
ENDBRANCH  20  21
ENDBRANCH  19  20
ENDBRANCH  11  19
TORSDOF 5
