REMARK  Name = ZINC12793305
REMARK  8 active torsions:
REMARK  status: ('A' for Active; 'I' for Inactive)
REMARK    1  A    between atoms: C_1  and  C_2
REMARK    2  A    between atoms: C_2  and  C_3
REMARK    3  A    between atoms: C_3  and  N_4
REMARK    4  A    between atoms: N_4  and  C_5
REMARK    5  A    between atoms: C_5  and  C_6
REMARK    6  A    between atoms: C_19  and  C_21
REMARK    7  A    between atoms: C_24  and  C_28
REMARK    8  A    between atoms: C_26  and  C_27
REMARK                            x       y       z     vdW  Elec       q    Type
REMARK                         _______ _______ _______ _____ _____    ______ ____
ROOT
ATOM      1  N   UNL     1      -0.722   1.578  -1.183  0.00  0.00    -0.290 N 
ATOM      2  C   UNL     1      -0.345   2.776  -1.672  0.00  0.00    +0.247 C 
ATOM      3  O   UNL     1       0.484   3.441  -1.081  0.00  0.00    -0.270 OA
ENDROOT
BRANCH   2   4
ATOM      4  C   UNL     1      -0.940   3.283  -2.927  0.00  0.00    +0.040 A 
ATOM      5  C   UNL     1      -0.886   2.512  -4.090  0.00  0.00    +0.013 A 
ATOM      6  C   UNL     1      -1.444   2.990  -5.257  0.00  0.00    +0.004 A 
ATOM      7  C   UNL     1      -2.056   4.231  -5.278  0.00  0.00    -0.050 A 
ATOM      8  C   UNL     1      -2.113   5.000  -4.129  0.00  0.00    +0.007 A 
ATOM      9  C   UNL     1      -1.563   4.531  -2.953  0.00  0.00    -0.038 A 
ATOM     10  C   UNL     1      -1.631   5.368  -1.702  0.00  0.00    +0.044 C 
ATOM     11  C   UNL     1      -2.663   4.747  -6.557  0.00  0.00    +0.044 C 
ENDBRANCH   2   4
BRANCH   1  12
ATOM     12  C   UNL     1      -1.806   0.832  -1.827  0.00  0.00    +0.108 C 
BRANCH  12  14
ATOM     13  C   UNL     1      -4.284   0.538  -1.956  0.00  0.00    +0.005 C 
ATOM     14  C   UNL     1      -3.151   1.317  -1.284  0.00  0.00    +0.016 C 
ENDBRANCH  12  14
ENDBRANCH   1  12
BRANCH   1  15
ATOM     15  C   UNL     1      -0.047   1.021  -0.008  0.00  0.00    +0.182 C 
BRANCH  15  16
ATOM     16  C   UNL     1      -0.759   1.472   1.241  0.00  0.00    +0.128 A 
ATOM     17  N   UNL     1      -0.280   1.056   2.442  0.00  0.00    -0.309 N 
ATOM     18  H   UNL     1       0.503   0.484   2.475  0.00  0.00    +0.170 HD
ATOM     19  C   UNL     1      -0.883   1.433   3.593  0.00  0.00    +0.259 A 
ATOM     20  O   UNL     1      -0.464   1.069   4.676  0.00  0.00    -0.267 OA
ATOM     21  C   UNL     1      -2.065   2.301   3.485  0.00  0.00    +0.065 A 
ATOM     22  C   UNL     1      -2.759   2.746   4.609  0.00  0.00    +0.017 A 
ATOM     23  C   UNL     1      -3.852   3.552   4.454  0.00  0.00    +0.021 A 
ATOM     24  C   UNL     1      -4.278   3.933   3.187  0.00  0.00    +0.043 A 
ATOM     25  C   UNL     1      -3.610   3.507   2.059  0.00  0.00    +0.048 A 
ATOM     26  C   UNL     1      -2.491   2.683   2.193  0.00  0.00    +0.080 A 
ATOM     27  N   UNL     1      -1.797   2.242   1.114  0.00  0.00    -0.232 NA
ATOM     28 CL   UNL     1      -5.671   4.957   3.022  0.00  0.00    -0.083 Cl
ENDBRANCH  15  16
ENDBRANCH   1  15
TORSDOF 5
