REMARK  Name = ZINC14992749
REMARK  10 active torsions:
REMARK  status: ('A' for Active; 'I' for Inactive)
REMARK    1  A    between atoms: C_1  and  O_2
REMARK    2  A    between atoms: O_2  and  C_3
REMARK    3  A    between atoms: C_6  and  C_11
REMARK    4  A    between atoms: C_8  and  O_9
REMARK    5  A    between atoms: O_9  and  C_10
REMARK    6  A    between atoms: C_11  and  C_12
REMARK    7  A    between atoms: C_12  and  N_13
REMARK    8  A    between atoms: N_13  and  C_14
REMARK    9  A    between atoms: N_25  and  C_28
REMARK   10  A    between atoms: C_28  and  C_29
REMARK                            x       y       z     vdW  Elec       q    Type
REMARK                         _______ _______ _______ _____ _____    ______ ____
ROOT
ATOM      1  C   UNL     1       0.869  -0.506  -1.156  0.00  0.00    -0.067 C 
ATOM      2  C   UNL     1       0.002  -0.004   0.002  0.00  0.00    -0.011 C 
ATOM      3  C   UNL     1      -0.019   1.525   0.010  0.00  0.00    +0.035 C 
ATOM      4  C   UNL     1       1.419   2.038  -0.001  0.00  0.00    -0.023 A 
ATOM      5  C   UNL     1       2.434   1.232  -0.389  0.00  0.00    -0.006 A 
ATOM      6  S   UNL     1       3.898   2.226  -0.246  0.00  0.00    -0.073 S 
ATOM      7  C   UNL     1       3.148   3.715   0.333  0.00  0.00    +0.116 A 
ATOM      8  C   UNL     1       1.775   3.389   0.396  0.00  0.00    +0.076 A 
ATOM      9  C   UNL     1       0.880   4.419   0.842  0.00  0.00    +0.262 A 
ATOM     10  O   UNL     1      -0.322   4.239   0.931  0.00  0.00    -0.267 OA
ATOM     11  N   UNL     1       1.457   5.602   1.158  0.00  0.00    -0.298 N 
ATOM     12  C   UNL     1       2.791   5.822   1.066  0.00  0.00    +0.203 A 
ATOM     13  N   UNL     1       3.642   4.905   0.661  0.00  0.00    -0.230 NA
ATOM     14  C   UNL     1       2.339  -0.192  -0.842  0.00  0.00    +0.027 C 
ENDROOT
BRANCH   1  15
ATOM     15  N   UNL     1       0.696  -1.956  -1.309  0.00  0.00    +0.381 N 
ATOM     16  H   UNL     1      -0.344  -2.216  -1.063  0.00  0.00    -0.086 HD
ATOM     17  H   UNL     1       1.376  -2.468  -0.612  0.00  0.00    -0.086 HD
BRANCH  15  18
ATOM     18  C   UNL     1       0.995  -2.381  -2.684  0.00  0.00    -0.078 C 
BRANCH  18  19
ATOM     19  C   UNL     1       0.804  -3.894  -2.803  0.00  0.00    +0.016 C 
BRANCH  19  23
ATOM     20  C   UNL     1       1.679  -5.130  -6.803  0.00  0.00    +0.161 A 
ATOM     21  C   UNL     1       2.684  -5.097  -5.849  0.00  0.00    +0.049 A 
ATOM     22  C   UNL     1       2.398  -4.696  -4.557  0.00  0.00    +0.007 A 
ATOM     23  C   UNL     1       1.111  -4.329  -4.213  0.00  0.00    -0.045 A 
ATOM     24  C   UNL     1       0.102  -4.365  -5.158  0.00  0.00    +0.053 A 
ATOM     25  C   UNL     1       0.383  -4.760  -6.456  0.00  0.00    +0.162 A 
BRANCH  20  27
ATOM     26  C   UNL     1       3.310  -5.891  -8.357  0.00  0.00    +0.277 C 
ATOM     27  O   UNL     1       1.958  -5.524  -8.074  0.00  0.00    -0.491 OA
ENDBRANCH  20  27
BRANCH  25  28
ATOM     28  O   UNL     1      -0.607  -4.791  -7.388  0.00  0.00    -0.491 OA
ATOM     29  C   UNL     1      -1.912  -4.398  -6.962  0.00  0.00    +0.277 C 
ENDBRANCH  25  28
ENDBRANCH  19  23
ENDBRANCH  18  19
ENDBRANCH  15  18
ENDBRANCH   1  15
BRANCH  11  30
ATOM     30  C   UNL     1       0.600   6.696   1.621  0.00  0.00    +0.129 C 
BRANCH  30  31
ATOM     31  C   UNL     1       0.133   7.522   0.421  0.00  0.00    +0.009 C 
ATOM     32  C   UNL     1       1.339   8.201  -0.230  0.00  0.00    +0.005 C 
ATOM     33  C   UNL     1       0.873   9.027  -1.431  0.00  0.00    +0.000 C 
ATOM     34  C   UNL     1      -0.121  10.092  -0.962  0.00  0.00    +0.000 C 
ATOM     35  C   UNL     1      -1.327   9.412  -0.311  0.00  0.00    +0.000 C 
ATOM     36  C   UNL     1      -0.861   8.586   0.890  0.00  0.00    +0.005 C 
ENDBRANCH  30  31
ENDBRANCH  11  30
TORSDOF 8
