REMARK  Name = ZINC43387412
REMARK  4 active torsions:
REMARK  status: ('A' for Active; 'I' for Inactive)
REMARK    1  A    between atoms: C_1  and  C_2
REMARK    2  A    between atoms: C_5  and  C_8
REMARK    3  A    between atoms: C_5  and  N_21
REMARK    4  A    between atoms: C_10  and  C_13
REMARK                            x       y       z     vdW  Elec       q    Type
REMARK                         _______ _______ _______ _____ _____    ______ ____
ROOT
ATOM      1  C   UNL     1       2.914  -1.982  -0.036  0.00  0.00    +0.216 A 
ATOM      2  N   UNL     1       3.457  -2.740   0.872  0.00  0.00    -0.193 NA
ATOM      3  C   UNL     1       3.290  -4.036   0.551  0.00  0.00    +0.202 A 
ATOM      4  N   UNL     1       2.631  -4.105  -0.580  0.00  0.00    -0.056 NA
ATOM      5  O   UNL     1       2.372  -2.766  -0.976  0.00  0.00    -0.339 OA
ENDROOT
BRANCH   3   6
ATOM      6  C   UNL     1       3.772  -5.194   1.344  0.00  0.00    +0.028 A 
ATOM      7  C   UNL     1       4.460  -4.986   2.537  0.00  0.00    +0.050 A 
ATOM      8  C   UNL     1       4.907  -6.067   3.273  0.00  0.00    +0.127 A 
ATOM      9  C   UNL     1       4.672  -7.357   2.825  0.00  0.00    +0.076 A 
ATOM     10  C   UNL     1       3.990  -7.568   1.639  0.00  0.00    +0.127 A 
ATOM     11  C   UNL     1       3.534  -6.492   0.900  0.00  0.00    +0.050 A 
ATOM     12  F   UNL     1       3.764  -8.828   1.206  0.00  0.00    -0.205 F 
ATOM     13  F   UNL     1       5.574  -5.866   4.431  0.00  0.00    -0.205 F 
ENDBRANCH   3   6
BRANCH   1  18
ATOM     14  C   UNL     1      -0.019   1.526   0.010  0.00  0.00    +0.007 C 
ATOM     15  C   UNL     1       0.002  -0.004   0.002  0.00  0.00    -0.014 C 
ATOM     16  C   UNL     1       0.718  -0.497  -1.257  0.00  0.00    +0.002 C 
ATOM     17  C   UNL     1       2.154   0.032  -1.268  0.00  0.00    -0.003 C 
ATOM     18  C   UNL     1       2.894  -0.475  -0.028  0.00  0.00    +0.010 C 
ATOM     19  C   UNL     1       2.178   0.019   1.231  0.00  0.00    -0.003 C 
ATOM     20  C   UNL     1       0.742  -0.511   1.242  0.00  0.00    +0.002 C 
BRANCH  18  21
ATOM     21  N   UNL     1       4.272   0.034  -0.038  0.00  0.00    +0.388 N 
ATOM     22  H   UNL     1       4.258   1.043  -0.033  0.00  0.00    -0.089 HD
ATOM     23  H   UNL     1       4.760  -0.300   0.779  0.00  0.00    -0.089 HD
ATOM     24  H   UNL     1       4.744  -0.292  -0.869  0.00  0.00    -0.089 HD
ENDBRANCH  18  21
ENDBRANCH   1  18
TORSDOF 3
