REMARK  Name = ZINC14217683
REMARK  7 active torsions:
REMARK  status: ('A' for Active; 'I' for Inactive)
REMARK    1  A    between atoms: C_1  and  C_2
REMARK    2  A    between atoms: C_5  and  C_8
REMARK    3  A    between atoms: N_13  and  C_14
REMARK    4  A    between atoms: C_14  and  C_16
REMARK    5  A    between atoms: C_16  and  N_17
REMARK    6  A    between atoms: N_20  and  S_23
REMARK    7  A    between atoms: S_23  and  C_26
REMARK                            x       y       z     vdW  Elec       q    Type
REMARK                         _______ _______ _______ _____ _____    ______ ____
ROOT
ATOM      1  C   UNL     1       0.130  -9.508   2.939  0.00  0.00    +0.182 C 
ENDROOT
BRANCH   1   2
ATOM      2  N   UNL     1       0.149 -10.872   2.393  0.00  0.00    -0.291 NA
ATOM      3  C   UNL     1      -1.097 -11.168   1.673  0.00  0.00    +0.102 C 
ATOM      4  C   UNL     1      -0.967 -12.522   0.968  0.00  0.00    +0.125 C 
ATOM      5  N   UNL     1      -0.569 -13.530   1.963  0.00  0.00    -0.174 NA
ATOM      6  C   UNL     1       0.592 -13.242   2.819  0.00  0.00    +0.125 C 
ATOM      7  C   UNL     1       0.400 -11.860   3.451  0.00  0.00    +0.102 C 
BRANCH   5   8
ATOM      8  S   UNL     1      -1.406 -14.951   2.114  0.00  0.00    +0.061 S 
ATOM      9  O   UNL     1      -1.175 -15.419   3.436  0.00  0.00    -0.153 OA
ATOM     10  O   UNL     1      -2.712 -14.709   1.610  0.00  0.00    -0.153 OA
BRANCH   8  11
ATOM     11  C   UNL     1      -0.654 -16.116   1.028  0.00  0.00    +0.106 A 
ATOM     12  C   UNL     1      -1.095 -16.228  -0.278  0.00  0.00    +0.031 A 
ATOM     13  C   UNL     1      -0.506 -17.141  -1.131  0.00  0.00    +0.040 A 
ATOM     14  C   UNL     1       0.526 -17.945  -0.678  0.00  0.00    +0.124 A 
ATOM     15  C   UNL     1       0.967 -17.833   0.629  0.00  0.00    +0.040 A 
ATOM     16  C   UNL     1       0.380 -16.915   1.479  0.00  0.00    +0.031 A 
ATOM     17  F   UNL     1       1.102 -18.839  -1.512  0.00  0.00    -0.205 F 
ENDBRANCH   8  11
ENDBRANCH   5   8
ENDBRANCH   1   2
BRANCH   1  18
ATOM     18  C   UNL     1       0.117  -8.514   1.808  0.00  0.00    +0.252 C 
ATOM     19  O   UNL     1       0.122  -8.903   0.655  0.00  0.00    -0.272 OA
BRANCH  18  25
ATOM     20  C   UNL     1       0.060  -4.252  -0.021  0.00  0.00    +0.055 A 
ATOM     21  C   UNL     1       0.069  -4.954  -1.177  0.00  0.00    +0.074 A 
ATOM     22  S   UNL     1       0.091  -6.636  -0.587  0.00  0.00    -0.060 S 
ATOM     23  C   UNL     1       0.087  -6.332   1.066  0.00  0.00    +0.163 A 
ATOM     24  N   UNL     1       0.075  -4.974   1.139  0.00  0.00    -0.335 N 
ATOM     25  N   UNL     1       0.099  -7.213   2.068  0.00  0.00    -0.155 NA
ATOM     26  H   UNL     1       0.074  -4.526   1.999  0.00  0.00    +0.168 HD
BRANCH  20  31
ATOM     27  C   UNL     1      -0.018   1.503   0.010  0.00  0.00    +0.044 C 
ATOM     28  C   UNL     1       0.002  -0.004   0.002  0.00  0.00    -0.050 A 
ATOM     29  C   UNL     1       0.006  -0.686  -1.202  0.00  0.00    +0.004 A 
ATOM     30  C   UNL     1       0.024  -2.066  -1.216  0.00  0.00    +0.010 A 
ATOM     31  C   UNL     1       0.040  -2.773  -0.013  0.00  0.00    -0.001 A 
ATOM     32  C   UNL     1       0.037  -2.079   1.197  0.00  0.00    +0.010 A 
ATOM     33  C   UNL     1       0.023  -0.699   1.198  0.00  0.00    +0.004 A 
ENDBRANCH  20  31
ENDBRANCH  18  25
ENDBRANCH   1  18
TORSDOF 6
