REMARK  Name = ZINC32529571
REMARK  15 active torsions:
REMARK  status: ('A' for Active; 'I' for Inactive)
REMARK    1  A    between atoms: C_1  and  C_2
REMARK    2  A    between atoms: C_2  and  C_3
REMARK    3  A    between atoms: C_3  and  C_5
REMARK    4  A    between atoms: C_3  and  S_20
REMARK    5  A    between atoms: N_7  and  C_8
REMARK    6  A    between atoms: C_9  and  C_15
REMARK    7  A    between atoms: C_10  and  C_14
REMARK    8  A    between atoms: C_11  and  C_13
REMARK    9  A    between atoms: C_15  and  O_17
REMARK   10  A    between atoms: O_17  and  C_18
REMARK   11  A    between atoms: C_18  and  C_19
REMARK   12  A    between atoms: S_20  and  C_21
REMARK   13  A    between atoms: C_23  and  C_33
REMARK   14  A    between atoms: C_26  and  C_32
REMARK   15  A    between atoms: C_28  and  C_31
REMARK                            x       y       z     vdW  Elec       q    Type
REMARK                         _______ _______ _______ _____ _____    ______ ____
ROOT
ATOM      1  C   UNL     1      -1.123  -2.993   4.567  0.00  0.00    +0.139 C 
ENDROOT
BRANCH   1   2
ATOM      2  C   UNL     1      -1.220  -3.642   3.211  0.00  0.00    +0.231 C 
ATOM      3  O   UNL     1      -1.340  -4.846   3.121  0.00  0.00    -0.274 OA
ATOM      4  N   UNL     1      -1.175  -2.885   2.097  0.00  0.00    -0.278 N 
ATOM      5  H   UNL     1      -1.067  -1.793   2.178  0.00  0.00    +0.155 HD
BRANCH   4   6
ATOM      6  C   UNL     1      -1.264  -3.482   0.849  0.00  0.00    +0.086 A 
ATOM      7  C   UNL     1      -1.237  -2.876  -0.403  0.00  0.00    +0.091 A 
ATOM      8  C   UNL     1      -1.344  -3.748  -1.548  0.00  0.00    -0.025 A 
ATOM      9  C   UNL     1      -1.466  -5.066  -1.308  0.00  0.00    -0.008 A 
ATOM     10  S   UNL     1      -1.440  -5.162   0.470  0.00  0.00    -0.078 S 
ATOM     11  C   UNL     1      -1.594  -6.190  -2.303  0.00  0.00    +0.052 C 
ATOM     12  C   UNL     1      -1.319  -3.206  -2.954  0.00  0.00    +0.045 C 
BRANCH   7  13
ATOM     13  C   UNL     1      -1.100  -1.425  -0.551  0.00  0.00    +0.342 C 
ATOM     14  O   UNL     1      -2.091  -0.722  -0.592  0.00  0.00    -0.245 OA
BRANCH  13  15
ATOM     15  O   UNL     1       0.126  -0.870  -0.643  0.00  0.00    -0.461 OA
BRANCH  15  16
ATOM     16  C   UNL     1       0.185   0.574  -0.789  0.00  0.00    +0.229 C 
ATOM     17  C   UNL     1       1.647   1.017  -0.877  0.00  0.00    +0.048 C 
ENDBRANCH  15  16
ENDBRANCH  13  15
ENDBRANCH   7  13
ENDBRANCH   4   6
ENDBRANCH   1   2
BRANCH   1  19
ATOM     18  C   UNL     1       0.429  -1.903   6.193  0.00  0.00    +0.005 C 
ATOM     19  C   UNL     1       0.342  -2.687   4.882  0.00  0.00    +0.020 C 
ENDBRANCH   1  19
BRANCH   1  20
ATOM     20  S   UNL     1      -1.787  -4.116   5.822  0.00  0.00    -0.093 S 
BRANCH  20  21
ATOM     21  C   UNL     1      -3.497  -4.072   5.398  0.00  0.00    +0.099 A 
ATOM     22  C   UNL     1      -4.386  -4.942   6.046  0.00  0.00    +0.038 A 
ATOM     23  C   UNL     1      -5.710  -4.920   5.728  0.00  0.00    -0.039 A 
ATOM     24  C   UNL     1      -6.146  -4.008   4.744  0.00  0.00    +0.004 A 
ATOM     25  C   UNL     1      -7.496  -3.932   4.369  0.00  0.00    +0.013 A 
ATOM     26  C   UNL     1      -7.881  -3.038   3.415  0.00  0.00    -0.050 A 
ATOM     27  C   UNL     1      -6.952  -2.199   2.806  0.00  0.00    +0.008 A 
ATOM     28  C   UNL     1      -5.634  -2.246   3.147  0.00  0.00    -0.024 A 
ATOM     29  C   UNL     1      -5.199  -3.155   4.127  0.00  0.00    +0.075 A 
ATOM     30  N   UNL     1      -3.912  -3.218   4.483  0.00  0.00    -0.240 NA
ATOM     31  C   UNL     1      -4.646  -1.328   2.475  0.00  0.00    +0.046 C 
ATOM     32  C   UNL     1      -9.332  -2.958   3.014  0.00  0.00    +0.044 C 
ATOM     33  C   UNL     1      -6.685  -5.845   6.410  0.00  0.00    +0.044 C 
ENDBRANCH  20  21
ENDBRANCH   1  20
TORSDOF 8
