REMARK  Name = ZINC03920027
REMARK  11 active torsions:
REMARK  status: ('A' for Active; 'I' for Inactive)
REMARK    1  A    between atoms: C_1  and  C_2
REMARK    2  A    between atoms: C_2  and  C_3
REMARK    3  A    between atoms: C_3  and  O_5
REMARK    4  A    between atoms: O_5  and  C_6
REMARK    5  A    between atoms: C_6  and  C_35
REMARK    6  A    between atoms: C_7  and  C_34
REMARK    7  A    between atoms: C_12  and  C_33
REMARK    8  A    between atoms: C_14  and  O_32
REMARK    9  A    between atoms: C_28  and  C_29
REMARK   10  A    between atoms: C_35  and  S_37
REMARK   11  A    between atoms: S_37  and  C_38
REMARK                            x       y       z     vdW  Elec       q    Type
REMARK                         _______ _______ _______ _____ _____    ______ ____
ROOT
ATOM      1  C   UNL     1      -2.151  -3.541  -1.239  0.00  0.00    +0.189 C 
ATOM      2  C   UNL     1      -2.606  -2.134  -0.778  0.00  0.00    +0.039 C 
ATOM      3  C   UNL     1      -3.460  -2.347   0.502  0.00  0.00    +0.012 C 
ATOM      4  C   UNL     1      -2.954  -3.692   1.032  0.00  0.00    +0.006 C 
ATOM      5  C   UNL     1      -2.821  -4.516  -0.277  0.00  0.00    +0.022 C 
ATOM      6  C   UNL     1      -2.043  -5.773   0.062  0.00  0.00    +0.046 C 
ATOM      7  C   UNL     1      -2.903  -6.590   1.039  0.00  0.00    +0.154 C 
ATOM      8  C   UNL     1      -3.248  -5.788   2.291  0.00  0.00    +0.153 C 
ATOM      9  C   UNL     1      -3.901  -4.436   1.956  0.00  0.00    +0.037 C 
ATOM     10  C   UNL     1      -4.121  -3.627   3.236  0.00  0.00    +0.048 C 
ATOM     11  C   UNL     1      -5.107  -4.363   4.149  0.00  0.00    +0.194 C 
ATOM     12  C   UNL     1      -4.574  -5.763   4.388  0.00  0.00    -0.020 C 
ATOM     13  C   UNL     1      -4.466  -6.205   5.633  0.00  0.00    +0.054 C 
ATOM     14  C   UNL     1      -3.935  -7.550   5.906  0.00  0.00    +0.179 C 
ATOM     15  O   UNL     1      -3.870  -7.974   7.045  0.00  0.00    -0.288 OA
ATOM     16  C   UNL     1      -3.483  -8.370   4.770  0.00  0.00    +0.047 C 
ATOM     17  C   UNL     1      -3.607  -7.911   3.534  0.00  0.00    -0.009 C 
ATOM     18  C   UNL     1      -4.209  -6.601   3.164  0.00  0.00    +0.047 C 
ATOM     19  C   UNL     1      -5.471  -6.871   2.343  0.00  0.00    +0.023 C 
ATOM     20  F   UNL     1      -5.219  -3.684   5.367  0.00  0.00    -0.241 F 
ATOM     21  F   UNL     1      -2.077  -5.532   3.011  0.00  0.00    -0.238 F 
ATOM     22  C   UNL     1      -4.210  -4.888  -0.799  0.00  0.00    +0.016 C 
ATOM     23  C   UNL     1      -1.386  -1.267  -0.458  0.00  0.00    +0.012 C 
ENDROOT
BRANCH   7  24
ATOM     24  O   UNL     1      -4.114  -6.975   0.385  0.00  0.00    -0.389 OA
ATOM     25  H   UNL     1      -3.979  -7.517  -0.404  0.00  0.00    +0.210 HD
ENDBRANCH   7  24
BRANCH   1  26
ATOM     26  C   UNL     1      -2.609  -3.803  -2.651  0.00  0.00    +0.236 C 
ATOM     27  O   UNL     1      -3.528  -3.163  -3.119  0.00  0.00    -0.281 OA
BRANCH  26  28
ATOM     28  S   UNL     1      -1.856  -4.965  -3.565  0.00  0.00    -0.051 S 
BRANCH  28  29
ATOM     29  C   UNL     1      -2.735  -4.914  -5.151  0.00  0.00    +0.290 C 
ATOM     30  F   UNL     1      -2.337  -3.781  -5.868  0.00  0.00    -0.237 F 
ENDBRANCH  28  29
ENDBRANCH  26  28
ENDBRANCH   1  26
BRANCH   1  31
ATOM     31  O   UNL     1      -0.730  -3.656  -1.151  0.00  0.00    -0.449 OA
BRANCH  31  32
ATOM     32  C   UNL     1      -0.005  -2.945  -2.029  0.00  0.00    +0.308 C 
ATOM     33  O   UNL     1      -0.559  -2.300  -2.888  0.00  0.00    -0.251 OA
BRANCH  32  35
ATOM     34  C   UNL     1       2.076  -2.068  -3.053  0.00  0.00    +0.015 C 
ATOM     35  C   UNL     1       1.500  -2.951  -1.945  0.00  0.00    +0.117 C 
ENDBRANCH  32  35
ENDBRANCH  31  32
ENDBRANCH   1  31
TORSDOF 7
