REMARK  Name = ZINC49027746
REMARK  9 active torsions:
REMARK  status: ('A' for Active; 'I' for Inactive)
REMARK    1  A    between atoms: C_1  and  C_2
REMARK    2  A    between atoms: C_2  and  C_3
REMARK    3  A    between atoms: C_2  and  N_4
REMARK    4  A    between atoms: N_4  and  C_5
REMARK    5  A    between atoms: N_4  and  C_11
REMARK    6  A    between atoms: C_5  and  C_6
REMARK    7  A    between atoms: C_11  and  C_13
REMARK    8  A    between atoms: C_11  and  C_15
REMARK    9  A    between atoms: C_13  and  N_14
REMARK                            x       y       z     vdW  Elec       q    Type
REMARK                         _______ _______ _______ _____ _____    ______ ____
ROOT
ATOM      1  C   UNL     1      -2.090  -0.496   1.110  0.00  0.00    +0.077 C 
ENDROOT
BRANCH   1   2
ATOM      2  C   UNL     1      -2.756   0.783   1.550  0.00  0.00    +0.006 A 
ATOM      3  C   UNL     1      -2.378   1.652   2.519  0.00  0.00    +0.028 A 
ATOM      4  C   UNL     1      -3.152   2.774   2.752  0.00  0.00    +0.025 A 
ATOM      5  C   UNL     1      -4.266   2.971   2.004  0.00  0.00    +0.060 A 
ATOM      6  S   UNL     1      -4.242   1.549   0.925  0.00  0.00    -0.099 S 
ATOM      7 BR   UNL     1      -2.665   4.014   4.094  0.00  0.00    -0.050 Br
ENDBRANCH   1   2
BRANCH   1   8
ATOM      8  N   UNL     1      -2.083  -0.564  -0.357  0.00  0.00    -0.290 NA
BRANCH   8  10
ATOM      9  C   UNL     1      -1.404   1.769  -0.667  0.00  0.00    +0.024 C 
ATOM     10  C   UNL     1      -1.040   0.304  -0.919  0.00  0.00    +0.051 C 
ATOM     11  C   UNL     1       0.300  -0.010  -0.251  0.00  0.00    +0.024 C 
ENDBRANCH   8  10
BRANCH   8  12
ATOM     12  C   UNL     1      -1.920  -1.949  -0.819  0.00  0.00    +0.127 C 
BRANCH  12  13
ATOM     13  C   UNL     1      -2.098  -2.004  -2.315  0.00  0.00    +0.004 A 
ATOM     14  C   UNL     1      -1.165  -1.876  -3.290  0.00  0.00    +0.012 A 
ATOM     15  C   UNL     1      -1.561  -1.963  -4.612  0.00  0.00    +0.008 A 
ATOM     16  C   UNL     1      -2.870  -2.173  -4.893  0.00  0.00    +0.045 A 
ATOM     17  S   UNL     1      -3.589  -2.262  -3.261  0.00  0.00    -0.100 S 
ENDBRANCH  12  13
ENDBRANCH   8  12
ENDBRANCH   1   8
BRANCH   1  18
ATOM     18  C   UNL     1      -2.861  -1.692   1.672  0.00  0.00    -0.062 C 
BRANCH  18  19
ATOM     19  N   UNL     1      -1.973  -2.860   1.737  0.00  0.00    +0.379 N 
ATOM     20  H   UNL     1      -1.497  -2.970   0.854  0.00  0.00    -0.090 HD
ATOM     21  H   UNL     1      -1.293  -2.725   2.471  0.00  0.00    -0.090 HD
ATOM     22  H   UNL     1      -2.518  -3.687   1.931  0.00  0.00    -0.090 HD
ENDBRANCH  18  19
ENDBRANCH   1  18
TORSDOF 7
