REMARK  Name = ZINC39227466
REMARK  11 active torsions:
REMARK  status: ('A' for Active; 'I' for Inactive)
REMARK    1  A    between atoms: C_1  and  C_2
REMARK    2  A    between atoms: C_2  and  C_4
REMARK    3  A    between atoms: C_2  and  N_8
REMARK    4  A    between atoms: C_4  and  C_5
REMARK    5  A    between atoms: C_5  and  C_6
REMARK    6  A    between atoms: C_5  and  C_7
REMARK    7  A    between atoms: C_9  and  C_11
REMARK    8  A    between atoms: C_15  and  C_17
REMARK    9  A    between atoms: N_30  and  C_33
REMARK   10  A    between atoms: C_33  and  C_34
REMARK   11  A    between atoms: C_33  and  C_35
REMARK                            x       y       z     vdW  Elec       q    Type
REMARK                         _______ _______ _______ _____ _____    ______ ____
ROOT
ATOM      1  C   UNL     1      -5.957  -1.970  -4.002  0.00  0.00    -0.017 A 
ATOM      2  C   UNL     1      -5.270  -1.649  -5.176  0.00  0.00    +0.012 A 
ATOM      3  C   UNL     1      -5.875  -1.797  -6.404  0.00  0.00    +0.047 A 
ATOM      4  C   UNL     1      -7.180  -2.268  -6.491  0.00  0.00    +0.132 A 
ATOM      5  C   UNL     1      -7.874  -2.595  -5.314  0.00  0.00    +0.060 A 
ATOM      6  C   UNL     1      -7.260  -2.450  -4.070  0.00  0.00    +0.023 A 
ATOM      7  C   UNL     1      -9.253  -3.106  -5.415  0.00  0.00    +0.170 C 
ATOM      8  O   UNL     1      -9.822  -3.599  -4.463  0.00  0.00    -0.292 OA
ATOM      9  C   UNL     1      -9.925  -2.982  -6.771  0.00  0.00    +0.127 C 
ATOM     10  C   UNL     1      -8.864  -3.310  -7.831  0.00  0.00    +0.114 C 
ATOM     11  O   UNL     1      -7.768  -2.406  -7.702  0.00  0.00    -0.485 OA
ATOM     12  C   UNL     1      -8.374  -4.745  -7.628  0.00  0.00    +0.030 C 
ATOM     13  C   UNL     1      -7.383  -5.102  -8.738  0.00  0.00    -0.075 C 
ATOM     14  N   UNL     1      -8.044  -4.987 -10.044  0.00  0.00    +0.381 N 
ATOM     15  C   UNL     1      -8.450  -3.595 -10.276  0.00  0.00    -0.075 C 
ATOM     16  C   UNL     1      -9.482  -3.179  -9.225  0.00  0.00    +0.030 C 
ATOM     17  H   UNL     1      -8.860  -5.581 -10.061  0.00  0.00    -0.081 HD
ENDROOT
BRANCH   1  22
ATOM     18  C   UNL     1      -3.374  -1.173  -1.375  0.00  0.00    +0.037 A 
ATOM     19  C   UNL     1      -4.069  -1.503  -0.210  0.00  0.00    +0.013 A 
ATOM     20  C   UNL     1      -5.363  -1.978  -0.286  0.00  0.00    +0.001 A 
ATOM     21  C   UNL     1      -5.978  -2.130  -1.514  0.00  0.00    +0.008 A 
ATOM     22  C   UNL     1      -5.295  -1.805  -2.685  0.00  0.00    -0.017 A 
ATOM     23  C   UNL     1      -3.993  -1.320  -2.616  0.00  0.00    +0.021 A 
BRANCH  18  25
ATOM     24  N   UNL     1      -1.392  -0.524  -0.093  0.00  0.00    -0.309 N 
ATOM     25  C   UNL     1      -1.988  -0.665  -1.293  0.00  0.00    +0.244 C 
ATOM     26  O   UNL     1      -1.387  -0.374  -2.308  0.00  0.00    -0.270 OA
ATOM     27  H   UNL     1      -1.872  -0.756   0.717  0.00  0.00    +0.149 HD
BRANCH  24  29
ATOM     28  C   UNL     1      -0.036   1.510  -0.018  0.00  0.00    +0.028 C 
ATOM     29  C   UNL     1      -0.019  -0.020  -0.011  0.00  0.00    +0.070 C 
BRANCH  29  30
ATOM     30  C   UNL     1       0.631  -0.517   1.282  0.00  0.00    +0.025 C 
BRANCH  30  31
ATOM     31  C   UNL     1       0.763  -2.041   1.233  0.00  0.00    -0.015 C 
ATOM     32  C   UNL     1       1.749  -2.433   0.131  0.00  0.00    +0.007 C 
ATOM     33  C   UNL     1       1.276  -2.551   2.581  0.00  0.00    +0.007 C 
ENDBRANCH  30  31
ENDBRANCH  29  30
ENDBRANCH  24  29
ENDBRANCH  18  25
ENDBRANCH   1  22
BRANCH  14  34
ATOM     34  C   UNL     1      -7.114  -5.406 -11.101  0.00  0.00    -0.075 C 
ATOM     35  C   UNL     1      -6.698  -6.860 -10.866  0.00  0.00    -0.014 C 
ATOM     36  C   UNL     1      -7.802  -5.286 -12.462  0.00  0.00    -0.014 C 
ENDBRANCH  14  34
TORSDOF 6
