REMARK  Name = ZINC20682609
REMARK  10 active torsions:
REMARK  status: ('A' for Active; 'I' for Inactive)
REMARK    1  A    between atoms: C_1  and  O_2
REMARK    2  A    between atoms: O_2  and  C_3
REMARK    3  A    between atoms: C_5  and  C_13
REMARK    4  A    between atoms: C_7  and  O_11
REMARK    5  A    between atoms: C_8  and  O_9
REMARK    6  A    between atoms: O_9  and  C_10
REMARK    7  A    between atoms: O_11  and  C_12
REMARK    8  A    between atoms: C_24  and  S_29
REMARK    9  A    between atoms: S_29  and  N_32
REMARK   10  A    between atoms: N_32  and  C_33
REMARK                            x       y       z     vdW  Elec       q    Type
REMARK                         _______ _______ _______ _____ _____    ______ ____
ROOT
ATOM      1  C   UNL     1      -3.736   1.691   0.051  0.00  0.00    +0.105 C 
ATOM      2  C   UNL     1      -3.539   2.981   0.827  0.00  0.00    +0.029 C 
ATOM      3  C   UNL     1      -4.714   3.968   0.851  0.00  0.00    +0.033 C 
ATOM      4  C   UNL     1      -3.963   5.312   0.997  0.00  0.00    -0.030 C 
ATOM      5  C   UNL     1      -2.729   5.204   0.520  0.00  0.00    -0.023 C 
ATOM      6  C   UNL     1      -2.545   3.829  -0.011  0.00  0.00    +0.049 C 
ATOM      7  C   UNL     1      -1.231   3.150   0.015  0.00  0.00    -0.018 A 
ATOM      8  C   UNL     1      -0.039   3.843   0.014  0.00  0.00    +0.034 A 
ATOM      9  C   UNL     1       1.164   3.162   0.007  0.00  0.00    +0.106 A 
ATOM     10  C   UNL     1       1.175   1.778   0.000  0.00  0.00    +0.030 A 
ATOM     11  C   UNL     1      -0.013   1.076   0.008  0.00  0.00    +0.025 A 
ATOM     12  C   UNL     1      -1.227   1.751   0.017  0.00  0.00    +0.031 A 
ATOM     13  N   UNL     1      -2.419   1.017   0.056  0.00  0.00    -0.336 N 
ATOM     14  H   UNL     1      -2.364  -0.081   0.092  0.00  0.00    +0.147 HD
ENDROOT
BRANCH   1  17
ATOM     15  C   UNL     1      -6.994  -0.056   0.833  0.00  0.00    +0.165 A 
ATOM     16  C   UNL     1      -6.043   0.739   0.211  0.00  0.00    +0.055 A 
ATOM     17  C   UNL     1      -4.766   0.826   0.731  0.00  0.00    -0.020 A 
ATOM     18  C   UNL     1      -4.429   0.119   1.869  0.00  0.00    +0.055 A 
ATOM     19  C   UNL     1      -5.375  -0.673   2.501  0.00  0.00    +0.165 A 
ATOM     20  C   UNL     1      -6.661  -0.765   1.981  0.00  0.00    +0.204 A 
BRANCH  15  22
ATOM     21  C   UNL     1      -8.522   0.613  -0.862  0.00  0.00    +0.277 C 
ATOM     22  O   UNL     1      -8.251  -0.142   0.321  0.00  0.00    -0.491 OA
ENDBRANCH  15  22
BRANCH  20  23
ATOM     23  O   UNL     1      -7.591  -1.546   2.595  0.00  0.00    -0.488 OA
ATOM     24  C   UNL     1      -7.675  -2.909   2.172  0.00  0.00    +0.277 C 
ENDBRANCH  20  23
BRANCH  19  25
ATOM     25  O   UNL     1      -5.044  -1.365   3.624  0.00  0.00    -0.491 OA
ATOM     26  C   UNL     1      -3.705  -1.224   4.102  0.00  0.00    +0.277 C 
ENDBRANCH  19  25
ENDBRANCH   1  17
BRANCH   9  27
ATOM     27  S   UNL     1       2.683   4.055   0.006  0.00  0.00    +0.059 S 
ATOM     28  O   UNL     1       2.403   5.331   0.564  0.00  0.00    -0.153 OA
ATOM     29  O   UNL     1       3.666   3.184   0.550  0.00  0.00    -0.153 OA
BRANCH  27  30
ATOM     30  N   UNL     1       3.099   4.311  -1.576  0.00  0.00    -0.187 NA
ATOM     31  H   UNL     1       3.910   3.715  -2.021  0.00  0.00    +0.148 HD
BRANCH  30  32
ATOM     32  C   UNL     1       2.259   5.156  -2.427  0.00  0.00    +0.077 C 
ATOM     33  C   UNL     1       1.279   4.279  -3.208  0.00  0.00    +0.020 C 
ATOM     34  C   UNL     1       0.401   5.162  -4.097  0.00  0.00    +0.002 C 
ATOM     35  C   UNL     1       1.284   5.936  -5.077  0.00  0.00    +0.000 C 
ATOM     36  C   UNL     1       2.264   6.814  -4.296  0.00  0.00    +0.002 C 
ATOM     37  C   UNL     1       3.142   5.931  -3.407  0.00  0.00    +0.020 C 
ENDBRANCH  30  32
ENDBRANCH  27  30
ENDBRANCH   9  27
TORSDOF 7
