REMARK  Name = ZINC27682945
REMARK  5 active torsions:
REMARK  status: ('A' for Active; 'I' for Inactive)
REMARK    1  A    between atoms: C_9  and  C_11
REMARK    2  A    between atoms: N_13  and  N_14
REMARK    3  A    between atoms: C_15  and  C_17
REMARK    4  A    between atoms: C_17  and  N_18
REMARK    5  A    between atoms: C_19  and  C_21
REMARK                            x       y       z     vdW  Elec       q    Type
REMARK                         _______ _______ _______ _____ _____    ______ ____
ROOT
ATOM      1  N   UNL     1      -0.367   9.380   0.061  0.00  0.00    -0.233 N 
ATOM      2  C   UNL     1      -1.570   9.989   0.076  0.00  0.00    +0.246 C 
ATOM      3  O   UNL     1      -2.585   9.326   0.082  0.00  0.00    -0.273 OA
ATOM      4  H   UNL     1       0.554   9.981   0.056  0.00  0.00    +0.173 HD
ENDROOT
BRANCH   1   7
ATOM      5  C   UNL     1       0.911   7.372   0.036  0.00  0.00    +0.278 C 
ATOM      6  O   UNL     1       1.929   8.036   0.031  0.00  0.00    -0.267 OA
ATOM      7  N   UNL     1      -0.291   7.981   0.051  0.00  0.00    -0.229 N 
ATOM      8  H   UNL     1      -1.212   7.380   0.056  0.00  0.00    +0.173 HD
BRANCH   5  17
ATOM      9  C   UNL     1      -0.013   1.076   0.008  0.00  0.00    +0.001 A 
ATOM     10  C   UNL     1      -1.235   1.747   0.018  0.00  0.00    +0.002 A 
ATOM     11  C   UNL     1      -1.290   3.105   0.031  0.00  0.00    +0.028 A 
ATOM     12  C   UNL     1      -0.097   3.853   0.024  0.00  0.00    +0.072 A 
ATOM     13  C   UNL     1       1.146   3.167   0.008  0.00  0.00    +0.000 A 
ATOM     14  C   UNL     1       1.163   1.763   0.000  0.00  0.00    +0.010 A 
ATOM     15  C   UNL     1       2.340   3.912   0.001  0.00  0.00    +0.012 A 
ATOM     16  C   UNL     1       2.252   5.274   0.011  0.00  0.00    +0.034 A 
ATOM     17  C   UNL     1       0.992   5.891   0.026  0.00  0.00    +0.127 A 
ATOM     18  N   UNL     1      -0.122   5.185   0.032  0.00  0.00    -0.242 NA
ENDBRANCH   5  17
ENDBRANCH   1   7
BRANCH   2  19
ATOM     19  C   UNL     1      -1.652  11.493   0.087  0.00  0.00    +0.202 C 
BRANCH  19  20
ATOM     20  N   UNL     1      -3.058  11.905   0.102  0.00  0.00    -0.300 N 
ATOM     21  C   UNL     1      -3.376  13.215   0.114  0.00  0.00    +0.280 C 
ATOM     22  O   UNL     1      -2.496  14.055   0.111  0.00  0.00    -0.267 OA
ATOM     23  H   UNL     1      -3.854  11.146   0.105  0.00  0.00    +0.150 HD
BRANCH  21  24
ATOM     24  C   UNL     1      -4.783  13.627   0.130  0.00  0.00    +0.191 A 
ATOM     25  C   UNL     1      -5.242  14.914   0.142  0.00  0.00    +0.056 A 
ATOM     26  C   UNL     1      -6.643  14.842   0.155  0.00  0.00    +0.058 A 
ATOM     27  C   UNL     1      -6.975  13.531   0.149  0.00  0.00    +0.171 A 
ATOM     28  O   UNL     1      -5.851  12.802   0.129  0.00  0.00    -0.444 OA
ATOM     29 BR   UNL     1      -8.735  12.840   0.162  0.00  0.00    -0.008 Br
ENDBRANCH  21  24
ENDBRANCH  19  20
ENDBRANCH   2  19
TORSDOF 5
