REMARK  Name = ZINC61702065
REMARK  4 active torsions:
REMARK  status: ('A' for Active; 'I' for Inactive)
REMARK    1  A    between atoms: C_1  and  C_2
REMARK    2  A    between atoms: C_5  and  S_9
REMARK    3  A    between atoms: C_7  and  N_8
REMARK    4  A    between atoms: S_9  and  C_10
REMARK                            x       y       z     vdW  Elec       q    Type
REMARK                         _______ _______ _______ _____ _____    ______ ____
ROOT
ATOM      1  S   UNL     1       0.062  -4.537  -0.031  0.00  0.00    -0.050 S 
ENDROOT
BRANCH   1   2
ATOM      2  C   UNL     1      -0.090  -4.950  -1.737  0.00  0.00    +0.196 A 
ATOM      3  N   UNL     1      -0.097  -4.110  -2.749  0.00  0.00    -0.122 NA
ATOM      4  N   UNL     1      -0.216  -4.758  -3.854  0.00  0.00    -0.134 NA
ATOM      5  C   UNL     1      -0.288  -6.034  -3.615  0.00  0.00    +0.134 A 
ATOM      6  N   UNL     1      -0.217  -6.199  -2.262  0.00  0.00    -0.306 N 
ATOM      7  C   UNL     1      -0.283  -7.467  -1.535  0.00  0.00    +0.125 C 
ATOM      8  C   UNL     1       0.250  -8.591  -2.428  0.00  0.00    +0.022 C 
ATOM      9  C   UNL     1      -0.893  -9.179  -3.254  0.00  0.00    +0.002 C 
ATOM     10  C   UNL     1      -1.500  -8.118  -4.166  0.00  0.00    +0.008 C 
ATOM     11  C   UNL     1      -0.414  -7.146  -4.624  0.00  0.00    +0.076 C 
ENDBRANCH   1   2
BRANCH   1  16
ATOM     12  C   UNL     1      -0.042   1.502   0.029  0.00  0.00    +0.045 C 
ATOM     13  C   UNL     1      -0.014  -0.004   0.014  0.00  0.00    -0.030 A 
ATOM     14  C   UNL     1      -1.198  -0.717   0.016  0.00  0.00    +0.006 A 
ATOM     15  C   UNL     1      -1.177  -2.098   0.002  0.00  0.00    +0.015 A 
ATOM     16  C   UNL     1       0.036  -2.776  -0.014  0.00  0.00    +0.017 A 
ATOM     17  C   UNL     1       1.227  -2.063  -0.016  0.00  0.00    +0.038 A 
ATOM     18  C   UNL     1       1.202  -0.676  -0.008  0.00  0.00    +0.029 A 
BRANCH  18  19
ATOM     19  N   UNL     1       2.399   0.045  -0.015  0.00  0.00    -0.358 N 
ATOM     20  H   UNL     1       2.381   1.015  -0.005  0.00  0.00    +0.142 HD
ATOM     21  H   UNL     1       3.248  -0.424  -0.031  0.00  0.00    +0.142 HD
ENDBRANCH  18  19
ENDBRANCH   1  16
TORSDOF 3
