REMARK  Name = ZINC44842667
REMARK  4 active torsions:
REMARK  status: ('A' for Active; 'I' for Inactive)
REMARK    1  A    between atoms: C_6  and  C_7
REMARK    2  A    between atoms: C_7  and  C_9
REMARK    3  A    between atoms: C_10  and  N_11
REMARK    4  A    between atoms: N_11  and  C_12
REMARK                            x       y       z     vdW  Elec       q    Type
REMARK                         _______ _______ _______ _____ _____    ______ ____
ROOT
ATOM      1  C   UNL     1      -2.501  -0.074   0.026  0.00  0.00    +0.066 C 
ATOM      2  C   UNL     1      -3.661  -0.768   0.034  0.00  0.00    +0.076 C 
ENDROOT
BRANCH   1   3
ATOM      3  C   UNL     1      -1.267  -0.762   0.010  0.00  0.00    +0.187 C 
ATOM      4  O   UNL     1      -1.248  -1.980   0.004  0.00  0.00    -0.287 OA
BRANCH   3  10
ATOM      5  C   UNL     1      -0.017   1.392   0.010  0.00  0.00    +0.015 A 
ATOM      6  C   UNL     1       1.167   2.098   0.002  0.00  0.00    +0.050 A 
ATOM      7  C   UNL     1       2.381   1.425  -0.013  0.00  0.00    +0.166 A 
ATOM      8  C   UNL     1       2.407   0.029  -0.021  0.00  0.00    +0.167 A 
ATOM      9  C   UNL     1       1.223  -0.683  -0.014  0.00  0.00    +0.061 A 
ATOM     10  C   UNL     1       0.002  -0.004   0.002  0.00  0.00    +0.025 A 
ATOM     11  O   UNL     1       3.708  -0.382  -0.037  0.00  0.00    -0.453 OA
ATOM     12  C   UNL     1       4.469   0.768  -0.451  0.00  0.00    +0.466 C 
ATOM     13  O   UNL     1       3.666   1.883  -0.024  0.00  0.00    -0.453 OA
ENDBRANCH   3  10
ENDBRANCH   1   3
BRANCH   2  14
ATOM     14  N   UNL     1      -4.854  -0.102   0.049  0.00  0.00    -0.319 N 
ATOM     15  H   UNL     1      -4.869   0.868   0.054  0.00  0.00    +0.152 HD
BRANCH  14  16
ATOM     16  C   UNL     1      -6.055  -0.820   0.057  0.00  0.00    +0.050 A 
ATOM     17  C   UNL     1      -6.035  -2.209   0.055  0.00  0.00    +0.027 A 
ATOM     18  C   UNL     1      -7.222  -2.915   0.063  0.00  0.00    +0.040 A 
ATOM     19  C   UNL     1      -8.431  -2.240   0.073  0.00  0.00    +0.125 A 
ATOM     20  C   UNL     1      -8.454  -0.856   0.074  0.00  0.00    +0.060 A 
ATOM     21  C   UNL     1      -7.269  -0.144   0.072  0.00  0.00    +0.065 A 
ATOM     22 CL   UNL     1      -7.298   1.591   0.081  0.00  0.00    -0.082 Cl
ATOM     23  F   UNL     1      -9.591  -2.934   0.081  0.00  0.00    -0.205 F 
ENDBRANCH  14  16
ENDBRANCH   2  14
TORSDOF 4
