REMARK  Name = ZINC15236750
REMARK  8 active torsions:
REMARK  status: ('A' for Active; 'I' for Inactive)
REMARK    1  A    between atoms: C_1  and  C_2
REMARK    2  A    between atoms: C_2  and  C_23
REMARK    3  A    between atoms: N_5  and  C_9
REMARK    4  A    between atoms: C_9  and  C_10
REMARK    5  A    between atoms: C_10  and  C_12
REMARK    6  A    between atoms: C_10  and  O_22
REMARK    7  A    between atoms: C_12  and  O_13
REMARK    8  A    between atoms: O_13  and  C_14
REMARK                            x       y       z     vdW  Elec       q    Type
REMARK                         _______ _______ _______ _____ _____    ______ ____
ROOT
ATOM      1  C   UNL     1      -0.019   1.526   0.010  0.00  0.00    +0.047 C 
ATOM      2  C   UNL     1       0.002  -0.004   0.002  0.00  0.00    +0.135 C 
ATOM      3  C   UNL     1      -1.403  -0.557   0.139  0.00  0.00    +0.251 C 
ATOM      4  O   UNL     1      -2.332  -0.392  -0.621  0.00  0.00    -0.272 OA
ATOM      5  N   UNL     1      -1.403  -1.272   1.282  0.00  0.00    -0.221 N 
ATOM      6  C   UNL     1      -0.206  -1.247   1.879  0.00  0.00    +0.310 C 
ATOM      7  O   UNL     1       0.040  -1.819   2.924  0.00  0.00    -0.252 OA
ATOM      8  N   UNL     1       0.695  -0.520   1.195  0.00  0.00    -0.281 N 
ATOM      9  H   UNL     1       1.621  -0.365   1.440  0.00  0.00    +0.152 HD
ENDROOT
BRANCH   2  10
ATOM     10  C   UNL     1       0.657  -0.517  -1.255  0.00  0.00    -0.015 A 
ATOM     11  C   UNL     1      -0.124  -0.771  -2.381  0.00  0.00    +0.007 A 
ATOM     12  C   UNL     1       0.436  -1.235  -3.531  0.00  0.00    +0.009 A 
ATOM     13  C   UNL     1       1.822  -1.462  -3.588  0.00  0.00    -0.018 A 
ATOM     14  C   UNL     1       2.436  -1.940  -4.758  0.00  0.00    +0.008 A 
ATOM     15  C   UNL     1       3.781  -2.148  -4.776  0.00  0.00    +0.001 A 
ATOM     16  C   UNL     1       4.561  -1.894  -3.650  0.00  0.00    +0.001 A 
ATOM     17  C   UNL     1       4.001  -1.431  -2.499  0.00  0.00    +0.008 A 
ATOM     18  C   UNL     1       2.616  -1.204  -2.443  0.00  0.00    -0.018 A 
ATOM     19  C   UNL     1       2.002  -0.720  -1.274  0.00  0.00    +0.014 A 
ENDBRANCH   2  10
BRANCH   5  20
ATOM     20  C   UNL     1      -2.569  -1.986   1.805  0.00  0.00    +0.152 C 
BRANCH  20  21
ATOM     21  C   UNL     1      -2.585  -3.413   1.252  0.00  0.00    +0.170 C 
BRANCH  21  22
ATOM     22  O   UNL     1      -1.450  -4.128   1.745  0.00  0.00    -0.387 OA
ATOM     23  H   UNL     1      -1.418  -4.196   2.709  0.00  0.00    +0.210 HD
ENDBRANCH  21  22
BRANCH  21  24
ATOM     24  C   UNL     1      -3.867  -4.119   1.697  0.00  0.00    +0.262 C 
BRANCH  24  25
ATOM     25  O   UNL     1      -3.937  -5.409   1.086  0.00  0.00    -0.488 OA
BRANCH  25  26
ATOM     26  C   UNL     1      -5.023  -6.172   1.379  0.00  0.00    +0.139 A 
ATOM     27  C   UNL     1      -6.002  -5.688   2.233  0.00  0.00    +0.048 A 
ATOM     28  C   UNL     1      -7.105  -6.465   2.530  0.00  0.00    +0.023 A 
ATOM     29  C   UNL     1      -7.233  -7.727   1.976  0.00  0.00    +0.043 A 
ATOM     30  C   UNL     1      -6.258  -8.213   1.124  0.00  0.00    +0.043 A 
ATOM     31  C   UNL     1      -5.155  -7.436   0.820  0.00  0.00    +0.084 A 
ATOM     32 CL   UNL     1      -3.935  -8.043  -0.255  0.00  0.00    -0.080 Cl
ATOM     33 CL   UNL     1      -8.620  -8.702   2.352  0.00  0.00    -0.083 Cl
ENDBRANCH  25  26
ENDBRANCH  24  25
ENDBRANCH  21  24
ENDBRANCH  20  21
ENDBRANCH   5  20
TORSDOF 7
