REMARK  Name = ZINC38887454
REMARK  10 active torsions:
REMARK  status: ('A' for Active; 'I' for Inactive)
REMARK    1  A    between atoms: C_1  and  C_2
REMARK    2  A    between atoms: C_7  and  C_8
REMARK    3  A    between atoms: C_10  and  C_13
REMARK    4  A    between atoms: C_13  and  N_14
REMARK    5  A    between atoms: C_18  and  C_21
REMARK    6  A    between atoms: N_23  and  C_24
REMARK    7  A    between atoms: C_24  and  C_26
REMARK    8  A    between atoms: C_24  and  C_27
REMARK    9  A    between atoms: C_30  and  N_33
REMARK   10  A    between atoms: C_37  and  C_40
REMARK                            x       y       z     vdW  Elec       q    Type
REMARK                         _______ _______ _______ _____ _____    ______ ____
ROOT
ATOM      1  N   UNL     1       2.051   0.555   6.297  0.00  0.00    +0.386 N 
ATOM      2  C   UNL     1       2.754  -0.582   5.690  0.00  0.00    -0.078 C 
ATOM      3  C   UNL     1       4.257  -0.451   5.942  0.00  0.00    -0.018 C 
ATOM      4  C   UNL     1       4.517  -0.435   7.451  0.00  0.00    +0.009 C 
ATOM      5  C   UNL     1       3.720   0.710   8.084  0.00  0.00    +0.058 C 
ATOM      6  C   UNL     1       2.237   0.535   7.753  0.00  0.00    -0.065 C 
ATOM      7  H   UNL     1       2.422   1.415   5.923  0.00  0.00    -0.081 HD
ENDROOT
BRANCH   5   8
ATOM      8  C   UNL     1       3.909   0.688   9.579  0.00  0.00    +0.215 C 
ATOM      9  O   UNL     1       2.951   0.550  10.309  0.00  0.00    -0.276 OA
ATOM     10  N   UNL     1       5.143   0.821  10.104  0.00  0.00    -0.309 N 
ATOM     11  H   UNL     1       5.910   0.931   9.520  0.00  0.00    +0.149 HD
BRANCH  10  12
ATOM     12  C   UNL     1       5.327   0.799  11.557  0.00  0.00    +0.100 C 
ATOM     13  C   UNL     1       5.439  -0.649  12.036  0.00  0.00    +0.033 C 
BRANCH  12  14
ATOM     14  C   UNL     1       6.586   1.546  11.916  0.00  0.00    -0.027 A 
ATOM     15  C   UNL     1       7.714   1.414  11.127  0.00  0.00    +0.007 A 
ATOM     16  C   UNL     1       8.870   2.096  11.453  0.00  0.00    +0.023 A 
ATOM     17  C   UNL     1       8.898   2.916  12.574  0.00  0.00    +0.030 A 
ATOM     18  C   UNL     1       7.763   3.046  13.364  0.00  0.00    +0.023 A 
ATOM     19  C   UNL     1       6.609   2.365  13.029  0.00  0.00    +0.007 A 
BRANCH  17  20
ATOM     20  N   UNL     1      10.065   3.608  12.906  0.00  0.00    -0.330 N 
ATOM     21  C   UNL     1      10.148   4.380  14.154  0.00  0.00    +0.105 C 
ATOM     22  C   UNL     1      11.384   3.922  14.935  0.00  0.00    +0.019 C 
ATOM     23  C   UNL     1      12.620   4.037  14.041  0.00  0.00    +0.006 C 
ATOM     24  C   UNL     1      12.456   3.128  12.821  0.00  0.00    +0.003 C 
ATOM     25  C   UNL     1      11.235   3.572  12.018  0.00  0.00    +0.108 C 
ATOM     26  C   UNL     1      13.707   3.219  11.944  0.00  0.00    +0.009 C 
ENDBRANCH  17  20
ENDBRANCH  12  14
ENDBRANCH  10  12
ENDBRANCH   5   8
BRANCH   1  27
ATOM     27  C   UNL     1       0.618   0.465   5.986  0.00  0.00    +0.022 C 
BRANCH  27  30
ATOM     28  C   UNL     1       0.201   0.118   2.397  0.00  0.00    +0.202 A 
ATOM     29  N   UNL     1       0.405  -0.366   3.635  0.00  0.00    -0.193 NA
ATOM     30  C   UNL     1       0.417   0.609   4.499  0.00  0.00    +0.211 A 
ATOM     31  O   UNL     1       0.220   1.759   3.843  0.00  0.00    -0.340 OA
ATOM     32  N   UNL     1       0.086   1.421   2.471  0.00  0.00    -0.056 NA
BRANCH  28  39
ATOM     33  C   UNL     1      -1.906   0.631   0.483  0.00  0.00    +0.044 C 
ATOM     34  C   UNL     1      -0.887  -0.449   0.226  0.00  0.00    -0.040 A 
ATOM     35  C   UNL     1      -0.950  -1.198  -0.932  0.00  0.00    +0.004 A 
ATOM     36  C   UNL     1      -0.015  -2.190  -1.168  0.00  0.00    +0.000 A 
ATOM     37  C   UNL     1       0.988  -2.436  -0.247  0.00  0.00    +0.001 A 
ATOM     38  C   UNL     1       1.060  -1.693   0.913  0.00  0.00    +0.012 A 
ATOM     39  C   UNL     1       0.124  -0.689   1.154  0.00  0.00    +0.025 A 
ENDBRANCH  28  39
ENDBRANCH  27  30
ENDBRANCH   1  27
TORSDOF 7
