REMARK  Name = ZINC13075121
REMARK  12 active torsions:
REMARK  status: ('A' for Active; 'I' for Inactive)
REMARK    1  A    between atoms: C_1  and  O_2
REMARK    2  A    between atoms: O_2  and  C_3
REMARK    3  A    between atoms: C_5  and  C_25
REMARK    4  A    between atoms: C_7  and  S_11
REMARK    5  A    between atoms: C_8  and  O_9
REMARK    6  A    between atoms: O_9  and  C_10
REMARK    7  A    between atoms: S_11  and  N_14
REMARK    8  A    between atoms: N_14  and  C_15
REMARK    9  A    between atoms: C_15  and  C_16
REMARK   10  A    between atoms: C_19  and  S_21
REMARK   11  A    between atoms: S_21  and  N_24
REMARK   12  A    between atoms: C_26  and  C_27
REMARK                            x       y       z     vdW  Elec       q    Type
REMARK                         _______ _______ _______ _____ _____    ______ ____
ROOT
ATOM      1  S   UNL     1       6.325  -0.409  -1.687  0.00  0.00    +0.062 S 
ATOM      2  O   UNL     1       4.991  -0.001  -1.422  0.00  0.00    -0.153 OA
ATOM      3  O   UNL     1       6.882  -0.394  -2.994  0.00  0.00    -0.153 OA
ENDROOT
BRANCH   1   8
ATOM      4  C   UNL     1       6.155  -3.690   0.657  0.00  0.00    +0.164 A 
ATOM      5  C   UNL     1       6.695  -4.672  -0.150  0.00  0.00    +0.057 A 
ATOM      6  C   UNL     1       7.129  -4.351  -1.442  0.00  0.00    -0.019 A 
ATOM      7  C   UNL     1       7.007  -3.038  -1.911  0.00  0.00    +0.040 A 
ATOM      8  C   UNL     1       6.472  -2.063  -1.097  0.00  0.00    +0.151 A 
ATOM      9  C   UNL     1       6.042  -2.383   0.184  0.00  0.00    +0.188 A 
BRANCH   4  11
ATOM     10  C   UNL     1       5.879  -5.356   2.331  0.00  0.00    +0.277 C 
ATOM     11  O   UNL     1       5.733  -3.997   1.912  0.00  0.00    -0.491 OA
ENDBRANCH   4  11
BRANCH   9  12
ATOM     12  O   UNL     1       5.511  -1.419   0.980  0.00  0.00    -0.490 OA
ATOM     13  C   UNL     1       4.086  -1.314   1.009  0.00  0.00    +0.277 C 
ENDBRANCH   9  12
BRANCH   6  14
ATOM     14  C   UNL     1       7.704  -5.391  -2.305  0.00  0.00    +0.015 C 
ATOM     15  C   UNL     1       7.816  -6.660  -1.853  0.00  0.00    +0.096 C 
BRANCH  15  16
ATOM     16  C   UNL     1       8.371  -7.663  -2.686  0.00  0.00    +0.380 C 
ATOM     17  O   UNL     1       8.747  -7.383  -3.808  0.00  0.00    -0.241 OA
ATOM     18  O   UNL     1       8.482  -8.930  -2.234  0.00  0.00    -0.241 OA
ENDBRANCH  15  16
ENDBRANCH   6  14
ENDBRANCH   1   8
BRANCH   1  19
ATOM     19  N   UNL     1       7.306   0.535  -0.744  0.00  0.00    -0.185 NA
ATOM     20  H   UNL     1       6.919   1.225  -0.182  0.00  0.00    +0.148 HD
BRANCH  19  21
ATOM     21  C   UNL     1       8.756   0.328  -0.757  0.00  0.00    +0.148 C 
BRANCH  21  22
ATOM     22  C   UNL     1       9.439   1.521  -0.141  0.00  0.00    +0.007 A 
ATOM     23  C   UNL     1       9.770   1.741   1.155  0.00  0.00    +0.014 A 
ATOM     24  C   UNL     1      10.401   2.923   1.495  0.00  0.00    +0.036 A 
ATOM     25  C   UNL     1      10.670   3.828   0.522  0.00  0.00    +0.142 A 
ATOM     26  S   UNL     1      10.024   3.013  -0.929  0.00  0.00    -0.072 S 
BRANCH  25  27
ATOM     27  S   UNL     1      11.448   5.403   0.656  0.00  0.00    +0.062 S 
ATOM     28  O   UNL     1      11.009   6.169  -0.457  0.00  0.00    -0.153 OA
ATOM     29  O   UNL     1      11.264   5.834   1.998  0.00  0.00    -0.153 OA
BRANCH  27  30
ATOM     30  N   UNL     1      13.074   5.164   0.455  0.00  0.00    -0.203 NA
ATOM     31  H   UNL     1      13.418   4.271   0.297  0.00  0.00    +0.144 HD
ATOM     32  H   UNL     1      13.684   5.918   0.494  0.00  0.00    +0.144 HD
ENDBRANCH  27  30
ENDBRANCH  25  27
ENDBRANCH  21  22
ENDBRANCH  19  21
ENDBRANCH   1  19
TORSDOF 10
