REMARK  Name = ZINC39029562
REMARK  11 active torsions:
REMARK  status: ('A' for Active; 'I' for Inactive)
REMARK    1  A    between atoms: C_1  and  C_2
REMARK    2  A    between atoms: C_4  and  C_35
REMARK    3  A    between atoms: C_5  and  O_34
REMARK    4  A    between atoms: C_6  and  C_8
REMARK    5  A    between atoms: C_11  and  C_13
REMARK    6  A    between atoms: N_15  and  C_16
REMARK    7  A    between atoms: C_18  and  C_27
REMARK    8  A    between atoms: N_29  and  C_30
REMARK    9  A    between atoms: C_30  and  C_31
REMARK   10  A    between atoms: C_31  and  O_32
REMARK   11  A    between atoms: O_32  and  C_33
REMARK                            x       y       z     vdW  Elec       q    Type
REMARK                         _______ _______ _______ _____ _____    ______ ____
ROOT
ATOM      1  C   UNL     1      -0.324  -3.900   5.828  0.00  0.00    +0.261 C 
ATOM      2  O   UNL     1      -0.198  -2.841   6.414  0.00  0.00    -0.269 OA
ATOM      3  N   UNL     1      -0.230  -5.061   6.506  0.00  0.00    -0.297 N 
ATOM      4  H   UNL     1      -0.331  -5.905   6.040  0.00  0.00    +0.150 HD
ENDROOT
BRANCH   3   5
ATOM      5  C   UNL     1       0.025  -5.048   7.949  0.00  0.00    +0.152 C 
ATOM      6  C   UNL     1      -0.974  -5.952   8.711  0.00  0.00    +0.132 C 
ATOM      7  C   UNL     1      -1.380  -5.343  10.030  0.00  0.00    -0.046 C 
ATOM      8  C   UNL     1      -1.180  -4.041  10.194  0.00  0.00    -0.013 C 
ATOM      9  S   UNL     1      -0.430  -3.429   8.701  0.00  0.00    -0.106 S 
ATOM     10  C   UNL     1      -1.515  -3.221  11.408  0.00  0.00    +0.042 C 
ATOM     11  C   UNL     1      -2.459  -4.030  12.306  0.00  0.00    +0.005 C 
ATOM     12  C   UNL     1      -1.886  -5.442  12.466  0.00  0.00    +0.005 C 
ATOM     13  C   UNL     1      -2.000  -6.191  11.139  0.00  0.00    +0.032 C 
BRANCH   6  14
ATOM     14  C   UNL     1      -0.330  -7.290   8.966  0.00  0.00    +0.223 C 
ATOM     15  O   UNL     1       0.855  -7.355   9.216  0.00  0.00    -0.275 OA
ATOM     16  N   UNL     1      -1.071  -8.415   8.917  0.00  0.00    -0.313 N 
ATOM     17  H   UNL     1      -2.019  -8.363   8.717  0.00  0.00    +0.149 HD
BRANCH  16  18
ATOM     18  C   UNL     1      -0.445  -9.716   9.165  0.00  0.00    +0.132 C 
BRANCH  18  19
ATOM     19  C   UNL     1      -1.499 -10.819   9.049  0.00  0.00    +0.178 C 
BRANCH  19  20
ATOM     20  O   UNL     1      -1.978 -10.881   7.705  0.00  0.00    -0.381 OA
ATOM     21  C   UNL     1      -2.972 -11.884   7.487  0.00  0.00    +0.194 C 
ENDBRANCH  19  20
ENDBRANCH  18  19
ENDBRANCH  16  18
ENDBRANCH   6  14
ENDBRANCH   3   5
BRANCH   1  25
ATOM     22  C   UNL     1      -0.968  -3.393   2.121  0.00  0.00    +0.080 C 
ATOM     23  N   UNL     1      -0.950  -4.680   2.387  0.00  0.00    -0.153 NA
ATOM     24  N   UNL     1      -0.739  -4.957   3.614  0.00  0.00    -0.148 NA
ATOM     25  C   UNL     1      -0.580  -3.913   4.385  0.00  0.00    +0.131 C 
ATOM     26  C   UNL     1      -0.710  -2.716   3.457  0.00  0.00    +0.120 C 
BRANCH  22  32
ATOM     27  C   UNL     1      -1.348   0.741  -0.630  0.00  0.00    +0.044 C 
ATOM     28  C   UNL     1      -1.368  -0.761  -0.513  0.00  0.00    -0.049 A 
ATOM     29  C   UNL     1      -1.591  -1.538  -1.640  0.00  0.00    +0.010 A 
ATOM     30  C   UNL     1      -1.612  -2.916  -1.548  0.00  0.00    -0.008 A 
ATOM     31  C   UNL     1      -1.410  -3.535  -0.325  0.00  0.00    +0.129 A 
ATOM     32  C   UNL     1      -1.183  -2.753   0.822  0.00  0.00    +0.040 A 
ATOM     33  C   UNL     1      -1.159  -1.355   0.711  0.00  0.00    +0.016 A 
ATOM     34  C   UNL     1      -1.855  -3.748  -2.781  0.00  0.00    +0.047 C 
BRANCH  31  35
ATOM     35  O   UNL     1      -1.431  -4.888  -0.234  0.00  0.00    -0.506 OA
ATOM     36  H   UNL     1      -0.568  -5.305  -0.363  0.00  0.00    +0.292 HD
ENDBRANCH  31  35
ENDBRANCH  22  32
ENDBRANCH   1  25
TORSDOF 8
