REMARK  Name = ZINC15134537
REMARK  4 active torsions:
REMARK  status: ('A' for Active; 'I' for Inactive)
REMARK    1  A    between atoms: C_2  and  C_16
REMARK    2  A    between atoms: C_5  and  C_7
REMARK    3  A    between atoms: N_8  and  C_9
REMARK    4  A    between atoms: N_17  and  C_18
REMARK                            x       y       z     vdW  Elec       q    Type
REMARK                         _______ _______ _______ _____ _____    ______ ____
ROOT
ATOM      1  C   UNL     1      -0.016   1.361   0.009  0.00  0.00    +0.010 A 
ATOM      2  C   UNL     1       1.186   2.078   0.002  0.00  0.00    -0.007 A 
ATOM      3  C   UNL     1       2.408   1.394  -0.013  0.00  0.00    +0.010 A 
ATOM      4  C   UNL     1       2.426   0.029  -0.020  0.00  0.00    +0.010 A 
ATOM      5  C   UNL     1       1.224  -0.687  -0.012  0.00  0.00    -0.007 A 
ATOM      6  C   UNL     1       0.002  -0.004   0.002  0.00  0.00    +0.010 A 
ENDROOT
BRANCH   5   7
ATOM      7  C   UNL     1       1.244  -2.159  -0.020  0.00  0.00    +0.121 C 
ATOM      8  N   UNL     1       0.123  -2.826  -0.012  0.00  0.00    -0.236 NA
BRANCH   8   9
ATOM      9  C   UNL     1       0.142  -4.192  -0.020  0.00  0.00    +0.153 A 
ATOM     10  N   UNL     1       1.305  -4.836  -0.031  0.00  0.00    -0.235 NA
ATOM     11  C   UNL     1       1.365  -6.152  -0.038  0.00  0.00    +0.128 A 
ATOM     12  C   UNL     1       0.211  -6.916  -0.035  0.00  0.00    +0.036 A 
ATOM     13  C   UNL     1      -1.026  -6.284  -0.025  0.00  0.00    +0.020 A 
ATOM     14  C   UNL     1      -1.062  -4.902  -0.012  0.00  0.00    +0.049 A 
ATOM     15 BR   UNL     1       0.318  -8.804  -0.047  0.00  0.00    -0.049 Br
ENDBRANCH   8   9
ENDBRANCH   5   7
BRANCH   2  16
ATOM     16  C   UNL     1       1.166   3.549   0.009  0.00  0.00    +0.121 C 
ATOM     17  N   UNL     1       2.286   4.216   0.002  0.00  0.00    -0.236 NA
BRANCH  17  18
ATOM     18  C   UNL     1       2.268   5.582   0.009  0.00  0.00    +0.153 A 
ATOM     19  N   UNL     1       1.105   6.226   0.029  0.00  0.00    -0.235 NA
ATOM     20  C   UNL     1       1.045   7.542   0.037  0.00  0.00    +0.128 A 
ATOM     21  C   UNL     1       2.199   8.306   0.025  0.00  0.00    +0.036 A 
ATOM     22  C   UNL     1       3.436   7.675   0.004  0.00  0.00    +0.020 A 
ATOM     23  C   UNL     1       3.471   6.292   0.002  0.00  0.00    +0.049 A 
ATOM     24 BR   UNL     1       2.092  10.194   0.035  0.00  0.00    -0.049 Br
ENDBRANCH  17  18
ENDBRANCH   2  16
TORSDOF 4
