REMARK  Name = ZINC15806932
REMARK  6 active torsions:
REMARK  status: ('A' for Active; 'I' for Inactive)
REMARK    1  A    between atoms: C_1  and  C_2
REMARK    2  A    between atoms: C_2  and  C_4
REMARK    3  A    between atoms: C_2  and  S_19
REMARK    4  A    between atoms: N_6  and  C_7
REMARK    5  A    between atoms: S_19  and  C_20
REMARK    6  A    between atoms: N_24  and  C_25
REMARK                            x       y       z     vdW  Elec       q    Type
REMARK                         _______ _______ _______ _____ _____    ______ ____
ROOT
ATOM      1  C   UNL     1       3.564   3.478  -0.113  0.00  0.00    +0.230 C 
ATOM      2  O   UNL     1       2.505   4.069  -0.100  0.00  0.00    -0.274 OA
ATOM      3  N   UNL     1       3.586   2.134  -0.019  0.00  0.00    -0.285 N 
ATOM      4  H   UNL     1       4.433   1.665   0.037  0.00  0.00    +0.155 HD
ENDROOT
BRANCH   3   5
ATOM      5  C   UNL     1       2.385   1.413  -0.004  0.00  0.00    +0.035 A 
ATOM      6  C   UNL     1       2.317   0.165  -0.614  0.00  0.00    +0.025 A 
ATOM      7  C   UNL     1       1.136  -0.550  -0.602  0.00  0.00    +0.029 A 
ATOM      8  C   UNL     1       0.014  -0.024   0.019  0.00  0.00    +0.067 A 
ATOM      9  C   UNL     1       0.079   1.229   0.633  0.00  0.00    +0.069 A 
ATOM     10  C   UNL     1       1.266   1.945   0.620  0.00  0.00    +0.051 A 
ATOM     11  N   UNL     1      -1.184   1.485   1.162  0.00  0.00    -0.306 N 
ATOM     12  H   UNL     1      -1.444   2.282   1.649  0.00  0.00    +0.170 HD
ATOM     13  C   UNL     1      -1.981   0.437   0.884  0.00  0.00    +0.325 A 
ATOM     14  O   UNL     1      -3.151   0.341   1.206  0.00  0.00    -0.247 OA
ATOM     15  N   UNL     1      -1.289  -0.490   0.195  0.00  0.00    -0.306 N 
ATOM     16  H   UNL     1      -1.636  -1.337  -0.124  0.00  0.00    +0.170 HD
ENDBRANCH   3   5
BRANCH   1  18
ATOM     17  C   UNL     1       5.282   4.297  -1.703  0.00  0.00    +0.029 C 
ATOM     18  C   UNL     1       4.854   4.246  -0.235  0.00  0.00    +0.137 C 
BRANCH  18  19
ATOM     19  S   UNL     1       4.614   5.931   0.383  0.00  0.00    -0.073 S 
BRANCH  19  20
ATOM     20  C   UNL     1       6.265   6.536   0.270  0.00  0.00    +0.197 A 
ATOM     21  N   UNL     1       7.314   5.871  -0.158  0.00  0.00    -0.122 NA
ATOM     22  N   UNL     1       8.357   6.619  -0.106  0.00  0.00    -0.137 NA
ATOM     23  C   UNL     1       8.044   7.796   0.354  0.00  0.00    +0.230 A 
ATOM     24  N   UNL     1       6.697   7.790   0.606  0.00  0.00    -0.277 N 
BRANCH  24  25
ATOM     25  C   UNL     1       5.923   8.847   1.106  0.00  0.00    +0.050 A 
ATOM     26  C   UNL     1       4.749   9.214   0.463  0.00  0.00    +0.026 A 
ATOM     27  C   UNL     1       3.986  10.252   0.961  0.00  0.00    +0.002 A 
ATOM     28  C   UNL     1       4.396  10.932   2.093  0.00  0.00    +0.000 A 
ATOM     29  C   UNL     1       5.568  10.572   2.733  0.00  0.00    +0.002 A 
ATOM     30  C   UNL     1       6.332   9.531   2.242  0.00  0.00    +0.026 A 
ENDBRANCH  24  25
ENDBRANCH  19  20
ENDBRANCH  18  19
ENDBRANCH   1  18
TORSDOF 5
