REMARK  Name = ZINC35791800
REMARK  11 active torsions:
REMARK  status: ('A' for Active; 'I' for Inactive)
REMARK    1  A    between atoms: C_1  and  O_2
REMARK    2  A    between atoms: O_2  and  C_3
REMARK    3  A    between atoms: C_6  and  C_13
REMARK    4  A    between atoms: C_7  and  O_11
REMARK    5  A    between atoms: C_8  and  O_9
REMARK    6  A    between atoms: O_9  and  C_10
REMARK    7  A    between atoms: O_11  and  C_12
REMARK    8  A    between atoms: N_23  and  C_24
REMARK    9  A    between atoms: C_24  and  C_25
REMARK   10  A    between atoms: C_29  and  O_31
REMARK   11  A    between atoms: O_31  and  C_32
REMARK                            x       y       z     vdW  Elec       q    Type
REMARK                         _______ _______ _______ _____ _____    ______ ____
ROOT
ATOM      1  C   UNL     1       2.837  -2.687   4.483  0.00  0.00    +0.014 C 
ATOM      2  C   UNL     1       4.232  -3.117   4.100  0.00  0.00    +0.010 A 
ATOM      3  C   UNL     1       4.610  -3.626   2.911  0.00  0.00    +0.021 A 
ATOM      4  C   UNL     1       5.990  -3.902   2.989  0.00  0.00    +0.019 A 
ATOM      5  C   UNL     1       6.404  -3.546   4.223  0.00  0.00    +0.086 A 
ATOM      6  N   UNL     1       5.333  -3.056   4.906  0.00  0.00    -0.352 N 
ATOM      7  C   UNL     1       5.340  -2.531   6.277  0.00  0.00    +0.119 C 
ATOM      8  C   UNL     1       4.150  -3.119   7.041  0.00  0.00    +0.003 C 
ATOM      9  C   UNL     1       2.924  -2.236   6.843  0.00  0.00    -0.075 C 
ATOM     10  N   UNL     1       2.916  -1.637   5.507  0.00  0.00    +0.391 N 
ATOM     11  H   UNL     1       3.763  -1.104   5.375  0.00  0.00    -0.080 HD
ENDROOT
BRANCH   1  15
ATOM     12  C   UNL     1       0.814  -1.167   1.032  0.00  0.00    +0.165 A 
ATOM     13  C   UNL     1       1.923  -0.506   1.539  0.00  0.00    +0.050 A 
ATOM     14  C   UNL     1       2.574  -1.000   2.654  0.00  0.00    +0.010 A 
ATOM     15  C   UNL     1       2.123  -2.153   3.268  0.00  0.00    -0.010 A 
ATOM     16  C   UNL     1       1.015  -2.820   2.768  0.00  0.00    +0.167 A 
ATOM     17  C   UNL     1       0.354  -2.323   1.651  0.00  0.00    +0.204 A 
BRANCH  12  19
ATOM     18  C   UNL     1       0.703   0.512  -0.649  0.00  0.00    +0.277 C 
ATOM     19  O   UNL     1       0.175  -0.681  -0.065  0.00  0.00    -0.491 OA
ENDBRANCH  12  19
BRANCH  17  20
ATOM     20  O   UNL     1      -0.737  -2.971   1.159  0.00  0.00    -0.488 OA
ATOM     21  C   UNL     1      -0.504  -3.981   0.175  0.00  0.00    +0.277 C 
ENDBRANCH  17  20
BRANCH  16  22
ATOM     22  O   UNL     1       0.573  -3.955   3.372  0.00  0.00    -0.491 OA
ATOM     23  C   UNL     1      -0.396  -3.801   4.412  0.00  0.00    +0.277 C 
ENDBRANCH  16  22
ENDBRANCH   1  15
BRANCH  10  24
ATOM     24  C   UNL     1       1.757  -0.744   5.380  0.00  0.00    -0.042 C 
BRANCH  24  25
ATOM     25  C   UNL     1       1.879   0.384   6.373  0.00  0.00    -0.060 A 
ATOM     26  C   UNL     1       1.350   0.246   7.643  0.00  0.00    +0.002 A 
ATOM     27  C   UNL     1       1.461   1.278   8.556  0.00  0.00    +0.004 A 
ATOM     28  C   UNL     1       2.102   2.450   8.201  0.00  0.00    +0.046 A 
ATOM     29  C   UNL     1       2.634   2.590   6.928  0.00  0.00    +0.129 A 
ATOM     30  C   UNL     1       2.526   1.551   6.015  0.00  0.00    +0.048 A 
BRANCH  29  31
ATOM     31  O   UNL     1       3.264   3.742   6.576  0.00  0.00    -0.456 OA
BRANCH  31  32
ATOM     32  C   UNL     1       2.581   4.636   5.814  0.00  0.00    +0.128 A 
ATOM     33  C   UNL     1       1.306   4.330   5.359  0.00  0.00    +0.046 A 
ATOM     34  C   UNL     1       0.614   5.241   4.584  0.00  0.00    +0.004 A 
ATOM     35  C   UNL     1       1.191   6.456   4.262  0.00  0.00    +0.000 A 
ATOM     36  C   UNL     1       2.461   6.763   4.714  0.00  0.00    +0.004 A 
ATOM     37  C   UNL     1       3.155   5.858   5.495  0.00  0.00    +0.046 A 
ENDBRANCH  31  32
ENDBRANCH  29  31
ENDBRANCH  24  25
ENDBRANCH  10  24
TORSDOF 8
