REMARK  Name = ZINC12497125
REMARK  6 active torsions:
REMARK  status: ('A' for Active; 'I' for Inactive)
REMARK    1  A    between atoms: C_1  and  O_2
REMARK    2  A    between atoms: O_2  and  C_3
REMARK    3  A    between atoms: C_3  and  C_5
REMARK    4  A    between atoms: C_5  and  C_30
REMARK    5  A    between atoms: C_10  and  C_12
REMARK    6  A    between atoms: N_21  and  C_24
REMARK                            x       y       z     vdW  Elec       q    Type
REMARK                         _______ _______ _______ _____ _____    ______ ____
ROOT
ATOM      1  C   UNL     1       1.983   6.183  -0.785  0.00  0.00    +0.070 C 
ATOM      2  C   UNL     1       1.905   5.192  -1.889  0.00  0.00    +0.090 C 
ATOM      3  C   UNL     1       2.961   4.119  -1.410  0.00  0.00    +0.078 C 
ATOM      4  C   UNL     1       2.450   3.942   0.000  0.00  0.00    -0.023 C 
ATOM      5  C   UNL     1       2.793   3.167  -2.531  0.00  0.00    +0.229 C 
ATOM      6  O   UNL     1       2.844   1.957  -2.481  0.00  0.00    -0.275 OA
ATOM      7  N   UNL     1       2.567   3.945  -3.636  0.00  0.00    -0.210 N 
ATOM      8  C   UNL     1       2.233   5.236  -3.311  0.00  0.00    +0.229 C 
ATOM      9  O   UNL     1       2.215   6.201  -4.045  0.00  0.00    -0.275 OA
ATOM     10  N   UNL     1       2.228   5.355   0.430  0.00  0.00    +0.398 N 
ATOM     11  H   UNL     1       1.413   5.404   1.053  0.00  0.00    -0.083 HD
ATOM     12  H   UNL     1       3.058   5.702   0.925  0.00  0.00    -0.083 HD
ENDROOT
BRANCH   4  13
ATOM     13  C   UNL     1       1.157   3.169   0.008  0.00  0.00    -0.025 A 
ATOM     14  C   UNL     1      -0.051   3.842   0.023  0.00  0.00    +0.005 A 
ATOM     15  C   UNL     1      -1.237   3.133   0.030  0.00  0.00    +0.000 A 
ATOM     16  C   UNL     1      -1.218   1.751   0.017  0.00  0.00    +0.003 A 
ATOM     17  C   UNL     1      -0.013   1.076   0.008  0.00  0.00    +0.038 A 
ATOM     18  C   UNL     1       1.177   1.785   0.000  0.00  0.00    +0.125 A 
ATOM     19  F   UNL     1       2.356   1.126  -0.014  0.00  0.00    -0.205 F 
ENDBRANCH   4  13
BRANCH   7  20
ATOM     20  C   UNL     1       2.667   3.475  -4.952  0.00  0.00    +0.044 A 
ATOM     21  C   UNL     1       2.417   4.329  -6.017  0.00  0.00    +0.024 A 
ATOM     22  C   UNL     1       2.521   3.864  -7.314  0.00  0.00    +0.002 A 
ATOM     23  C   UNL     1       2.865   2.546  -7.551  0.00  0.00    +0.000 A 
ATOM     24  C   UNL     1       3.109   1.691  -6.492  0.00  0.00    +0.002 A 
ATOM     25  C   UNL     1       3.012   2.152  -5.194  0.00  0.00    +0.024 A 
ENDBRANCH   7  20
BRANCH   1  26
ATOM     26  C   UNL     1       0.684   6.937  -0.663  0.00  0.00    -0.047 A 
ATOM     27  C   UNL     1      -0.097   7.154  -1.783  0.00  0.00    +0.003 A 
ATOM     28  C   UNL     1      -1.291   7.842  -1.670  0.00  0.00    +0.000 A 
ATOM     29  C   UNL     1      -1.699   8.321  -0.439  0.00  0.00    +0.000 A 
ATOM     30  C   UNL     1      -0.916   8.107   0.680  0.00  0.00    +0.000 A 
ATOM     31  C   UNL     1       0.276   7.416   0.568  0.00  0.00    +0.003 A 
ENDBRANCH   1  26
BRANCH   1  32
ATOM     32  C   UNL     1       3.126   7.138  -1.016  0.00  0.00    +0.301 C 
ATOM     33  O   UNL     1       3.529   7.338  -2.137  0.00  0.00    -0.252 OA
BRANCH  32  35
ATOM     34  C   UNL     1       4.793   8.669  -0.271  0.00  0.00    +0.280 C 
ATOM     35  O   UNL     1       3.697   7.764   0.025  0.00  0.00    -0.469 OA
ENDBRANCH  32  35
ENDBRANCH   1  32
TORSDOF 5
