REMARK  Name = ZINC18531451
REMARK  12 active torsions:
REMARK  status: ('A' for Active; 'I' for Inactive)
REMARK    1  A    between atoms: C_1  and  C_2
REMARK    2  A    between atoms: N_11  and  S_12
REMARK    3  A    between atoms: S_12  and  C_15
REMARK    4  A    between atoms: C_19  and  C_21
REMARK    5  A    between atoms: C_21  and  O_23
REMARK    6  A    between atoms: O_23  and  C_24
REMARK    7  A    between atoms: C_24  and  C_26
REMARK    8  A    between atoms: C_24  and  C_27
REMARK    9  A    between atoms: N_32  and  C_33
REMARK   10  A    between atoms: C_33  and  C_34
REMARK   11  A    between atoms: C_33  and  C_35
REMARK   12  A    between atoms: C_33  and  C_36
REMARK                            x       y       z     vdW  Elec       q    Type
REMARK                         _______ _______ _______ _____ _____    ______ ____
ROOT
ATOM      1  C   UNL     1       5.596  -6.063  -1.761  0.00  0.00    +0.110 A 
ATOM      2  C   UNL     1       6.681  -5.351  -1.280  0.00  0.00    +0.029 A 
ATOM      3  C   UNL     1       6.492  -4.141  -0.637  0.00  0.00    +0.003 A 
ATOM      4  C   UNL     1       5.220  -3.635  -0.472  0.00  0.00    +0.015 A 
ATOM      5  C   UNL     1       4.120  -4.347  -0.956  0.00  0.00    +0.061 A 
ATOM      6  C   UNL     1       4.318  -5.571  -1.599  0.00  0.00    +0.043 A 
ENDROOT
BRANCH   1   7
ATOM      7  S   UNL     1       5.847  -7.604  -2.577  0.00  0.00    +0.075 S 
ATOM      8  O   UNL     1       4.718  -7.809  -3.416  0.00  0.00    -0.150 OA
ATOM      9  O   UNL     1       7.176  -7.586  -3.080  0.00  0.00    -0.150 OA
BRANCH   7  19
ATOM     10  C   UNL     1       7.593  -8.147   0.133  0.00  0.00    +0.030 C 
ATOM     11  C   UNL     1       6.956  -9.281  -0.673  0.00  0.00    +0.099 C 
ATOM     12  C   UNL     1       6.398 -10.356   0.274  0.00  0.00    +0.061 C 
ATOM     13  C   UNL     1       4.916 -10.393  -0.026  0.00  0.00    -0.023 A 
ATOM     14  C   UNL     1       3.902 -11.165   0.509  0.00  0.00    +0.005 A 
ATOM     15  C   UNL     1       2.603 -11.011   0.062  0.00  0.00    +0.000 A 
ATOM     16  C   UNL     1       2.320 -10.083  -0.923  0.00  0.00    +0.002 A 
ATOM     17  C   UNL     1       3.328  -9.310  -1.459  0.00  0.00    +0.025 A 
ATOM     18  C   UNL     1       4.643  -9.459  -1.013  0.00  0.00    +0.055 A 
ATOM     19  N   UNL     1       5.796  -8.786  -1.418  0.00  0.00    -0.200 N 
ENDBRANCH   7  19
ENDBRANCH   1   7
BRANCH   5  20
ATOM     20  C   UNL     1       2.755  -3.812  -0.782  0.00  0.00    +0.340 C 
ATOM     21  O   UNL     1       1.800  -4.434  -1.204  0.00  0.00    -0.245 OA
BRANCH  20  22
ATOM     22  O   UNL     1       2.568  -2.634  -0.156  0.00  0.00    -0.449 OA
BRANCH  22  23
ATOM     23  C   UNL     1       1.199  -2.169  -0.021  0.00  0.00    +0.259 C 
ATOM     24  C   UNL     1       0.609  -2.694   1.289  0.00  0.00    +0.062 C 
BRANCH  23  25
ATOM     25  C   UNL     1       1.178  -0.662  -0.013  0.00  0.00    +0.261 C 
ATOM     26  O   UNL     1       2.220  -0.042  -0.019  0.00  0.00    -0.271 OA
ATOM     27  N   UNL     1       0.002  -0.004   0.002  0.00  0.00    -0.237 N 
ATOM     28  C   UNL     1      -0.016   1.344   0.009  0.00  0.00    +0.306 C 
ATOM     29  O   UNL     1       1.028   1.966   0.003  0.00  0.00    -0.252 OA
ATOM     30  N   UNL     1      -1.192   2.002   0.019  0.00  0.00    -0.294 N 
ATOM     31  H   UNL     1      -0.831  -0.500   0.007  0.00  0.00    +0.159 HD
ATOM     32  H   UNL     1      -2.026   1.505   0.020  0.00  0.00    +0.151 HD
BRANCH  30  33
ATOM     33  C   UNL     1      -1.212   3.466   0.027  0.00  0.00    +0.028 C 
ATOM     34  C   UNL     1      -0.504   3.993  -1.223  0.00  0.00    +0.031 C 
ATOM     35  C   UNL     1      -2.662   3.957   0.036  0.00  0.00    +0.031 C 
ATOM     36  C   UNL     1      -0.492   3.979   1.275  0.00  0.00    +0.031 C 
ENDBRANCH  30  33
ENDBRANCH  23  25
ENDBRANCH  22  23
ENDBRANCH  20  22
ENDBRANCH   5  20
TORSDOF 7
