REMARK  Name = ZINC39966991
REMARK  8 active torsions:
REMARK  status: ('A' for Active; 'I' for Inactive)
REMARK    1  A    between atoms: C_4  and  N_9
REMARK    2  A    between atoms: C_5  and  C_6
REMARK    3  A    between atoms: C_10  and  C_12
REMARK    4  A    between atoms: C_12  and  S_13
REMARK    5  A    between atoms: S_13  and  C_14
REMARK    6  A    between atoms: C_17  and  C_26
REMARK    7  A    between atoms: N_18  and  C_19
REMARK    8  A    between atoms: C_19  and  C_20
REMARK                            x       y       z     vdW  Elec       q    Type
REMARK                         _______ _______ _______ _____ _____    ______ ____
ROOT
ATOM      1  C   UNL     1       5.279  -5.840   0.112  0.00  0.00    +0.192 A 
ATOM      2  N   UNL     1       4.226  -6.623   0.061  0.00  0.00    -0.122 NA
ATOM      3  N   UNL     1       4.585  -7.832  -0.181  0.00  0.00    -0.128 NA
ATOM      4  C   UNL     1       5.891  -7.897  -0.300  0.00  0.00    +0.166 A 
ATOM      5  N   UNL     1       6.376  -6.622  -0.122  0.00  0.00    -0.300 N 
ENDROOT
BRANCH   4   6
ATOM      6  C   UNL     1       6.689  -9.110  -0.579  0.00  0.00    +0.030 A 
ATOM      7  C   UNL     1       7.646  -9.092  -1.552  0.00  0.00    +0.057 A 
ATOM      8  S   UNL     1       8.283 -10.758  -1.469  0.00  0.00    -0.101 S 
ATOM      9  C   UNL     1       7.247 -11.352  -0.156  0.00  0.00    -0.006 A 
ATOM     10  C   UNL     1       6.469 -10.289   0.162  0.00  0.00    -0.026 A 
ATOM     11  C   UNL     1       5.400 -10.364   1.248  0.00  0.00    +0.036 C 
ATOM     12  C   UNL     1       5.773 -11.428   2.273  0.00  0.00    +0.005 C 
ATOM     13  C   UNL     1       5.209 -12.789   1.868  0.00  0.00    +0.001 C 
ATOM     14  C   UNL     1       5.818 -13.236   0.543  0.00  0.00    +0.005 C 
ATOM     15  C   UNL     1       7.250 -12.712   0.463  0.00  0.00    +0.043 C 
ENDBRANCH   4   6
BRANCH   1  16
ATOM     16  S   UNL     1       5.277  -4.105   0.418  0.00  0.00    -0.077 S 
BRANCH  16  17
ATOM     17  C   UNL     1       3.524  -3.700   0.643  0.00  0.00    +0.173 C 
BRANCH  17  19
ATOM     18  N   UNL     1       2.158  -1.693   1.116  0.00  0.00    -0.279 N 
ATOM     19  C   UNL     1       3.380  -2.225   0.915  0.00  0.00    +0.228 C 
ATOM     20  O   UNL     1       4.363  -1.516   0.954  0.00  0.00    -0.275 OA
ATOM     21  H   UNL     1       1.371  -2.260   1.085  0.00  0.00    +0.155 HD
BRANCH  18  25
ATOM     22  C   UNL     1       1.006   1.797   1.832  0.00  0.00    +0.022 A 
ATOM     23  C   UNL     1       2.266   2.269   1.804  0.00  0.00    +0.048 A 
ATOM     24  S   UNL     1       3.239   0.819   1.463  0.00  0.00    -0.081 S 
ATOM     25  C   UNL     1       2.025  -0.336   1.367  0.00  0.00    +0.084 A 
ATOM     26  C   UNL     1       0.859   0.380   1.596  0.00  0.00    +0.065 A 
BRANCH  26  27
ATOM     27  C   UNL     1      -0.456  -0.270   1.597  0.00  0.00    +0.244 C 
ATOM     28  O   UNL     1      -0.544  -1.467   1.395  0.00  0.00    -0.270 OA
ATOM     29  N   UNL     1      -1.567   0.458   1.823  0.00  0.00    -0.325 N 
ATOM     30  H   UNL     1      -1.497   1.412   1.984  0.00  0.00    +0.145 HD
ATOM     31  H   UNL     1      -2.437   0.029   1.824  0.00  0.00    +0.145 HD
ENDBRANCH  26  27
ENDBRANCH  18  25
ENDBRANCH  17  19
ENDBRANCH  16  17
ENDBRANCH   1  16
BRANCH   5  32
ATOM     32  C   UNL     1       7.776  -6.193  -0.169  0.00  0.00    +0.157 C 
BRANCH  32  33
ATOM     33  C   UNL     1       8.349  -6.167   1.250  0.00  0.00    +0.138 C 
ATOM     34  C   UNL     1       9.785  -5.601   1.224  0.00  0.00    +0.035 C 
ATOM     35  C   UNL     1      10.513  -6.499   2.261  0.00  0.00    +0.031 C 
ATOM     36  C   UNL     1       9.786  -7.849   2.042  0.00  0.00    +0.160 C 
ATOM     37  O   UNL     1       8.417  -7.500   1.770  0.00  0.00    -0.375 OA
ENDBRANCH  32  33
ENDBRANCH   5  32
TORSDOF 8
