REMARK  Name = ZINC12702988
REMARK  10 active torsions:
REMARK  status: ('A' for Active; 'I' for Inactive)
REMARK    1  A    between atoms: C_1  and  C_2
REMARK    2  A    between atoms: C_5  and  C_8
REMARK    3  A    between atoms: N_11  and  C_13
REMARK    4  A    between atoms: C_13  and  C_14
REMARK    5  A    between atoms: N_16  and  C_17
REMARK    6  A    between atoms: N_16  and  C_24
REMARK    7  A    between atoms: C_24  and  C_26
REMARK    8  A    between atoms: C_24  and  C_33
REMARK    9  A    between atoms: C_29  and  O_32
REMARK   10  A    between atoms: N_35  and  C_36
REMARK                            x       y       z     vdW  Elec       q    Type
REMARK                         _______ _______ _______ _____ _____    ______ ____
ROOT
ATOM      1  C   UNL     1      -2.104  -0.045  -0.416  0.00  0.00    +0.244 C 
ATOM      2  O   UNL     1      -1.494  -1.085  -0.547  0.00  0.00    -0.273 OA
ATOM      3  N   UNL     1      -1.443   1.090  -0.116  0.00  0.00    -0.251 N 
ENDROOT
BRANCH   3   4
ATOM      4  C   UNL     1      -2.147   2.291   0.036  0.00  0.00    +0.073 A 
ATOM      5  C   UNL     1      -2.303   3.147  -1.045  0.00  0.00    +0.026 A 
ATOM      6  C   UNL     1      -2.999   4.331  -0.893  0.00  0.00    +0.002 A 
ATOM      7  C   UNL     1      -3.539   4.665   0.336  0.00  0.00    +0.003 A 
ATOM      8  C   UNL     1      -3.386   3.815   1.416  0.00  0.00    +0.040 A 
ATOM      9  C   UNL     1      -2.695   2.626   1.269  0.00  0.00    +0.145 A 
ATOM     10  F   UNL     1      -2.550   1.794   2.323  0.00  0.00    -0.204 F 
ENDBRANCH   3   4
BRANCH   1  11
ATOM     11  C   UNL     1      -3.601  -0.022  -0.588  0.00  0.00    +0.264 C 
BRANCH  11  15
ATOM     12  C   UNL     1      -4.651  -3.089  -1.982  0.00  0.00    +0.205 A 
ATOM     13  N   UNL     1      -4.799  -3.325  -0.671  0.00  0.00    -0.108 NA
ATOM     14  N   UNL     1      -4.439  -2.256  -0.046  0.00  0.00    -0.045 NA
ATOM     15  N   UNL     1      -4.076  -1.371  -0.907  0.00  0.00    -0.154 N 
ATOM     16  N   UNL     1      -4.202  -1.855  -2.095  0.00  0.00    -0.130 NA
BRANCH  12  21
ATOM     17  C   UNL     1      -5.785  -6.744  -6.287  0.00  0.00    +0.044 C 
ATOM     18  C   UNL     1      -5.488  -5.788  -5.161  0.00  0.00    -0.050 A 
ATOM     19  C   UNL     1      -5.692  -6.181  -3.851  0.00  0.00    +0.004 A 
ATOM     20  C   UNL     1      -5.422  -5.309  -2.816  0.00  0.00    +0.012 A 
ATOM     21  C   UNL     1      -4.943  -4.031  -3.092  0.00  0.00    +0.023 A 
ATOM     22  C   UNL     1      -4.745  -3.638  -4.414  0.00  0.00    +0.012 A 
ATOM     23  C   UNL     1      -5.013  -4.519  -5.441  0.00  0.00    +0.004 A 
ENDBRANCH  12  21
ENDBRANCH  11  15
ENDBRANCH   1  11
BRANCH   3  24
ATOM     24  C   UNL     1       0.013   1.068   0.051  0.00  0.00    +0.197 C 
BRANCH  24  25
ATOM     25  C   UNL     1       0.659   0.619  -1.234  0.00  0.00    -0.018 A 
ATOM     26  C   UNL     1       0.343   1.249  -2.423  0.00  0.00    +0.009 A 
ATOM     27  C   UNL     1       0.938   0.843  -3.601  0.00  0.00    +0.046 A 
ATOM     28  C   UNL     1       1.846  -0.206  -3.592  0.00  0.00    +0.117 A 
ATOM     29  C   UNL     1       2.157  -0.841  -2.399  0.00  0.00    +0.046 A 
ATOM     30  C   UNL     1       1.564  -0.427  -1.222  0.00  0.00    +0.009 A 
BRANCH  28  31
ATOM     31  O   UNL     1       2.428  -0.612  -4.752  0.00  0.00    -0.507 OA
ATOM     32  H   UNL     1       1.936  -1.301  -5.218  0.00  0.00    +0.292 HD
ENDBRANCH  28  31
ENDBRANCH  24  25
BRANCH  24  33
ATOM     33  C   UNL     1       0.499   2.450   0.402  0.00  0.00    +0.239 C 
ATOM     34  O   UNL     1       0.045   3.417  -0.173  0.00  0.00    -0.273 OA
ATOM     35  N   UNL     1       1.439   2.613   1.355  0.00  0.00    -0.311 N 
ATOM     36  H   UNL     1       1.802   1.840   1.815  0.00  0.00    +0.149 HD
BRANCH  35  37
ATOM     37  C   UNL     1       1.912   3.957   1.696  0.00  0.00    +0.073 C 
ATOM     38  C   UNL     1       3.086   4.353   0.777  0.00  0.00    +0.022 C 
ATOM     39  C   UNL     1       4.039   5.151   1.701  0.00  0.00    +0.002 C 
ATOM     40  C   UNL     1       3.940   4.381   3.041  0.00  0.00    +0.002 C 
ATOM     41  C   UNL     1       2.454   3.975   3.135  0.00  0.00    +0.022 C 
ENDBRANCH  35  37
ENDBRANCH  24  33
ENDBRANCH   3  24
TORSDOF 9
