REMARK  Name = ZINC67292461
REMARK  4 active torsions:
REMARK  status: ('A' for Active; 'I' for Inactive)
REMARK    1  A    between atoms: C_3  and  N_9
REMARK    2  A    between atoms: C_11  and  C_21
REMARK    3  A    between atoms: N_23  and  C_24
REMARK    4  A    between atoms: C_24  and  C_25
REMARK                            x       y       z     vdW  Elec       q    Type
REMARK                         _______ _______ _______ _____ _____    ______ ____
ROOT
ATOM      1  N   UNL     1       3.567   2.124  -0.067  0.00  0.00    -0.323 N 
ATOM      2  C   UNL     1       3.688   3.200   0.678  0.00  0.00    +0.212 A 
ATOM      3  C   UNL     1       4.980   3.906   0.791  0.00  0.00    +0.097 A 
ATOM      4  C   UNL     1       4.936   5.263   1.083  0.00  0.00    +0.030 A 
ATOM      5  C   UNL     1       3.614   5.872   1.253  0.00  0.00    +0.019 A 
ATOM      6  C   UNL     1       3.466   7.263   1.283  0.00  0.00    +0.026 A 
ATOM      7  C   UNL     1       2.212   7.811   1.441  0.00  0.00    +0.019 A 
ATOM      8  C   UNL     1       1.099   6.990   1.571  0.00  0.00    +0.019 A 
ATOM      9  C   UNL     1       1.231   5.617   1.544  0.00  0.00    +0.048 A 
ATOM     10  C   UNL     1       2.484   5.044   1.388  0.00  0.00    +0.137 A 
ATOM     11  O   UNL     1       2.628   3.699   1.364  0.00  0.00    -0.439 OA
ATOM     12 BR   UNL     1       2.004   9.690   1.483  0.00  0.00    -0.050 Br
ATOM     13  H   UNL     1       4.328   1.793  -0.569  0.00  0.00    +0.169 HD
ENDROOT
BRANCH   1  16
ATOM     14  C   UNL     1      -0.031   1.528  -0.261  0.00  0.00    +0.022 A 
ATOM     15  C   UNL     1       1.176   2.194  -0.193  0.00  0.00    +0.030 A 
ATOM     16  C   UNL     1       2.367   1.469  -0.134  0.00  0.00    +0.078 A 
ATOM     17  C   UNL     1       2.329   0.071  -0.144  0.00  0.00    +0.148 A 
ATOM     18  C   UNL     1       1.114  -0.582  -0.212  0.00  0.00    +0.060 A 
ATOM     19  C   UNL     1      -0.063   0.144  -0.271  0.00  0.00    +0.044 A 
ATOM     20 CL   UNL     1      -1.586  -0.684  -0.355  0.00  0.00    -0.083 Cl
ATOM     21  F   UNL     1       3.477  -0.639  -0.088  0.00  0.00    -0.203 F 
ENDBRANCH   1  16
BRANCH   3  22
ATOM     22  C   UNL     1       6.260   3.203   0.600  0.00  0.00    +0.249 C 
ATOM     23  O   UNL     1       6.267   2.031   0.275  0.00  0.00    -0.270 OA
ATOM     24  N   UNL     1       7.423   3.857   0.786  0.00  0.00    -0.309 N 
ATOM     25  H   UNL     1       7.419   4.766   1.124  0.00  0.00    +0.149 HD
BRANCH  24  26
ATOM     26  C   UNL     1       8.694   3.196   0.478  0.00  0.00    +0.136 C 
BRANCH  26  27
ATOM     27  C   UNL     1       9.851   4.151   0.777  0.00  0.00    +0.135 C 
ATOM     28  C   UNL     1      11.204   3.482   0.424  0.00  0.00    +0.035 C 
ATOM     29  C   UNL     1      12.093   4.731   0.171  0.00  0.00    +0.031 C 
ATOM     30  C   UNL     1      11.090   5.726  -0.450  0.00  0.00    +0.160 C 
ATOM     31  O   UNL     1       9.772   5.310  -0.068  0.00  0.00    -0.375 OA
ENDBRANCH  26  27
ENDBRANCH  24  26
ENDBRANCH   3  22
TORSDOF 4
