REMARK  Name = ZINC44713596
REMARK  11 active torsions:
REMARK  status: ('A' for Active; 'I' for Inactive)
REMARK    1  A    between atoms: C_1  and  C_2
REMARK    2  A    between atoms: C_3  and  C_12
REMARK    3  A    between atoms: C_12  and  C_13
REMARK    4  A    between atoms: C_13  and  N_14
REMARK    5  A    between atoms: C_15  and  C_17
REMARK    6  A    between atoms: C_28  and  C_30
REMARK    7  A    between atoms: C_30  and  C_32
REMARK    8  A    between atoms: C_30  and  O_35
REMARK    9  A    between atoms: C_32  and  C_33
REMARK   10  A    between atoms: C_32  and  C_34
REMARK   11  A    between atoms: O_35  and  C_36
REMARK                            x       y       z     vdW  Elec       q    Type
REMARK                         _______ _______ _______ _____ _____    ______ ____
ROOT
ATOM      1  C   UNL     1       2.720   0.955  -6.093  0.00  0.00    +0.100 C 
ATOM      2  C   UNL     1       1.872   2.231  -6.294  0.00  0.00    +0.121 C 
ATOM      3  N   UNL     1       2.859   3.336  -6.322  0.00  0.00    -0.297 N 
ATOM      4  C   UNL     1       4.005   2.788  -7.086  0.00  0.00    +0.115 C 
ATOM      5  C   UNL     1       4.118   1.323  -6.617  0.00  0.00    -0.004 C 
ATOM      6  C   UNL     1       5.150   1.207  -5.499  0.00  0.00    -0.010 C 
ATOM      7  C   UNL     1       6.540   1.523  -6.058  0.00  0.00    -0.082 C 
ATOM      8  N   UNL     1       6.857   0.587  -7.143  0.00  0.00    +0.379 N 
ATOM      9  C   UNL     1       5.915   0.770  -8.254  0.00  0.00    -0.082 C 
ATOM     10  C   UNL     1       4.499   0.422  -7.787  0.00  0.00    -0.010 C 
ATOM     11  C   UNL     1       2.741   4.562  -5.775  0.00  0.00    +0.257 C 
ATOM     12  O   UNL     1       3.607   5.392  -5.956  0.00  0.00    -0.272 OA
ATOM     13  H   UNL     1       7.796   0.758  -7.469  0.00  0.00    -0.086 HD
ATOM     14  H   UNL     1       6.790  -0.359  -6.799  0.00  0.00    -0.086 HD
ENDROOT
BRANCH   1  16
ATOM     15  N   UNL     1       2.910  -0.696  -4.261  0.00  0.00    -0.315 N 
ATOM     16  C   UNL     1       2.786   0.594  -4.631  0.00  0.00    +0.218 C 
ATOM     17  O   UNL     1       2.728   1.464  -3.788  0.00  0.00    -0.275 OA
ATOM     18  H   UNL     1       2.957  -1.392  -4.935  0.00  0.00    +0.149 HD
BRANCH  15  19
ATOM     19  C   UNL     1       2.975  -1.048  -2.840  0.00  0.00    +0.109 C 
BRANCH  19  20
ATOM     20  C   UNL     1       3.114  -2.564  -2.695  0.00  0.00    +0.056 C 
BRANCH  20  23
ATOM     21  C   UNL     1       0.696  -3.226  -0.865  0.00  0.00    +0.063 C 
ATOM     22  C   UNL     1       2.140  -3.214  -0.435  0.00  0.00    +0.017 A 
ATOM     23  C   UNL     1       3.180  -2.926  -1.234  0.00  0.00    -0.018 A 
ATOM     24  C   UNL     1       4.391  -3.029  -0.416  0.00  0.00    +0.003 A 
ATOM     25  C   UNL     1       5.752  -2.851  -0.670  0.00  0.00    +0.010 A 
ATOM     26  C   UNL     1       6.659  -3.027   0.336  0.00  0.00    +0.001 A 
ATOM     27  C   UNL     1       6.238  -3.383   1.611  0.00  0.00    +0.002 A 
ATOM     28  C   UNL     1       4.900  -3.564   1.884  0.00  0.00    +0.026 A 
ATOM     29  C   UNL     1       3.959  -3.389   0.874  0.00  0.00    +0.047 A 
ATOM     30  N   UNL     1       2.586  -3.488   0.830  0.00  0.00    -0.358 N 
ATOM     31  H   UNL     1       2.020  -3.720   1.582  0.00  0.00    +0.166 HD
ENDBRANCH  20  23
ENDBRANCH  19  20
ENDBRANCH  15  19
ENDBRANCH   1  16
BRANCH  11  32
ATOM     32  C   UNL     1       1.534   4.903  -4.941  0.00  0.00    +0.261 C 
BRANCH  32  33
ATOM     33  C   UNL     1       0.418   5.427  -5.848  0.00  0.00    +0.033 C 
ATOM     34  C   UNL     1       0.127   4.400  -6.944  0.00  0.00    +0.011 C 
ATOM     35  C   UNL     1      -0.846   5.661  -5.018  0.00  0.00    +0.011 C 
ENDBRANCH  32  33
BRANCH  32  36
ATOM     36  O   UNL     1       1.883   5.907  -3.986  0.00  0.00    -0.479 OA
BRANCH  36  37
ATOM     37  C   UNL     1       1.261   5.852  -2.778  0.00  0.00    +0.122 A 
ATOM     38  C   UNL     1       0.405   4.801  -2.484  0.00  0.00    +0.045 A 
ATOM     39  C   UNL     1      -0.225   4.747  -1.256  0.00  0.00    +0.004 A 
ATOM     40  C   UNL     1      -0.004   5.741  -0.321  0.00  0.00    +0.000 A 
ATOM     41  C   UNL     1       0.848   6.791  -0.612  0.00  0.00    +0.004 A 
ATOM     42  C   UNL     1       1.485   6.845  -1.836  0.00  0.00    +0.045 A 
ENDBRANCH  36  37
ENDBRANCH  32  36
ENDBRANCH  11  32
TORSDOF 8
