REMARK  Name = ZINC55098764
REMARK  10 active torsions:
REMARK  status: ('A' for Active; 'I' for Inactive)
REMARK    1  A    between atoms: C_1  and  C_2
REMARK    2  A    between atoms: C_5  and  O_8
REMARK    3  A    between atoms: O_8  and  C_9
REMARK    4  A    between atoms: C_9  and  C_10
REMARK    5  A    between atoms: C_10  and  N_11
REMARK    6  A    between atoms: N_11  and  C_12
REMARK    7  A    between atoms: C_13  and  C_15
REMARK    8  A    between atoms: C_15  and  C_16
REMARK    9  A    between atoms: N_23  and  C_24
REMARK   10  A    between atoms: C_24  and  C_25
REMARK                            x       y       z     vdW  Elec       q    Type
REMARK                         _______ _______ _______ _____ _____    ______ ____
ROOT
ATOM      1  C   UNL     1       2.891  -7.069  -2.987  0.00  0.00    +0.152 C 
ATOM      2  C   UNL     1       2.699  -5.640  -3.410  0.00  0.00    +0.231 C 
ATOM      3  O   UNL     1       3.329  -4.776  -2.839  0.00  0.00    -0.274 OA
ATOM      4  N   UNL     1       1.863  -5.282  -4.390  0.00  0.00    -0.313 N 
ATOM      5  C   UNL     1       1.034  -6.240  -5.115  0.00  0.00    +0.119 C 
ATOM      6  C   UNL     1       1.578  -7.657  -4.923  0.00  0.00    +0.104 C 
ATOM      7  N   UNL     1       1.780  -7.891  -3.484  0.00  0.00    -0.285 NA
ATOM      8  H   UNL     1       1.805  -4.344  -4.630  0.00  0.00    +0.149 HD
ENDROOT
BRANCH   1   9
ATOM      9  C   UNL     1       2.935  -7.145  -1.459  0.00  0.00    +0.124 C 
BRANCH   9  12
ATOM     10  N   UNL     1       1.457  -6.571   0.439  0.00  0.00    -0.301 N 
ATOM     11  C   UNL     1       2.591  -6.809   1.335  0.00  0.00    +0.132 C 
ATOM     12  C   UNL     1       1.618  -6.679  -0.895  0.00  0.00    +0.217 C 
ATOM     13  O   UNL     1       0.703  -6.400  -1.641  0.00  0.00    -0.276 OA
BRANCH  10  14
ATOM     14  C   UNL     1       0.147  -6.217   0.992  0.00  0.00    +0.148 C 
BRANCH  14  15
ATOM     15  C   UNL     1       0.091  -4.709   1.244  0.00  0.00    +0.248 C 
BRANCH  15  16
ATOM     16  O   UNL     1       0.190  -4.014  -0.001  0.00  0.00    -0.490 OA
BRANCH  16  21
ATOM     17  C   UNL     1       0.471   1.607   0.222  0.00  0.00    +0.044 C 
ATOM     18  C   UNL     1       0.396   0.103   0.162  0.00  0.00    -0.050 A 
ATOM     19  C   UNL     1       0.537  -0.548  -1.050  0.00  0.00    +0.007 A 
ATOM     20  C   UNL     1       0.468  -1.926  -1.107  0.00  0.00    +0.046 A 
ATOM     21  C   UNL     1       0.259  -2.658   0.052  0.00  0.00    +0.121 A 
ATOM     22  C   UNL     1       0.118  -2.003   1.267  0.00  0.00    +0.046 A 
ATOM     23  C   UNL     1       0.193  -0.625   1.320  0.00  0.00    +0.007 A 
ENDBRANCH  16  21
ENDBRANCH  15  16
ENDBRANCH  14  15
ENDBRANCH  10  14
ENDBRANCH   9  12
ENDBRANCH   1   9
BRANCH   7  24
ATOM     24  C   UNL     1       2.016  -9.316  -3.213  0.00  0.00    +0.123 C 
BRANCH  24  25
ATOM     25  C   UNL     1       0.781 -10.105  -3.562  0.00  0.00    +0.005 A 
ATOM     26  C   UNL     1      -0.150 -10.400  -2.584  0.00  0.00    +0.008 A 
ATOM     27  C   UNL     1      -1.284 -11.124  -2.903  0.00  0.00    +0.003 A 
ATOM     28  C   UNL     1      -1.489 -11.555  -4.200  0.00  0.00    +0.041 A 
ATOM     29  C   UNL     1      -0.558 -11.261  -5.182  0.00  0.00    +0.159 A 
ATOM     30  C   UNL     1       0.576 -10.530  -4.863  0.00  0.00    +0.163 A 
ATOM     31  F   UNL     1       1.483 -10.237  -5.821  0.00  0.00    -0.202 F 
ATOM     32  F   UNL     1      -0.758 -11.682  -6.450  0.00  0.00    -0.202 F 
ENDBRANCH  24  25
ENDBRANCH   7  24
TORSDOF 8
