REMARK  Name = ZINC04461804
REMARK  4 active torsions:
REMARK  status: ('A' for Active; 'I' for Inactive)
REMARK    1  A    between atoms: N_8  and  N_9
REMARK    2  A    between atoms: C_10  and  C_12
REMARK    3  A    between atoms: N_21  and  C_22
REMARK    4  A    between atoms: C_22  and  N_60
REMARK                            x       y       z     vdW  Elec       q    Type
REMARK                         _______ _______ _______ _____ _____    ______ ____
ROOT
ATOM      1  C   UNL     1       1.186  -0.592  -0.769  0.00  0.00    +0.001 A 
ATOM      2  C   UNL     1       2.375   0.114  -0.698  0.00  0.00    +0.002 A 
ATOM      3  C   UNL     1       2.375   1.465  -0.416  0.00  0.00    +0.024 A 
ATOM      4  C   UNL     1       1.175   2.133  -0.199  0.00  0.00    +0.044 A 
ATOM      5  C   UNL     1      -0.026   1.415  -0.271  0.00  0.00    +0.028 A 
ATOM      6  C   UNL     1      -0.016   0.055  -0.556  0.00  0.00    +0.012 A 
ATOM      7  C   UNL     1      -1.111   2.388  -0.004  0.00  0.00    +0.153 C 
ATOM      8  N   UNL     1      -2.401   2.157   0.023  0.00  0.00    -0.174 NA
ATOM      9  C   UNL     1      -0.422   3.674   0.226  0.00  0.00    +0.270 C 
ATOM     10  O   UNL     1      -0.957   4.737   0.481  0.00  0.00    -0.268 OA
ATOM     11  N   UNL     1       0.899   3.463   0.097  0.00  0.00    -0.282 N 
ENDROOT
BRANCH   8  12
ATOM     12  N   UNL     1      -2.881   0.845  -0.088  0.00  0.00    -0.202 N 
ATOM     13  C   UNL     1      -4.205   0.618  -0.185  0.00  0.00    +0.263 C 
ATOM     14  O   UNL     1      -4.984   1.551  -0.177  0.00  0.00    -0.268 OA
ATOM     15  H   UNL     1      -2.259   0.101  -0.094  0.00  0.00    +0.178 HD
BRANCH  13  16
ATOM     16  C   UNL     1      -4.711  -0.765  -0.302  0.00  0.00    +0.038 A 
ATOM     17  C   UNL     1      -3.818  -1.839  -0.318  0.00  0.00    +0.014 A 
ATOM     18  C   UNL     1      -4.296  -3.128  -0.421  0.00  0.00    +0.021 A 
ATOM     19  C   UNL     1      -5.658  -3.358  -0.522  0.00  0.00    +0.041 A 
ATOM     20  C   UNL     1      -6.548  -2.297  -0.512  0.00  0.00    +0.021 A 
ATOM     21  C   UNL     1      -6.083  -1.004  -0.403  0.00  0.00    +0.014 A 
ATOM     22 CL   UNL     1      -6.252  -4.984  -0.660  0.00  0.00    -0.084 Cl
ENDBRANCH  13  16
ENDBRANCH   8  12
BRANCH  11  23
ATOM     23  C   UNL     1       1.919   4.504   0.248  0.00  0.00    +0.039 C 
BRANCH  23  37
ATOM     24  C   UNL     1       2.690   6.496  -0.887  0.00  0.00    -0.071 C 
ATOM     25  C   UNL     1       2.898   7.173  -2.233  0.00  0.00    -0.007 C 
ATOM     26  C   UNL     1       3.808   6.329  -3.131  0.00  0.00    +0.011 C 
ATOM     27  C   UNL     1       3.166   4.944  -3.268  0.00  0.00    +0.020 C 
ATOM     28  C   UNL     1       3.085   4.316  -1.867  0.00  0.00    -0.067 C 
ATOM     29  C   UNL     1       1.751   5.100  -3.778  0.00  0.00    +0.023 A 
ATOM     30  C   UNL     1       1.230   4.076  -4.504  0.00  0.00    +0.022 A 
ATOM     31  C   UNL     1      -0.095   4.126  -4.954  0.00  0.00    +0.007 A 
ATOM     32  C   UNL     1      -0.860   5.208  -4.630  0.00  0.00    +0.070 A 
ATOM     33  C   UNL     1      -0.293   6.245  -3.876  0.00  0.00    +0.251 A 
ATOM     34  O   UNL     1      -0.985   7.188  -3.529  0.00  0.00    -0.268 OA
ATOM     35  N   UNL     1       1.018   6.210  -3.530  0.00  0.00    -0.312 N 
ATOM     36  C   UNL     1       1.581   7.428  -2.947  0.00  0.00    +0.126 C 
ATOM     37  N   UNL     1       2.146   5.136  -1.068  0.00  0.00    +0.391 N 
ATOM     38  H   UNL     1       1.251   5.199  -1.567  0.00  0.00    -0.079 HD
ENDBRANCH  23  37
ENDBRANCH  11  23
TORSDOF 4
