REMARK  Name = ZINC39607092
REMARK  8 active torsions:
REMARK  status: ('A' for Active; 'I' for Inactive)
REMARK    1  A    between atoms: C_1  and  C_2
REMARK    2  A    between atoms: C_9  and  C_14
REMARK    3  A    between atoms: C_14  and  O_16
REMARK    4  A    between atoms: O_16  and  C_17
REMARK    5  A    between atoms: C_17  and  C_18
REMARK    6  A    between atoms: N_20  and  C_21
REMARK    7  A    between atoms: C_21  and  C_23
REMARK    8  A    between atoms: C_21  and  C_24
REMARK                            x       y       z     vdW  Elec       q    Type
REMARK                         _______ _______ _______ _____ _____    ______ ____
ROOT
ATOM      1  O   UNL     1       0.743  -7.367   1.566  0.00  0.00    -0.452 OA
ENDROOT
BRANCH   1   2
ATOM      2  C   UNL     1       0.109  -6.423   0.843  0.00  0.00    +0.340 C 
ATOM      3  O   UNL     1      -0.950  -6.679   0.305  0.00  0.00    -0.245 OA
BRANCH   2  11
ATOM      4  C   UNL     1       2.091   1.075  -1.527  0.00  0.00    +0.029 C 
ATOM      5  C   UNL     1       1.918  -0.438  -1.371  0.00  0.00    +0.134 C 
ATOM      6  C   UNL     1       0.461  -0.793  -1.481  0.00  0.00    +0.230 C 
ATOM      7  O   UNL     1      -0.263  -0.053  -2.113  0.00  0.00    -0.274 OA
ATOM      8  N   UNL     1      -0.078  -1.875  -0.925  0.00  0.00    -0.284 N 
ATOM      9  C   UNL     1       0.594  -2.839  -0.178  0.00  0.00    +0.048 A 
ATOM     10  C   UNL     1       0.042  -4.103  -0.045  0.00  0.00    +0.039 A 
ATOM     11  C   UNL     1       0.700  -5.081   0.704  0.00  0.00    +0.061 A 
ATOM     12  C   UNL     1       1.919  -4.788   1.324  0.00  0.00    +0.016 A 
ATOM     13  C   UNL     1       2.470  -3.533   1.192  0.00  0.00    +0.017 A 
ATOM     14  C   UNL     1       1.816  -2.561   0.445  0.00  0.00    +0.030 A 
ATOM     15  S   UNL     1       2.529  -0.955   0.262  0.00  0.00    -0.111 S 
ATOM     16  H   UNL     1      -1.031  -2.004  -1.052  0.00  0.00    +0.155 HD
ENDBRANCH   2  11
ENDBRANCH   1   2
BRANCH   1  17
ATOM     17  C   UNL     1       0.112  -8.646   1.657  0.00  0.00    +0.328 C 
BRANCH  17  18
ATOM     18  C   UNL     1       0.960  -9.566   2.499  0.00  0.00    +0.251 C 
ATOM     19  O   UNL     1       2.002  -9.165   2.973  0.00  0.00    -0.272 OA
ATOM     20  N   UNL     1       0.560 -10.833   2.724  0.00  0.00    -0.306 N 
ATOM     21  H   UNL     1      -0.273 -11.153   2.345  0.00  0.00    +0.149 HD
BRANCH  20  22
ATOM     22  C   UNL     1       1.385 -11.726   3.542  0.00  0.00    +0.102 C 
ATOM     23  C   UNL     1       1.014 -11.555   5.016  0.00  0.00    +0.033 C 
BRANCH  22  24
ATOM     24  C   UNL     1       1.143 -13.154   3.125  0.00  0.00    -0.009 A 
ATOM     25  C   UNL     1      -0.068 -13.515   2.565  0.00  0.00    +0.008 A 
ATOM     26  C   UNL     1      -0.291 -14.824   2.183  0.00  0.00    +0.020 A 
ATOM     27  C   UNL     1       0.699 -15.775   2.361  0.00  0.00    +0.042 A 
ATOM     28  C   UNL     1       1.911 -15.415   2.921  0.00  0.00    +0.040 A 
ATOM     29  C   UNL     1       2.135 -14.103   3.299  0.00  0.00    +0.047 A 
ATOM     30 CL   UNL     1       3.658 -13.648   3.997  0.00  0.00    -0.083 Cl
ATOM     31 CL   UNL     1       0.419 -17.420   1.881  0.00  0.00    -0.083 Cl
ENDBRANCH  22  24
ENDBRANCH  20  22
ENDBRANCH  17  18
ENDBRANCH   1  17
TORSDOF 6
