REMARK  Name = ZINC20453829
REMARK  10 active torsions:
REMARK  status: ('A' for Active; 'I' for Inactive)
REMARK    1  A    between atoms: C_1  and  C_2
REMARK    2  A    between atoms: C_2  and  C_3
REMARK    3  A    between atoms: C_2  and  C_4
REMARK    4  A    between atoms: C_4  and  C_5
REMARK    5  A    between atoms: C_5  and  C_19
REMARK    6  A    between atoms: N_8  and  C_12
REMARK    7  A    between atoms: C_12  and  C_13
REMARK    8  A    between atoms: C_13  and  C_14
REMARK    9  A    between atoms: N_22  and  C_25
REMARK   10  A    between atoms: C_25  and  C_26
REMARK                            x       y       z     vdW  Elec       q    Type
REMARK                         _______ _______ _______ _____ _____    ______ ____
ROOT
ATOM      1  C   UNL     1       3.192  -0.264  -2.155  0.00  0.00    +0.115 C 
ATOM      2  C   UNL     1       2.175   0.273  -3.143  0.00  0.00    +0.247 C 
ATOM      3  O   UNL     1       1.967   1.435  -3.420  0.00  0.00    -0.273 OA
ATOM      4  N   UNL     1       1.552  -0.809  -3.648  0.00  0.00    -0.224 N 
ATOM      5  C   UNL     1       2.028  -1.944  -3.122  0.00  0.00    +0.309 C 
ATOM      6  O   UNL     1       1.623  -3.050  -3.422  0.00  0.00    -0.252 OA
ATOM      7  N   UNL     1       3.006  -1.724  -2.225  0.00  0.00    -0.285 N 
ATOM      8  H   UNL     1       3.623  -2.387  -1.602  0.00  0.00    +0.151 HD
ENDROOT
BRANCH   1   9
ATOM      9  C   UNL     1       2.896   0.249  -0.744  0.00  0.00    +0.018 C 
ATOM     10  C   UNL     1       1.449  -0.086  -0.371  0.00  0.00    -0.013 C 
ATOM     11  C   UNL     1       1.140   0.483   1.016  0.00  0.00    -0.078 C 
ATOM     12  N   UNL     1       1.337   1.938   1.004  0.00  0.00    +0.382 N 
ATOM     13  C   UNL     1       2.730   2.283   0.694  0.00  0.00    -0.078 C 
ATOM     14  C   UNL     1       3.086   1.768  -0.702  0.00  0.00    -0.013 C 
ATOM     15  H   UNL     1       0.703   2.355   0.208  0.00  0.00    -0.081 HD
BRANCH  12  16
ATOM     16  C   UNL     1       0.917   2.536   2.278  0.00  0.00    -0.043 C 
BRANCH  16  17
ATOM     17  C   UNL     1       1.355   3.977   2.325  0.00  0.00    -0.062 A 
ATOM     18  C   UNL     1       2.606   4.292   2.858  0.00  0.00    +0.004 A 
ATOM     19  C   UNL     1       3.049   5.570   2.918  0.00  0.00    +0.031 A 
ATOM     20  C   UNL     1       2.230   6.628   2.443  0.00  0.00    +0.100 A 
ATOM     21  C   UNL     1       0.919   6.299   1.891  0.00  0.00    +0.100 A 
ATOM     22  C   UNL     1       0.523   4.937   1.855  0.00  0.00    +0.032 A 
ATOM     23  N   UNL     1       0.262   7.384   1.485  0.00  0.00    -0.191 NA
ATOM     24  S   UNL     1       1.202   8.602   1.780  0.00  0.00    +0.116 S 
ATOM     25  N   UNL     1       2.471   7.938   2.416  0.00  0.00    -0.191 NA
ENDBRANCH  16  17
ENDBRANCH  12  16
ENDBRANCH   1   9
BRANCH   1  26
ATOM     26  C   UNL     1       4.611   0.122  -2.579  0.00  0.00    +0.038 C 
BRANCH  26  28
ATOM     27  C   UNL     1       6.186   0.223  -4.516  0.00  0.00    +0.007 C 
ATOM     28  C   UNL     1       4.861  -0.352  -4.013  0.00  0.00    -0.015 C 
ATOM     29  C   UNL     1       4.925  -1.881  -4.040  0.00  0.00    +0.007 C 
ENDBRANCH  26  28
ENDBRANCH   1  26
BRANCH   4  30
ATOM     30  C   UNL     1       0.484  -0.751  -4.649  0.00  0.00    +0.123 C 
BRANCH  30  31
ATOM     31  C   UNL     1       1.096  -0.806  -6.051  0.00  0.00    +0.062 C 
BRANCH  31  32
ATOM     32  C   UNL     1      -0.002  -0.746  -7.081  0.00  0.00    -0.009 A 
ATOM     33  C   UNL     1      -0.556   0.339  -7.676  0.00  0.00    +0.011 A 
ATOM     34  C   UNL     1      -1.563   0.153  -8.605  0.00  0.00    +0.008 A 
ATOM     35  C   UNL     1      -1.967  -1.109  -8.893  0.00  0.00    +0.045 A 
ATOM     36  S   UNL     1      -0.906  -2.086  -7.840  0.00  0.00    -0.102 S 
ENDBRANCH  31  32
ENDBRANCH  30  31
ENDBRANCH   4  30
TORSDOF 8
