REMARK  Name = ZINC00743307
REMARK  10 active torsions:
REMARK  status: ('A' for Active; 'I' for Inactive)
REMARK    1  A    between atoms: C_1  and  C_2
REMARK    2  A    between atoms: C_7  and  N_8
REMARK    3  A    between atoms: N_11  and  C_12
REMARK    4  A    between atoms: N_11  and  C_18
REMARK    5  A    between atoms: C_12  and  C_13
REMARK    6  A    between atoms: C_18  and  C_20
REMARK    7  A    between atoms: C_18  and  C_21
REMARK    8  A    between atoms: N_31  and  C_32
REMARK    9  A    between atoms: C_35  and  C_39
REMARK   10  A    between atoms: C_36  and  C_38
REMARK                            x       y       z     vdW  Elec       q    Type
REMARK                         _______ _______ _______ _____ _____    ______ ____
ROOT
ATOM      1  C   UNL     1      -2.497  -4.357  -0.070  0.00  0.00    +0.141 C 
ATOM      2  C   UNL     1      -3.108  -4.613   1.309  0.00  0.00    +0.036 C 
ENDROOT
BRANCH   1   3
ATOM      3  C   UNL     1      -3.208  -5.197  -1.099  0.00  0.00    +0.138 A 
ATOM      4  N   UNL     1      -4.353  -5.722  -0.781  0.00  0.00    -0.231 NA
ATOM      5  C   UNL     1      -5.050  -6.489  -1.656  0.00  0.00    +0.078 A 
ATOM      6  C   UNL     1      -6.281  -7.054  -1.315  0.00  0.00    +0.028 A 
ATOM      7  C   UNL     1      -6.955  -7.826  -2.234  0.00  0.00    +0.002 A 
ATOM      8  C   UNL     1      -6.426  -8.051  -3.498  0.00  0.00    +0.001 A 
ATOM      9  C   UNL     1      -5.214  -7.505  -3.858  0.00  0.00    +0.015 A 
ATOM     10  C   UNL     1      -4.515  -6.721  -2.942  0.00  0.00    +0.065 A 
ATOM     11  C   UNL     1      -3.217  -6.113  -3.271  0.00  0.00    +0.266 A 
ATOM     12  O   UNL     1      -2.701  -6.274  -4.361  0.00  0.00    -0.267 OA
ATOM     13  N   UNL     1      -2.621  -5.363  -2.315  0.00  0.00    -0.263 N 
BRANCH  13  14
ATOM     14  C   UNL     1      -1.386  -4.757  -2.578  0.00  0.00    +0.051 A 
ATOM     15  C   UNL     1      -1.309  -3.690  -3.463  0.00  0.00    +0.026 A 
ATOM     16  C   UNL     1      -0.091  -3.092  -3.717  0.00  0.00    +0.005 A 
ATOM     17  C   UNL     1       1.054  -3.560  -3.098  0.00  0.00    -0.047 A 
ATOM     18  C   UNL     1       0.981  -4.626  -2.220  0.00  0.00    -0.046 A 
ATOM     19  C   UNL     1      -0.235  -5.225  -1.958  0.00  0.00    +0.030 A 
ATOM     20  C   UNL     1       2.231  -5.133  -1.547  0.00  0.00    +0.044 C 
ATOM     21  C   UNL     1       2.383  -2.909  -3.381  0.00  0.00    +0.044 C 
ENDBRANCH  13  14
ENDBRANCH   1   3
BRANCH   1  25
ATOM     22  N   UNL     1      -1.681  -0.863  -0.874  0.00  0.00    -0.269 N 
ATOM     23  C   UNL     1      -1.548  -2.166  -0.559  0.00  0.00    +0.307 C 
ATOM     24  O   UNL     1      -0.440  -2.645  -0.407  0.00  0.00    -0.252 OA
ATOM     25  N   UNL     1      -2.642  -2.940  -0.412  0.00  0.00    -0.268 N 
ATOM     26  H   UNL     1      -2.564  -0.465  -0.929  0.00  0.00    +0.156 HD
BRANCH  22  33
ATOM     27  C   UNL     1      -1.878   1.229  -2.792  0.00  0.00    +0.045 C 
ATOM     28  C   UNL     1      -0.599   0.950  -2.046  0.00  0.00    -0.029 A 
ATOM     29  C   UNL     1       0.524   1.718  -2.288  0.00  0.00    +0.005 A 
ATOM     30  C   UNL     1       1.700   1.459  -1.608  0.00  0.00    +0.000 A 
ATOM     31  C   UNL     1       1.756   0.430  -0.685  0.00  0.00    +0.002 A 
ATOM     32  C   UNL     1       0.637  -0.341  -0.439  0.00  0.00    +0.023 A 
ATOM     33  C   UNL     1      -0.545  -0.083  -1.120  0.00  0.00    +0.038 A 
ENDBRANCH  22  33
BRANCH  25  34
ATOM     34  C   UNL     1      -3.976  -2.363  -0.595  0.00  0.00    +0.184 C 
BRANCH  34  35
ATOM     35  C   UNL     1      -4.318  -2.343  -2.062  0.00  0.00    +0.122 A 
ATOM     36  C   UNL     1      -5.037  -3.274  -2.715  0.00  0.00    +0.046 A 
ATOM     37  C   UNL     1      -5.113  -2.860  -4.065  0.00  0.00    +0.041 A 
ATOM     38  C   UNL     1      -4.436  -1.702  -4.156  0.00  0.00    +0.195 A 
ATOM     39  O   UNL     1      -3.962  -1.390  -2.939  0.00  0.00    -0.466 OA
ENDBRANCH  34  35
ENDBRANCH  25  34
ENDBRANCH   1  25
TORSDOF 6
