REMARK  Name = ZINC40323047
REMARK  8 active torsions:
REMARK  status: ('A' for Active; 'I' for Inactive)
REMARK    1  A    between atoms: C_1  and  C_2
REMARK    2  A    between atoms: C_5  and  C_8
REMARK    3  A    between atoms: C_8  and  C_10
REMARK    4  A    between atoms: C_8  and  N_29
REMARK    5  A    between atoms: C_10  and  N_11
REMARK    6  A    between atoms: C_12  and  C_14
REMARK    7  A    between atoms: C_17  and  S_19
REMARK    8  A    between atoms: S_19  and  C_22
REMARK                            x       y       z     vdW  Elec       q    Type
REMARK                         _______ _______ _______ _____ _____    ______ ____
ROOT
ATOM      1  N   UNL     1      -2.205  -4.393  -0.961  0.00  0.00    -0.310 N 
ATOM      2  C   UNL     1      -3.511  -4.721  -0.992  0.00  0.00    +0.279 C 
ATOM      3  O   UNL     1      -3.979  -5.438  -0.126  0.00  0.00    -0.267 OA
ATOM      4  H   UNL     1      -1.832  -3.821  -1.651  0.00  0.00    +0.149 HD
ENDROOT
BRANCH   2   5
ATOM      5  C   UNL     1      -4.370  -4.215  -2.067  0.00  0.00    +0.192 A 
ATOM      6  C   UNL     1      -5.705  -4.465  -2.213  0.00  0.00    +0.056 A 
ATOM      7  C   UNL     1      -6.118  -3.786  -3.370  0.00  0.00    +0.070 A 
ATOM      8  C   UNL     1      -5.032  -3.160  -3.873  0.00  0.00    +0.246 A 
ATOM      9  O   UNL     1      -3.982  -3.417  -3.083  0.00  0.00    -0.433 OA
BRANCH   8  10
ATOM     10  S   UNL     1      -5.002  -2.164  -5.327  0.00  0.00    +0.058 S 
ATOM     11  O   UNL     1      -3.662  -2.174  -5.799  0.00  0.00    -0.161 OA
ATOM     12  O   UNL     1      -6.096  -2.587  -6.130  0.00  0.00    -0.161 OA
BRANCH  10  13
ATOM     13  C   UNL     1      -5.350  -0.509  -4.832  0.00  0.00    +0.097 A 
ATOM     14  C   UNL     1      -6.657  -0.061  -4.792  0.00  0.00    +0.028 A 
ATOM     15  C   UNL     1      -6.931   1.237  -4.404  0.00  0.00    +0.017 A 
ATOM     16  C   UNL     1      -5.896   2.087  -4.055  0.00  0.00    +0.018 A 
ATOM     17  C   UNL     1      -4.589   1.638  -4.096  0.00  0.00    +0.017 A 
ATOM     18  C   UNL     1      -4.317   0.338  -4.479  0.00  0.00    +0.028 A 
ATOM     19 BR   UNL     1      -6.270   3.863  -3.525  0.00  0.00    -0.050 Br
ENDBRANCH  10  13
ENDBRANCH   8  10
ENDBRANCH   2   5
BRANCH   1  20
ATOM     20  C   UNL     1      -1.347  -4.898   0.113  0.00  0.00    +0.094 C 
BRANCH  20  21
ATOM     21  C   UNL     1       0.045  -4.274  -0.009  0.00  0.00    -0.020 C 
BRANCH  21  26
ATOM     22  C   UNL     1      -0.311   1.419   0.913  0.00  0.00    +0.044 C 
ATOM     23  C   UNL     1      -0.218  -0.066   0.672  0.00  0.00    -0.050 A 
ATOM     24  C   UNL     1      -0.149  -0.554  -0.619  0.00  0.00    +0.003 A 
ATOM     25  C   UNL     1      -0.064  -1.916  -0.840  0.00  0.00    +0.002 A 
ATOM     26  C   UNL     1      -0.047  -2.790   0.231  0.00  0.00    -0.059 A 
ATOM     27  C   UNL     1      -0.115  -2.301   1.523  0.00  0.00    +0.002 A 
ATOM     28  C   UNL     1      -0.196  -0.939   1.743  0.00  0.00    +0.003 A 
ENDBRANCH  21  26
BRANCH  21  29
ATOM     29  N   UNL     1       0.941  -4.877   0.987  0.00  0.00    +0.385 N 
ATOM     30  C   UNL     1       1.104  -6.329   0.717  0.00  0.00    -0.078 C 
ATOM     31  C   UNL     1       2.435  -6.675   1.431  0.00  0.00    -0.020 C 
ATOM     32  C   UNL     1       3.300  -5.419   1.176  0.00  0.00    -0.020 C 
ATOM     33  C   UNL     1       2.295  -4.292   0.875  0.00  0.00    -0.078 C 
ATOM     34  H   UNL     1       0.575  -4.734   1.916  0.00  0.00    -0.081 HD
ENDBRANCH  21  29
ENDBRANCH  20  21
ENDBRANCH   1  20
TORSDOF 7
