REMARK  Name = ZINC34829769
REMARK  10 active torsions:
REMARK  status: ('A' for Active; 'I' for Inactive)
REMARK    1  A    between atoms: C_1  and  C_2
REMARK    2  A    between atoms: C_2  and  C_3
REMARK    3  A    between atoms: C_3  and  C_4
REMARK    4  A    between atoms: C_4  and  C_5
REMARK    5  A    between atoms: C_8  and  C_11
REMARK    6  A    between atoms: C_18  and  C_20
REMARK    7  A    between atoms: C_21  and  C_23
REMARK    8  A    between atoms: C_23  and  N_24
REMARK    9  A    between atoms: C_32  and  C_34
REMARK   10  A    between atoms: C_37  and  C_40
REMARK                            x       y       z     vdW  Elec       q    Type
REMARK                         _______ _______ _______ _____ _____    ______ ____
ROOT
ATOM      1  C   UNL     1      -6.811  -4.056   0.045  0.00  0.00    +0.247 C 
ATOM      2  O   UNL     1      -7.349  -4.333   1.100  0.00  0.00    -0.270 OA
ATOM      3  N   UNL     1      -7.488  -4.193  -1.112  0.00  0.00    -0.292 N 
ATOM      4  C   UNL     1      -6.824  -3.947  -2.400  0.00  0.00    +0.127 C 
ATOM      5  C   UNL     1      -7.630  -2.897  -3.175  0.00  0.00    +0.126 C 
ATOM      6  N   UNL     1      -9.045  -3.295  -3.172  0.00  0.00    -0.300 N 
ATOM      7  C   UNL     1      -9.709  -3.540  -1.884  0.00  0.00    +0.130 C 
ATOM      8  C   UNL     1      -8.901  -4.596  -1.109  0.00  0.00    +0.091 C 
ATOM      9  C   UNL     1      -9.047  -5.959  -1.788  0.00  0.00    +0.029 C 
ATOM     10  C   UNL     1      -9.721  -3.432  -4.329  0.00  0.00    +0.199 C 
ATOM     11  O   UNL     1     -10.889  -3.760  -4.314  0.00  0.00    -0.278 OA
ENDROOT
BRANCH   1  15
ATOM     12  C   UNL     1      -2.801  -2.657   0.008  0.00  0.00    -0.047 A 
ATOM     13  C   UNL     1      -3.169  -3.713  -0.806  0.00  0.00    +0.004 A 
ATOM     14  C   UNL     1      -4.470  -4.173  -0.798  0.00  0.00    +0.013 A 
ATOM     15  C   UNL     1      -5.415  -3.569   0.033  0.00  0.00    +0.037 A 
ATOM     16  C   UNL     1      -5.037  -2.503   0.851  0.00  0.00    +0.013 A 
ATOM     17  C   UNL     1      -3.732  -2.057   0.838  0.00  0.00    +0.004 A 
BRANCH  12  18
ATOM     18  C   UNL     1      -1.378  -2.160  -0.006  0.00  0.00    +0.035 C 
BRANCH  18  19
ATOM     19  C   UNL     1      -0.561  -2.924   1.038  0.00  0.00    +0.004 C 
BRANCH  19  21
ATOM     20  C   UNL     1       1.700  -3.184   2.069  0.00  0.00    +0.004 C 
ATOM     21  C   UNL     1       0.883  -2.420   1.025  0.00  0.00    -0.003 C 
ENDBRANCH  19  21
ENDBRANCH  18  19
ENDBRANCH  12  18
ENDBRANCH   1  15
BRANCH  10  22
ATOM     22  C   UNL     1      -9.027  -3.176  -5.642  0.00  0.00    +0.020 C 
BRANCH  22  23
ATOM     23  N   UNL     1      -9.973  -3.391  -6.746  0.00  0.00    +0.393 N 
ATOM     24  C   UNL     1     -11.061  -2.408  -6.648  0.00  0.00    -0.072 C 
ATOM     25  C   UNL     1     -12.203  -2.836  -7.586  0.00  0.00    +0.024 C 
ATOM     26  C   UNL     1     -11.596  -3.183  -8.906  0.00  0.00    -0.010 A 
ATOM     27  C   UNL     1     -10.272  -3.381  -9.161  0.00  0.00    -0.047 A 
ATOM     28  C   UNL     1      -9.931  -3.692 -10.475  0.00  0.00    +0.010 A 
ATOM     29  C   UNL     1     -10.896  -3.787 -11.420  0.00  0.00    +0.045 A 
ATOM     30  S   UNL     1     -12.372  -3.432 -10.477  0.00  0.00    -0.101 S 
ATOM     31  C   UNL     1      -9.263  -3.258  -8.023  0.00  0.00    -0.005 C 
ATOM     32  H   UNL     1     -10.359  -4.321  -6.676  0.00  0.00    -0.080 HD
BRANCH  31  33
ATOM     33  C   UNL     1      -8.230  -4.349  -8.143  0.00  0.00    -0.057 A 
ATOM     34  C   UNL     1      -8.527  -5.631  -7.719  0.00  0.00    +0.002 A 
ATOM     35  C   UNL     1      -7.580  -6.632  -7.829  0.00  0.00    +0.003 A 
ATOM     36  C   UNL     1      -6.336  -6.351  -8.364  0.00  0.00    -0.050 A 
ATOM     37  C   UNL     1      -6.040  -5.070  -8.789  0.00  0.00    +0.003 A 
ATOM     38  C   UNL     1      -6.989  -4.070  -8.683  0.00  0.00    +0.002 A 
ATOM     39  C   UNL     1      -5.304  -7.442  -8.483  0.00  0.00    +0.044 C 
ENDBRANCH  31  33
ENDBRANCH  22  23
ENDBRANCH  10  22
TORSDOF 7
