REMARK  Name = ZINC20681801
REMARK  10 active torsions:
REMARK  status: ('A' for Active; 'I' for Inactive)
REMARK    1  A    between atoms: C_1  and  C_2
REMARK    2  A    between atoms: C_4  and  C_40
REMARK    3  A    between atoms: C_6  and  N_8
REMARK    4  A    between atoms: N_8  and  C_9
REMARK    5  A    between atoms: C_9  and  N_11
REMARK    6  A    between atoms: N_11  and  C_12
REMARK    7  A    between atoms: C_14  and  C_34
REMARK    8  A    between atoms: C_17  and  N_18
REMARK    9  A    between atoms: N_36  and  C_37
REMARK   10  A    between atoms: C_37  and  C_38
REMARK                            x       y       z     vdW  Elec       q    Type
REMARK                         _______ _______ _______ _____ _____    ______ ____
ROOT
ATOM      1  C   UNL     1      -3.961   2.058  -0.431  0.00  0.00    +0.055 A 
ATOM      2  C   UNL     1      -2.680   1.542  -0.390  0.00  0.00    +0.038 A 
ATOM      3  C   UNL     1      -1.587   2.368  -0.669  0.00  0.00    +0.039 A 
ATOM      4  C   UNL     1      -1.795   3.710  -0.999  0.00  0.00    +0.015 A 
ATOM      5  C   UNL     1      -3.073   4.219  -1.044  0.00  0.00    +0.026 A 
ATOM      6  C   UNL     1      -4.161   3.401  -0.762  0.00  0.00    +0.051 A 
ENDROOT
BRANCH   6   7
ATOM      7  N   UNL     1      -5.453   3.921  -0.809  0.00  0.00    -0.328 N 
ATOM      8  C   UNL     1      -5.427   5.382  -0.930  0.00  0.00    +0.110 C 
ATOM      9  C   UNL     1      -6.835   5.958  -0.925  0.00  0.00    +0.027 C 
ATOM     10  C   UNL     1      -7.691   5.314  -2.019  0.00  0.00    +0.018 C 
ATOM     11  C   UNL     1      -7.680   3.800  -1.783  0.00  0.00    +0.053 C 
ATOM     12  C   UNL     1      -6.227   3.311  -1.902  0.00  0.00    +0.114 C 
ATOM     13  C   UNL     1      -8.141   3.513  -0.372  0.00  0.00    +0.027 A 
ATOM     14  C   UNL     1      -8.720   2.306  -0.137  0.00  0.00    +0.022 A 
ATOM     15  C   UNL     1      -9.116   1.946   1.156  0.00  0.00    +0.007 A 
ATOM     16  C   UNL     1      -8.892   2.819   2.180  0.00  0.00    +0.070 A 
ATOM     17  C   UNL     1      -8.294   4.056   1.903  0.00  0.00    +0.251 A 
ATOM     18  O   UNL     1      -8.047   4.824   2.819  0.00  0.00    -0.268 OA
ATOM     19  N   UNL     1      -7.988   4.410   0.630  0.00  0.00    -0.312 N 
ATOM     20  C   UNL     1      -7.517   5.779   0.420  0.00  0.00    +0.130 C 
ENDBRANCH   6   7
BRANCH   3  21
ATOM     21  C   UNL     1      -0.218   1.822  -0.622  0.00  0.00    +0.244 C 
ATOM     22  O   UNL     1      -0.038   0.654  -0.334  0.00  0.00    -0.270 OA
ATOM     23  N   UNL     1       0.834   2.616  -0.902  0.00  0.00    -0.308 N 
ATOM     24  H   UNL     1       0.672   3.672  -1.162  0.00  0.00    +0.149 HD
BRANCH  23  25
ATOM     25  C   UNL     1       2.194   2.072  -0.861  0.00  0.00    +0.131 C 
BRANCH  25  26
ATOM     26  C   UNL     1       3.180   3.157  -1.211  0.00  0.00    -0.016 C 
ATOM     27  C   UNL     1       4.163   3.438  -0.392  0.00  0.00    +0.005 C 
ENDBRANCH  25  26
ENDBRANCH  23  25
ENDBRANCH   3  21
BRANCH   1  28
ATOM     28  N   UNL     1      -5.059   1.235  -0.147  0.00  0.00    -0.295 N 
ATOM     29  H   UNL     1      -5.884   1.613   0.474  0.00  0.00    +0.154 HD
BRANCH  28  30
ATOM     30  C   UNL     1      -5.104  -0.021  -0.634  0.00  0.00    +0.139 C 
ATOM     31  S   UNL     1      -3.762  -0.656  -1.486  0.00  0.00    -0.018 S 
BRANCH  30  32
ATOM     32  N   UNL     1      -6.204  -0.776  -0.450  0.00  0.00    -0.297 N 
ATOM     33  H   UNL     1      -7.030  -0.403   0.173  0.00  0.00    +0.154 HD
BRANCH  32  39
ATOM     34  C   UNL     1      -5.482  -3.657  -4.368  0.00  0.00    +0.044 C 
ATOM     35  C   UNL     1      -5.954  -3.460  -2.951  0.00  0.00    -0.048 A 
ATOM     36  C   UNL     1      -6.479  -4.526  -2.244  0.00  0.00    +0.006 A 
ATOM     37  C   UNL     1      -6.914  -4.350  -0.943  0.00  0.00    -0.048 A 
ATOM     38  C   UNL     1      -6.824  -3.108  -0.345  0.00  0.00    +0.026 A 
ATOM     39  C   UNL     1      -6.297  -2.035  -1.053  0.00  0.00    +0.033 A 
ATOM     40  C   UNL     1      -5.867  -2.214  -2.361  0.00  0.00    +0.026 A 
ATOM     41  C   UNL     1      -7.486  -5.515  -0.176  0.00  0.00    +0.044 C 
ENDBRANCH  32  39
ENDBRANCH  30  32
ENDBRANCH  28  30
ENDBRANCH   1  28
TORSDOF 8
