REMARK  Name = ZINC21221285
REMARK  10 active torsions:
REMARK  status: ('A' for Active; 'I' for Inactive)
REMARK    1  A    between atoms: C_1  and  C_2
REMARK    2  A    between atoms: C_2  and  C_3
REMARK    3  A    between atoms: C_2  and  O_4
REMARK    4  A    between atoms: O_4  and  C_5
REMARK    5  A    between atoms: C_6  and  C_13
REMARK    6  A    between atoms: C_10  and  O_11
REMARK    7  A    between atoms: O_11  and  C_12
REMARK    8  A    between atoms: C_18  and  C_23
REMARK    9  A    between atoms: C_27  and  O_29
REMARK   10  A    between atoms: O_29  and  C_30
REMARK                            x       y       z     vdW  Elec       q    Type
REMARK                         _______ _______ _______ _____ _____    ______ ____
ROOT
ATOM      1  C   UNL     1       0.002  -0.004   0.002  0.00  0.00    +0.140 C 
ATOM      2  C   UNL     1      -0.077   1.504  -0.010  0.00  0.00    +0.037 C 
ATOM      3  C   UNL     1       0.967   2.349  -0.012  0.00  0.00    +0.017 C 
ATOM      4  C   UNL     1       0.740   3.851   0.015  0.00  0.00    +0.059 C 
ATOM      5  C   UNL     1      -0.539   4.198  -0.746  0.00  0.00    +0.032 C 
ATOM      6  C   UNL     1      -1.702   3.474  -0.057  0.00  0.00    +0.088 C 
ATOM      7  C   UNL     1      -1.400   2.006  -0.027  0.00  0.00    +0.163 C 
ATOM      8  O   UNL     1      -2.325   1.218  -0.014  0.00  0.00    -0.292 OA
ATOM      9  N   UNL     1       2.271   1.972  -0.023  0.00  0.00    -0.316 N 
ATOM     10  C   UNL     1       2.821   0.997   0.802  0.00  0.00    +0.052 A 
ATOM     11  C   UNL     1       3.820   1.281   1.717  0.00  0.00    +0.025 A 
ATOM     12  C   UNL     1       4.400   0.246   2.430  0.00  0.00    +0.002 A 
ATOM     13  C   UNL     1       3.985  -1.058   2.232  0.00  0.00    +0.002 A 
ATOM     14  C   UNL     1       2.972  -1.341   1.332  0.00  0.00    +0.025 A 
ATOM     15  C   UNL     1       2.377  -0.305   0.628  0.00  0.00    +0.049 A 
ATOM     16  N   UNL     1       1.324  -0.536  -0.255  0.00  0.00    -0.331 N 
ATOM     17  H   UNL     1       2.976   2.450  -0.720  0.00  0.00    +0.152 HD
ATOM     18  H   UNL     1       1.510  -1.133  -1.159  0.00  0.00    +0.147 HD
ENDROOT
BRANCH   1  20
ATOM     19  C   UNL     1      -1.641  -1.208   1.462  0.00  0.00    +0.168 A 
ATOM     20  C   UNL     1      -0.458  -0.496   1.350  0.00  0.00    +0.023 A 
ATOM     21  C   UNL     1       0.298  -0.231   2.477  0.00  0.00    +0.009 A 
ATOM     22  C   UNL     1      -0.120  -0.681   3.716  0.00  0.00    +0.004 A 
ATOM     23  C   UNL     1      -1.296  -1.398   3.833  0.00  0.00    +0.049 A 
ATOM     24  C   UNL     1      -2.059  -1.666   2.707  0.00  0.00    +0.162 A 
BRANCH  24  25
ATOM     25  O   UNL     1      -3.217  -2.371   2.821  0.00  0.00    -0.491 OA
ATOM     26  C   UNL     1      -3.587  -2.804   4.131  0.00  0.00    +0.277 C 
ENDBRANCH  24  25
BRANCH  19  27
ATOM     27  O   UNL     1      -2.388  -1.465   0.355  0.00  0.00    -0.485 OA
BRANCH  27  29
ATOM     28  C   UNL     1      -2.971  -3.806   0.209  0.00  0.00    +0.051 C 
ATOM     29  C   UNL     1      -2.107  -2.674  -0.352  0.00  0.00    +0.168 C 
ATOM     30  C   UNL     1      -2.421  -2.482  -1.837  0.00  0.00    +0.051 C 
ENDBRANCH  27  29
ENDBRANCH  19  27
ENDBRANCH   1  20
BRANCH   5  31
ATOM     31  C   UNL     1      -0.768   5.687  -0.707  0.00  0.00    -0.040 A 
ATOM     32  C   UNL     1      -0.928   6.330   0.507  0.00  0.00    +0.004 A 
ATOM     33  C   UNL     1      -1.133   7.696   0.546  0.00  0.00    +0.004 A 
ATOM     34  C   UNL     1      -1.191   8.421  -0.628  0.00  0.00    +0.045 A 
ATOM     35  C   UNL     1      -1.037   7.778  -1.847  0.00  0.00    +0.120 A 
ATOM     36  C   UNL     1      -0.825   6.407  -1.884  0.00  0.00    +0.049 A 
BRANCH  35  37
ATOM     37  O   UNL     1      -1.094   8.489  -3.004  0.00  0.00    -0.495 OA
ATOM     38  C   UNL     1      -1.315   9.896  -2.891  0.00  0.00    +0.277 C 
ENDBRANCH  35  37
ENDBRANCH   5  31
TORSDOF 6
