REMARK  Name = ZINC38660334
REMARK  16 active torsions:
REMARK  status: ('A' for Active; 'I' for Inactive)
REMARK    1  A    between atoms: C_1  and  C_2
REMARK    2  A    between atoms: C_2  and  C_3
REMARK    3  A    between atoms: C_2  and  C_4
REMARK    4  A    between atoms: C_4  and  C_5
REMARK    5  A    between atoms: C_5  and  O_6
REMARK    6  A    between atoms: O_6  and  C_7
REMARK    7  A    between atoms: C_10  and  C_15
REMARK    8  A    between atoms: C_12  and  O_13
REMARK    9  A    between atoms: O_13  and  C_14
REMARK   10  A    between atoms: C_20  and  O_29
REMARK   11  A    between atoms: C_24  and  N_28
REMARK   12  A    between atoms: C_25  and  C_26
REMARK   13  A    between atoms: O_29  and  C_30
REMARK   14  A    between atoms: C_30  and  C_32
REMARK   15  A    between atoms: C_35  and  O_38
REMARK   16  A    between atoms: O_38  and  C_39
REMARK                            x       y       z     vdW  Elec       q    Type
REMARK                         _______ _______ _______ _____ _____    ______ ____
ROOT
ATOM      1  C   UNL     1      -1.757   0.495   8.622  0.00  0.00    +0.098 C 
ATOM      2  C   UNL     1      -1.864   1.985   8.810  0.00  0.00    +0.008 A 
ATOM      3  C   UNL     1      -0.756   2.699   9.230  0.00  0.00    +0.012 A 
ATOM      4  C   UNL     1      -0.835   4.066   9.407  0.00  0.00    +0.047 A 
ATOM      5  C   UNL     1      -2.031   4.729   9.164  0.00  0.00    +0.135 A 
ATOM      6  C   UNL     1      -3.142   4.016   8.743  0.00  0.00    +0.093 A 
ATOM      7  C   UNL     1      -3.060   2.641   8.565  0.00  0.00    +0.138 A 
ATOM      8  O   UNL     1      -4.156   1.959   8.152  0.00  0.00    -0.441 OA
ATOM      9  C   UNL     1      -4.229   0.630   8.341  0.00  0.00    +0.199 C 
ATOM     10  C   UNL     1      -3.127  -0.119   8.567  0.00  0.00    +0.098 C 
ENDROOT
BRANCH   1  14
ATOM     11  C   UNL     1       0.308  -0.326   4.968  0.00  0.00    +0.162 A 
ATOM     12  C   UNL     1      -0.878   0.390   4.951  0.00  0.00    +0.050 A 
ATOM     13  C   UNL     1      -1.544   0.653   6.134  0.00  0.00    +0.008 A 
ATOM     14  C   UNL     1      -1.028   0.204   7.336  0.00  0.00    -0.031 A 
ATOM     15  C   UNL     1       0.156  -0.510   7.359  0.00  0.00    +0.054 A 
ATOM     16  C   UNL     1       0.824  -0.783   6.177  0.00  0.00    +0.162 A 
BRANCH  16  17
ATOM     17  O   UNL     1       1.986  -1.490   6.198  0.00  0.00    -0.491 OA
ATOM     18  C   UNL     1       2.456  -1.927   7.474  0.00  0.00    +0.277 C 
ENDBRANCH  16  17
BRANCH  11  19
ATOM     19  O   UNL     1       0.963  -0.586   3.805  0.00  0.00    -0.488 OA
BRANCH  19  20
ATOM     20  C   UNL     1       0.374  -0.086   2.603  0.00  0.00    +0.229 C 
BRANCH  20  21
ATOM     21  C   UNL     1       1.247  -0.475   1.408  0.00  0.00    +0.044 C 
BRANCH  21  23
ATOM     22  C   UNL     1       0.624   1.590   0.147  0.00  0.00    +0.007 C 
ATOM     23  C   UNL     1       0.617   0.060   0.120  0.00  0.00    -0.014 C 
ATOM     24  C   UNL     1       1.421  -0.433  -1.084  0.00  0.00    +0.007 C 
ENDBRANCH  21  23
ENDBRANCH  20  21
ENDBRANCH  19  20
ENDBRANCH  11  19
ENDBRANCH   1  14
BRANCH   9  25
ATOM     25  N   UNL     1      -5.456   0.018   8.301  0.00  0.00    -0.328 N 
ATOM     26  H   UNL     1      -6.255   0.543   8.139  0.00  0.00    +0.145 HD
ATOM     27  H   UNL     1      -5.525  -0.940   8.436  0.00  0.00    +0.145 HD
ENDBRANCH   9  25
BRANCH  10  28
ATOM     28  C   UNL     1      -3.272  -1.530   8.759  0.00  0.00    +0.101 C 
ATOM     29  N   UNL     1      -3.388  -2.650   8.911  0.00  0.00    -0.191 NA
ENDBRANCH  10  28
BRANCH   5  30
ATOM     30  O   UNL     1      -2.111   6.074   9.338  0.00  0.00    -0.422 OA
BRANCH  30  31
ATOM     31  C   UNL     1      -2.854   6.537  10.362  0.00  0.00    +0.344 C 
ATOM     32  O   UNL     1      -3.341   5.759  11.159  0.00  0.00    -0.245 OA
BRANCH  31  33
ATOM     33  C   UNL     1      -3.075   7.986  10.517  0.00  0.00    +0.060 A 
ATOM     34  C   UNL     1      -2.520   8.882   9.599  0.00  0.00    +0.018 A 
ATOM     35  C   UNL     1      -2.730  10.235   9.747  0.00  0.00    +0.046 A 
ATOM     36  C   UNL     1      -3.492  10.710  10.808  0.00  0.00    +0.120 A 
ATOM     37  C   UNL     1      -4.046   9.823  11.723  0.00  0.00    +0.046 A 
ATOM     38  C   UNL     1      -3.846   8.468  11.579  0.00  0.00    +0.018 A 
BRANCH  36  39
ATOM     39  O   UNL     1      -3.696  12.044  10.950  0.00  0.00    -0.495 OA
ATOM     40  C   UNL     1      -4.489  12.464  12.062  0.00  0.00    +0.277 C 
ENDBRANCH  36  39
ENDBRANCH  31  33
ENDBRANCH  30  31
ENDBRANCH   5  30
TORSDOF 12
