REMARK  Name = ZINC57415839
REMARK  6 active torsions:
REMARK  status: ('A' for Active; 'I' for Inactive)
REMARK    1  A    between atoms: C_1  and  C_2
REMARK    2  A    between atoms: C_5  and  N_9
REMARK    3  A    between atoms: C_6  and  C_8
REMARK    4  A    between atoms: N_9  and  C_10
REMARK    5  A    between atoms: C_10  and  N_12
REMARK    6  A    between atoms: N_12  and  N_13
REMARK                            x       y       z     vdW  Elec       q    Type
REMARK                         _______ _______ _______ _____ _____    ______ ____
ROOT
ATOM      1  N   UNL     1      -0.099  -6.183  -1.187  0.00  0.00    -0.218 N 
ATOM      2  H   UNL     1      -0.144  -6.665  -2.028  0.00  0.00    +0.176 HD
ENDROOT
BRANCH   1   3
ATOM      3  N   UNL     1      -0.106  -6.886   0.025  0.00  0.00    -0.185 NA
ATOM      4  C   UNL     1      -0.089  -8.184   0.022  0.00  0.00    +0.070 C 
ATOM      5  C   UNL     1      -0.194  -8.914  -1.289  0.00  0.00    +0.080 C 
ATOM      6  C   UNL     1      -1.325  -9.947  -1.185  0.00  0.00    +0.178 C 
ATOM      7  S   UNL     1      -0.836 -11.192   0.045  0.00  0.00    -0.002 S 
ATOM      8  O   UNL     1       0.313 -11.898  -0.402  0.00  0.00    -0.169 OA
ATOM      9  O   UNL     1      -1.980 -11.892   0.515  0.00  0.00    -0.169 OA
ATOM     10  C   UNL     1      -0.279 -10.253   1.429  0.00  0.00    +0.097 A 
ATOM     11  C   UNL     1       0.040  -8.901   1.301  0.00  0.00    +0.025 A 
ATOM     12  C   UNL     1       0.491  -8.191   2.422  0.00  0.00    +0.050 A 
ATOM     13  C   UNL     1       0.619  -8.826   3.640  0.00  0.00    +0.124 A 
ATOM     14  C   UNL     1       0.302 -10.170   3.758  0.00  0.00    +0.040 A 
ATOM     15  C   UNL     1      -0.153 -10.877   2.656  0.00  0.00    +0.030 A 
ATOM     16  F   UNL     1       1.055  -8.138   4.718  0.00  0.00    -0.205 F 
ENDBRANCH   1   3
BRANCH   1  17
ATOM     17  C   UNL     1      -0.029  -4.837  -1.184  0.00  0.00    +0.154 C 
ATOM     18  S   UNL     1      -0.020  -3.978  -2.665  0.00  0.00    -0.017 S 
BRANCH  17  19
ATOM     19  N   UNL     1       0.034  -4.168  -0.016  0.00  0.00    -0.295 N 
ATOM     20  H   UNL     1       0.097  -4.656   0.820  0.00  0.00    +0.154 HD
BRANCH  19  25
ATOM     21  C   UNL     1      -0.070   1.504   0.011  0.00  0.00    +0.044 C 
ATOM     22  C   UNL     1      -0.043  -0.003   0.004  0.00  0.00    -0.050 A 
ATOM     23  C   UNL     1       0.789  -0.673  -0.875  0.00  0.00    +0.005 A 
ATOM     24  C   UNL     1       0.817  -2.054  -0.884  0.00  0.00    +0.024 A 
ATOM     25  C   UNL     1       0.008  -2.769  -0.009  0.00  0.00    +0.036 A 
ATOM     26  C   UNL     1      -0.825  -2.093   0.872  0.00  0.00    -0.029 A 
ATOM     27  C   UNL     1      -0.845  -0.712   0.879  0.00  0.00    +0.008 A 
ATOM     28  C   UNL     1      -1.704  -2.865   1.821  0.00  0.00    +0.045 C 
ENDBRANCH  19  25
ENDBRANCH  17  19
ENDBRANCH   1  17
TORSDOF 4
