REMARK  Name = ZINC35778378
REMARK  15 active torsions:
REMARK  status: ('A' for Active; 'I' for Inactive)
REMARK    1  A    between atoms: C_1  and  N_2
REMARK    2  A    between atoms: C_3  and  O_32
REMARK    3  A    between atoms: C_4  and  C_13
REMARK    4  A    between atoms: C_5  and  C_7
REMARK    5  A    between atoms: C_13  and  N_14
REMARK    6  A    between atoms: N_14  and  C_15
REMARK    7  A    between atoms: N_14  and  C_19
REMARK    8  A    between atoms: C_15  and  C_16
REMARK    9  A    between atoms: C_19  and  C_20
REMARK   10  A    between atoms: C_20  and  C_22
REMARK   11  A    between atoms: C_20  and  O_31
REMARK   12  A    between atoms: C_22  and  O_23
REMARK   13  A    between atoms: O_23  and  C_24
REMARK   14  A    between atoms: C_24  and  C_25
REMARK   15  A    between atoms: O_32  and  C_33
REMARK                            x       y       z     vdW  Elec       q    Type
REMARK                         _______ _______ _______ _____ _____    ______ ____
ROOT
ATOM      1  C   UNL     1      -2.481  -8.111  -0.461  0.00  0.00    +0.176 C 
ATOM      2  N   UNL     1      -1.655  -6.925  -0.221  0.00  0.00    -0.235 N 
ATOM      3  C   UNL     1      -1.229  -6.046  -1.164  0.00  0.00    +0.221 A 
ATOM      4  C   UNL     1      -0.493  -5.092  -0.538  0.00  0.00    +0.025 A 
ATOM      5  C   UNL     1      -0.469  -5.400   0.836  0.00  0.00    +0.098 A 
ATOM      6  N   UNL     1      -1.171  -6.497   1.022  0.00  0.00    -0.168 NA
ENDROOT
BRANCH   5   7
ATOM      7  C   UNL     1       0.224  -4.619   1.891  0.00  0.00    +0.002 A 
ATOM      8  C   UNL     1       1.504  -4.118   1.664  0.00  0.00    +0.010 A 
ATOM      9  C   UNL     1       2.143  -3.393   2.649  0.00  0.00    +0.001 A 
ATOM     10  C   UNL     1       1.515  -3.163   3.860  0.00  0.00    +0.000 A 
ATOM     11  C   UNL     1       0.244  -3.658   4.091  0.00  0.00    +0.001 A 
ATOM     12  C   UNL     1      -0.407  -4.380   3.111  0.00  0.00    +0.010 A 
ENDBRANCH   5   7
BRANCH   4  13
ATOM     13  C   UNL     1       0.178  -3.914  -1.196  0.00  0.00    -0.035 C 
BRANCH  13  14
ATOM     14  N   UNL     1       1.499  -4.319  -1.694  0.00  0.00    +0.384 N 
ATOM     15  H   UNL     1       2.034  -4.723  -0.940  0.00  0.00    -0.081 HD
BRANCH  14  16
ATOM     16  C   UNL     1       2.205  -3.144  -2.221  0.00  0.00    -0.075 C 
BRANCH  16  17
ATOM     17  C   UNL     1       2.477  -2.159  -1.082  0.00  0.00    -0.028 C 
ATOM     18  C   UNL     1       1.798  -0.790  -1.154  0.00  0.00    +0.002 C 
ATOM     19  C   UNL     1       3.302  -0.912  -1.407  0.00  0.00    +0.002 C 
ENDBRANCH  16  17
ENDBRANCH  14  16
BRANCH  14  20
ATOM     20  C   UNL     1       1.335  -5.312  -2.764  0.00  0.00    -0.044 C 
BRANCH  20  21
ATOM     21  C   UNL     1       2.710  -5.826  -3.198  0.00  0.00    +0.124 C 
BRANCH  21  22
ATOM     22  O   UNL     1       3.317  -6.534  -2.115  0.00  0.00    -0.391 OA
ATOM     23  H   UNL     1       2.809  -7.299  -1.811  0.00  0.00    +0.210 HD
ENDBRANCH  21  22
BRANCH  21  24
ATOM     24  C   UNL     1       2.549  -6.766  -4.395  0.00  0.00    +0.189 C 
BRANCH  24  25
ATOM     25  O   UNL     1       3.838  -7.154  -4.873  0.00  0.00    -0.373 OA
BRANCH  25  26
ATOM     26  C   UNL     1       3.800  -8.037  -5.996  0.00  0.00    +0.195 C 
BRANCH  26  27
ATOM     27  C   UNL     1       5.207  -8.379  -6.414  0.00  0.00    -0.022 A 
ATOM     28  C   UNL     1       5.864  -7.591  -7.341  0.00  0.00    +0.006 A 
ATOM     29  C   UNL     1       7.154  -7.905  -7.724  0.00  0.00    +0.000 A 
ATOM     30  C   UNL     1       7.789  -9.006  -7.180  0.00  0.00    +0.000 A 
ATOM     31  C   UNL     1       7.133  -9.793  -6.252  0.00  0.00    +0.000 A 
ATOM     32  C   UNL     1       5.844  -9.476  -5.865  0.00  0.00    +0.006 A 
ENDBRANCH  26  27
ENDBRANCH  25  26
ENDBRANCH  24  25
ENDBRANCH  21  24
ENDBRANCH  20  21
ENDBRANCH  14  20
ENDBRANCH  13  14
ENDBRANCH   4  13
BRANCH   3  33
ATOM     33  O   UNL     1      -1.491  -6.109  -2.494  0.00  0.00    -0.438 OA
BRANCH  33  34
ATOM     34  C   UNL     1      -2.613  -5.493  -2.953  0.00  0.00    +0.131 A 
ATOM     35  C   UNL     1      -3.391  -4.734  -2.091  0.00  0.00    +0.049 A 
ATOM     36  C   UNL     1      -4.530  -4.109  -2.559  0.00  0.00    +0.042 A 
ATOM     37  C   UNL     1      -4.895  -4.239  -3.888  0.00  0.00    +0.124 A 
ATOM     38  C   UNL     1      -4.120  -4.996  -4.750  0.00  0.00    +0.042 A 
ATOM     39  C   UNL     1      -2.977  -5.618  -4.286  0.00  0.00    +0.049 A 
ATOM     40  F   UNL     1      -6.010  -3.626  -4.345  0.00  0.00    -0.205 F 
ENDBRANCH  33  34
ENDBRANCH   3  33
TORSDOF 14
