REMARK  Name = ZINC59793169
REMARK  9 active torsions:
REMARK  status: ('A' for Active; 'I' for Inactive)
REMARK    1  A    between atoms: C_3  and  N_34
REMARK    2  A    between atoms: C_6  and  C_7
REMARK    3  A    between atoms: C_10  and  S_13
REMARK    4  A    between atoms: S_13  and  C_14
REMARK    5  A    between atoms: C_14  and  C_15
REMARK    6  A    between atoms: N_17  and  C_18
REMARK    7  A    between atoms: C_21  and  S_24
REMARK    8  A    between atoms: S_24  and  N_27
REMARK    9  A    between atoms: N_27  and  C_28
REMARK                            x       y       z     vdW  Elec       q    Type
REMARK                         _______ _______ _______ _____ _____    ______ ____
ROOT
ATOM      1  C   UNL     1      -0.107  -7.159  -0.621  0.00  0.00    +0.227 C 
ATOM      2  O   UNL     1       0.598  -7.983  -1.165  0.00  0.00    -0.275 OA
ATOM      3  N   UNL     1      -1.255  -7.542  -0.027  0.00  0.00    -0.285 N 
ATOM      4  H   UNL     1      -1.784  -6.895   0.466  0.00  0.00    +0.155 HD
ENDROOT
BRANCH   3   5
ATOM      5  C   UNL     1      -1.682  -8.871  -0.120  0.00  0.00    +0.034 A 
ATOM      6  C   UNL     1      -3.037  -9.162  -0.210  0.00  0.00    +0.025 A 
ATOM      7  C   UNL     1      -3.455 -10.475  -0.302  0.00  0.00    +0.030 A 
ATOM      8  C   UNL     1      -2.526 -11.499  -0.305  0.00  0.00    +0.105 A 
ATOM      9  C   UNL     1      -1.177 -11.213  -0.216  0.00  0.00    +0.030 A 
ATOM     10  C   UNL     1      -0.751  -9.902  -0.130  0.00  0.00    +0.025 A 
BRANCH   8  11
ATOM     11  S   UNL     1      -3.064 -13.173  -0.423  0.00  0.00    +0.059 S 
ATOM     12  O   UNL     1      -2.034 -13.971   0.144  0.00  0.00    -0.153 OA
ATOM     13  O   UNL     1      -4.402 -13.204   0.055  0.00  0.00    -0.153 OA
BRANCH  11  14
ATOM     14  N   UNL     1      -3.127 -13.555  -2.033  0.00  0.00    -0.187 NA
ATOM     15  H   UNL     1      -3.979 -13.760  -2.450  0.00  0.00    +0.148 HD
BRANCH  14  16
ATOM     16  C   UNL     1      -1.897 -13.583  -2.828  0.00  0.00    +0.077 C 
ATOM     17  C   UNL     1      -1.712 -12.236  -3.529  0.00  0.00    +0.020 C 
ATOM     18  C   UNL     1      -0.427 -12.265  -4.359  0.00  0.00    +0.002 C 
ATOM     19  C   UNL     1      -0.522 -13.377  -5.406  0.00  0.00    +0.000 C 
ATOM     20  C   UNL     1      -0.707 -14.724  -4.705  0.00  0.00    +0.002 C 
ATOM     21  C   UNL     1      -1.992 -14.694  -3.875  0.00  0.00    +0.020 C 
ENDBRANCH  14  16
ENDBRANCH  11  14
ENDBRANCH   8  11
ENDBRANCH   3   5
BRANCH   1  22
ATOM     22  C   UNL     1       0.300  -5.708  -0.610  0.00  0.00    +0.173 C 
BRANCH  22  23
ATOM     23  S   UNL     1       1.878  -5.516  -1.484  0.00  0.00    -0.077 S 
BRANCH  23  27
ATOM     24  C   UNL     1       2.022  -1.678  -0.916  0.00  0.00    +0.182 A 
ATOM     25  N   UNL     1       1.457  -2.888  -0.796  0.00  0.00    -0.201 NA
ATOM     26  H   UNL     1       4.025  -3.567  -2.387  0.00  0.00    +0.191 HD
ATOM     27  C   UNL     1       2.213  -3.789  -1.384  0.00  0.00    +0.185 A 
ATOM     28  N   UNL     1       3.293  -3.159  -1.897  0.00  0.00    -0.253 N 
ATOM     29  N   UNL     1       3.145  -1.798  -1.587  0.00  0.00    -0.152 NA
BRANCH  24  35
ATOM     30  C   UNL     1       2.152   0.788  -0.573  0.00  0.00    +0.014 A 
ATOM     31  C   UNL     1       1.631   1.965  -0.074  0.00  0.00    +0.033 A 
ATOM     32  C   UNL     1       0.431   1.956   0.613  0.00  0.00    +0.126 A 
ATOM     33  C   UNL     1      -0.254   0.770   0.805  0.00  0.00    +0.033 A 
ATOM     34  C   UNL     1       0.258  -0.413   0.311  0.00  0.00    +0.014 A 
ATOM     35  C   UNL     1       1.467  -0.410  -0.382  0.00  0.00    +0.021 A 
BRANCH  32  36
ATOM     36  N   UNL     1      -0.123   3.221   1.146  0.00  0.00    +0.056 N 
ATOM     37  O   UNL     1       0.473   4.260   0.980  0.00  0.00    -0.126 OA
ATOM     38  O   UNL     1      -1.172   3.216   1.748  0.00  0.00    -0.126 OA
ENDBRANCH  32  36
ENDBRANCH  24  35
ENDBRANCH  23  27
ENDBRANCH  22  23
ENDBRANCH   1  22
TORSDOF 9
