REMARK  Name = ZINC59226948
REMARK  7 active torsions:
REMARK  status: ('A' for Active; 'I' for Inactive)
REMARK    1  A    between atoms: C_1  and  C_2
REMARK    2  A    between atoms: C_2  and  O_3
REMARK    3  A    between atoms: O_3  and  C_4
REMARK    4  A    between atoms: C_9  and  C_10
REMARK    5  A    between atoms: C_16  and  N_27
REMARK    6  A    between atoms: N_20  and  C_21
REMARK    7  A    between atoms: N_27  and  C_28
REMARK                            x       y       z     vdW  Elec       q    Type
REMARK                         _______ _______ _______ _____ _____    ______ ____
ROOT
ATOM      1  C   UNL     1       1.221  -2.169  -3.705  0.00  0.00    +0.159 C 
ATOM      2  N   UNL     1       0.910  -0.936  -3.445  0.00  0.00    -0.168 NA
ATOM      3  N   UNL     1       1.778  -0.041  -4.089  0.00  0.00    -0.230 N 
ATOM      4  C   UNL     1       2.831  -0.860  -4.699  0.00  0.00    +0.277 C 
ATOM      5  N   UNL     1       2.302  -2.239  -4.561  0.00  0.00    -0.217 N 
ATOM      6  C   UNL     1       2.821  -3.277  -5.284  0.00  0.00    +0.218 C 
ATOM      7  N   UNL     1       3.367  -2.966  -6.456  0.00  0.00    -0.183 NA
ATOM      8  C   UNL     1       3.418  -1.701  -6.901  0.00  0.00    +0.221 C 
ATOM      9  N   UNL     1       2.928  -0.629  -6.151  0.00  0.00    -0.278 N 
ATOM     10  N   UNL     1       3.953  -1.457  -8.082  0.00  0.00    -0.215 NA
ATOM     11  H   UNL     1       1.698   0.925  -4.124  0.00  0.00    +0.172 HD
ATOM     12  H   UNL     1       2.663   0.212  -6.554  0.00  0.00    +0.152 HD
ENDROOT
BRANCH   1  18
ATOM     13  C   UNL     1      -0.055  -4.291  -4.012  0.00  0.00    +0.131 A 
ATOM     14  C   UNL     1      -0.710  -5.391  -3.484  0.00  0.00    +0.046 A 
ATOM     15  C   UNL     1      -0.806  -5.550  -2.114  0.00  0.00    +0.004 A 
ATOM     16  C   UNL     1      -0.248  -4.613  -1.261  0.00  0.00    +0.001 A 
ATOM     17  C   UNL     1       0.408  -3.512  -1.771  0.00  0.00    +0.015 A 
ATOM     18  C   UNL     1       0.515  -3.343  -3.152  0.00  0.00    +0.058 A 
BRANCH  13  19
ATOM     19  O   UNL     1       0.039  -4.134  -5.358  0.00  0.00    -0.492 OA
BRANCH  19  21
ATOM     20  C   UNL     1      -0.358  -4.796  -7.648  0.00  0.00    +0.048 C 
ATOM     21  C   UNL     1      -0.566  -5.141  -6.172  0.00  0.00    +0.226 C 
ENDBRANCH  19  21
ENDBRANCH  13  19
ENDBRANCH   1  18
BRANCH  10  22
ATOM     22  C   UNL     1       4.117  -0.167  -8.505  0.00  0.00    +0.067 A 
ATOM     23  C   UNL     1       4.774   0.760  -7.692  0.00  0.00    +0.028 A 
ATOM     24  C   UNL     1       4.935   2.060  -8.125  0.00  0.00    +0.002 A 
ATOM     25  C   UNL     1       4.448   2.446  -9.361  0.00  0.00    +0.000 A 
ATOM     26  C   UNL     1       3.796   1.533 -10.172  0.00  0.00    +0.002 A 
ATOM     27  C   UNL     1       3.632   0.229  -9.754  0.00  0.00    +0.028 A 
ENDBRANCH  10  22
BRANCH   6  28
ATOM     28  N   UNL     1       2.781  -4.567  -4.827  0.00  0.00    -0.182 NA
BRANCH  28  29
ATOM     29  C   UNL     1       3.299  -5.603  -5.610  0.00  0.00    +0.057 A 
ATOM     30  C   UNL     1       3.908  -6.695  -5.005  0.00  0.00    +0.025 A 
ATOM     31  C   UNL     1       4.418  -7.717  -5.782  0.00  0.00    +0.002 A 
ATOM     32  C   UNL     1       4.324  -7.654  -7.160  0.00  0.00    +0.000 A 
ATOM     33  C   UNL     1       3.717  -6.568  -7.765  0.00  0.00    +0.002 A 
ATOM     34  C   UNL     1       3.200  -5.546  -6.994  0.00  0.00    +0.025 A 
ENDBRANCH  28  29
ENDBRANCH   6  28
TORSDOF 6
