REMARK  Name = ZINC32854016
REMARK  10 active torsions:
REMARK  status: ('A' for Active; 'I' for Inactive)
REMARK    1  A    between atoms: C_1  and  C_2
REMARK    2  A    between atoms: C_2  and  O_3
REMARK    3  A    between atoms: O_3  and  C_4
REMARK    4  A    between atoms: C_9  and  N_10
REMARK    5  A    between atoms: N_10  and  C_11
REMARK    6  A    between atoms: C_11  and  C_13
REMARK    7  A    between atoms: C_11  and  C_14
REMARK    8  A    between atoms: N_16  and  C_17
REMARK    9  A    between atoms: C_22  and  C_23
REMARK   10  A    between atoms: C_26  and  C_29
REMARK                            x       y       z     vdW  Elec       q    Type
REMARK                         _______ _______ _______ _____ _____    ______ ____
ROOT
ATOM      1  N   UNL     1       4.138   2.202   4.815  0.00  0.00    -0.330 N 
ATOM      2  H   UNL     1       3.509   2.136   5.715  0.00  0.00    +0.147 HD
ENDROOT
BRANCH   1   8
ATOM      3  C   UNL     1       5.958   3.069   6.149  0.00  0.00    +0.142 A 
ATOM      4  C   UNL     1       7.262   3.529   6.239  0.00  0.00    +0.055 A 
ATOM      5  C   UNL     1       8.047   3.605   5.108  0.00  0.00    +0.001 A 
ATOM      6  C   UNL     1       7.550   3.226   3.867  0.00  0.00    +0.126 A 
ATOM      7  C   UNL     1       6.242   2.758   3.778  0.00  0.00    +0.072 A 
ATOM      8  C   UNL     1       5.452   2.675   4.912  0.00  0.00    +0.073 A 
ATOM      9  O   UNL     1       8.483   3.396   2.889  0.00  0.00    -0.488 OA
ATOM     10  C   UNL     1       9.787   3.483   3.489  0.00  0.00    +0.175 C 
ATOM     11  C   UNL     1       9.480   4.053   4.894  0.00  0.00    +0.083 C 
ATOM     12  C   UNL     1      10.683   4.441   2.700  0.00  0.00    +0.052 C 
BRANCH   3  13
ATOM     13  O   UNL     1       5.179   2.997   7.262  0.00  0.00    -0.490 OA
BRANCH  13  15
ATOM     14  C   UNL     1       4.749   3.265   9.625  0.00  0.00    +0.048 C 
ATOM     15  C   UNL     1       5.768   3.417   8.495  0.00  0.00    +0.226 C 
ENDBRANCH  13  15
ENDBRANCH   3  13
ENDBRANCH   1   8
BRANCH   1  16
ATOM     16  C   UNL     1       3.602   1.793   3.514  0.00  0.00    +0.154 C 
ATOM     17  C   UNL     1       3.991   0.340   3.236  0.00  0.00    +0.038 C 
BRANCH  16  18
ATOM     18  C   UNL     1       2.100   1.917   3.530  0.00  0.00    +0.237 C 
ATOM     19  O   UNL     1       1.533   2.308   4.529  0.00  0.00    -0.273 OA
ATOM     20  N   UNL     1       1.386   1.593   2.433  0.00  0.00    -0.284 N 
ATOM     21  H   UNL     1       1.891   1.169   1.553  0.00  0.00    +0.155 HD
BRANCH  20  22
ATOM     22  C   UNL     1       0.001   1.797   2.415  0.00  0.00    +0.038 A 
ATOM     23  C   UNL     1      -0.743   1.625   3.575  0.00  0.00    +0.023 A 
ATOM     24  C   UNL     1      -2.109   1.826   3.554  0.00  0.00    +0.003 A 
ATOM     25  C   UNL     1      -2.737   2.199   2.380  0.00  0.00    +0.020 A 
ATOM     26  C   UNL     1      -1.998   2.378   1.223  0.00  0.00    +0.046 A 
ATOM     27  C   UNL     1      -0.631   2.172   1.237  0.00  0.00    -0.011 A 
ATOM     28  C   UNL     1       0.173   2.360  -0.024  0.00  0.00    +0.047 C 
ATOM     29 CL   UNL     1      -2.788   2.854  -0.247  0.00  0.00    -0.083 Cl
ENDBRANCH  20  22
ENDBRANCH  16  18
ENDBRANCH   1  16
TORSDOF 6
