REMARK  Name = ZINC64886463
REMARK  7 active torsions:
REMARK  status: ('A' for Active; 'I' for Inactive)
REMARK    1  A    between atoms: C_4  and  C_8
REMARK    2  A    between atoms: C_9  and  C_10
REMARK    3  A    between atoms: N_12  and  N_13
REMARK    4  A    between atoms: N_16  and  C_17
REMARK    5  A    between atoms: C_17  and  C_18
REMARK    6  A    between atoms: C_18  and  C_19
REMARK    7  A    between atoms: C_19  and  N_20
REMARK                            x       y       z     vdW  Elec       q    Type
REMARK                         _______ _______ _______ _____ _____    ______ ____
ROOT
ATOM      1  N   UNL     1       6.240  -4.768  -0.087  0.00  0.00    -0.218 N 
ATOM      2  C   UNL     1       6.263  -6.115  -0.094  0.00  0.00    +0.316 C 
ATOM      3  O   UNL     1       7.326  -6.705  -0.108  0.00  0.00    -0.251 OA
ATOM      4  N   UNL     1       5.107  -6.808  -0.086  0.00  0.00    -0.298 N 
ATOM      5  H   UNL     1       7.072  -4.269  -0.092  0.00  0.00    +0.174 HD
ATOM      6  H   UNL     1       4.259  -6.337  -0.075  0.00  0.00    +0.150 HD
ENDROOT
BRANCH   1   9
ATOM      7  C   UNL     1       4.994  -2.740  -0.063  0.00  0.00    +0.253 C 
ATOM      8  O   UNL     1       6.037  -2.114  -0.070  0.00  0.00    -0.269 OA
ATOM      9  N   UNL     1       5.016  -4.087  -0.070  0.00  0.00    -0.230 N 
ATOM     10  H   UNL     1       4.184  -4.586  -0.064  0.00  0.00    +0.173 HD
BRANCH   7  12
ATOM     11  C   UNL     1       3.692  -0.681  -0.038  0.00  0.00    +0.014 C 
ATOM     12  C   UNL     1       3.714  -2.029  -0.046  0.00  0.00    +0.069 C 
BRANCH  11  16
ATOM     13  C   UNL     1      -0.017   1.381   0.010  0.00  0.00    +0.021 A 
ATOM     14  C   UNL     1       1.167   2.096   0.002  0.00  0.00    +0.022 A 
ATOM     15  C   UNL     1       2.378   1.433  -0.013  0.00  0.00    +0.048 A 
ATOM     16  C   UNL     1       2.406   0.034  -0.021  0.00  0.00    -0.005 A 
ATOM     17  C   UNL     1       1.204  -0.681  -0.013  0.00  0.00    +0.029 A 
ATOM     18  C   UNL     1       0.002  -0.004   0.002  0.00  0.00    +0.042 A 
ATOM     19 CL   UNL     1      -1.491  -0.890   0.011  0.00  0.00    -0.084 Cl
ATOM     20 CL   UNL     1       3.863   2.333  -0.024  0.00  0.00    -0.083 Cl
ENDBRANCH  11  16
ENDBRANCH   7  12
ENDBRANCH   1   9
BRANCH   4  21
ATOM     21  C   UNL     1       5.131  -8.273  -0.094  0.00  0.00    +0.107 C 
BRANCH  21  22
ATOM     22  C   UNL     1       3.697  -8.807  -0.082  0.00  0.00    +0.040 C 
BRANCH  22  23
ATOM     23  C   UNL     1       3.723 -10.337  -0.090  0.00  0.00    +0.124 C 
BRANCH  23  24
ATOM     24  N   UNL     1       2.350 -10.848  -0.079  0.00  0.00    -0.338 N 
ATOM     25  C   UNL     1       1.598 -11.131   1.029  0.00  0.00    +0.104 A 
ATOM     26  C   UNL     1       0.405 -11.573   0.588  0.00  0.00    +0.101 A 
ATOM     27  N   UNL     1       0.427 -11.560  -0.753  0.00  0.00    -0.352 N 
ATOM     28  C   UNL     1       1.587 -11.121  -1.160  0.00  0.00    +0.173 A 
ATOM     29  H   UNL     1      -0.304 -11.829  -1.330  0.00  0.00    +0.166 HD
ENDBRANCH  23  24
ENDBRANCH  22  23
ENDBRANCH  21  22
ENDBRANCH   4  21
TORSDOF 7
