REMARK  Name = ZINC20706371
REMARK  6 active torsions:
REMARK  status: ('A' for Active; 'I' for Inactive)
REMARK    1  A    between atoms: C_4  and  C_10
REMARK    2  A    between atoms: C_6  and  N_7
REMARK    3  A    between atoms: C_21  and  S_26
REMARK    4  A    between atoms: S_26  and  N_29
REMARK    5  A    between atoms: N_29  and  C_30
REMARK    6  A    between atoms: C_30  and  C_31
REMARK                            x       y       z     vdW  Elec       q    Type
REMARK                         _______ _______ _______ _____ _____    ______ ____
ROOT
ATOM      1  C   UNL     1       2.052  -1.593   0.247  0.00  0.00    +0.106 C 
ATOM      2  C   UNL     1       1.366  -0.297   0.641  0.00  0.00    +0.029 C 
ATOM      3  C   UNL     1       0.002  -0.004   0.002  0.00  0.00    +0.033 C 
ATOM      4  C   UNL     1      -0.019   1.526   0.010  0.00  0.00    -0.030 C 
ATOM      5  C   UNL     1       1.222   1.997   0.001  0.00  0.00    -0.023 C 
ATOM      6  C   UNL     1       2.165   0.849  -0.049  0.00  0.00    +0.049 C 
ATOM      7  C   UNL     1       3.512   0.892   0.552  0.00  0.00    -0.018 A 
ATOM      8  C   UNL     1       4.203   2.074   0.705  0.00  0.00    +0.034 A 
ATOM      9  C   UNL     1       5.469   2.075   1.260  0.00  0.00    +0.106 A 
ATOM     10  C   UNL     1       6.046   0.886   1.667  0.00  0.00    +0.030 A 
ATOM     11  C   UNL     1       5.359  -0.302   1.525  0.00  0.00    +0.025 A 
ATOM     12  C   UNL     1       4.084  -0.314   0.972  0.00  0.00    +0.031 A 
ATOM     13  N   UNL     1       3.401  -1.530   0.852  0.00  0.00    -0.336 N 
ATOM     14  H   UNL     1       3.884  -2.448   1.218  0.00  0.00    +0.147 HD
ENDROOT
BRANCH   1  18
ATOM     15  C   UNL     1       2.354  -1.873  -4.005  0.00  0.00    +0.034 A 
ATOM     16  C   UNL     1       1.164  -2.186  -3.376  0.00  0.00    +0.022 A 
ATOM     17  C   UNL     1       1.067  -2.101  -1.998  0.00  0.00    +0.046 A 
ATOM     18  C   UNL     1       2.158  -1.692  -1.253  0.00  0.00    -0.007 A 
ATOM     19  C   UNL     1       3.348  -1.379  -1.883  0.00  0.00    +0.039 A 
ATOM     20  C   UNL     1       3.445  -1.470  -3.259  0.00  0.00    +0.127 A 
ATOM     21 CL   UNL     1      -0.425  -2.501  -1.206  0.00  0.00    -0.083 Cl
BRANCH  20  22
ATOM     22  N   UNL     1       4.719  -1.134  -3.934  0.00  0.00    +0.056 N 
ATOM     23  O   UNL     1       5.681  -0.778  -3.277  0.00  0.00    -0.126 OA
ATOM     24  O   UNL     1       4.806  -1.214  -5.146  0.00  0.00    -0.126 OA
ENDBRANCH  20  22
ENDBRANCH   1  18
BRANCH   9  25
ATOM     25  S   UNL     1       6.347   3.591   1.451  0.00  0.00    +0.058 S 
ATOM     26  O   UNL     1       5.371   4.623   1.495  0.00  0.00    -0.153 OA
ATOM     27  O   UNL     1       7.289   3.387   2.495  0.00  0.00    -0.153 OA
BRANCH  25  28
ATOM     28  N   UNL     1       7.223   3.827   0.065  0.00  0.00    -0.187 NA
ATOM     29  H   UNL     1       8.309   3.657   0.080  0.00  0.00    +0.148 HD
BRANCH  28  30
ATOM     30  C   UNL     1       6.532   4.043  -1.210  0.00  0.00    +0.137 C 
BRANCH  30  31
ATOM     31  C   UNL     1       7.521   4.597  -2.237  0.00  0.00    +0.134 C 
ATOM     32  C   UNL     1       6.796   4.914  -3.564  0.00  0.00    +0.035 C 
ATOM     33  C   UNL     1       7.818   4.520  -4.654  0.00  0.00    +0.031 C 
ATOM     34  C   UNL     1       9.040   4.012  -3.857  0.00  0.00    +0.160 C 
ATOM     35  O   UNL     1       8.503   3.595  -2.581  0.00  0.00    -0.375 OA
ENDBRANCH  30  31
ENDBRANCH  28  30
ENDBRANCH  25  28
ENDBRANCH   9  25
TORSDOF 6
