REMARK  Name = ZINC00971433
REMARK  9 active torsions:
REMARK  status: ('A' for Active; 'I' for Inactive)
REMARK    1  A    between atoms: C_1  and  C_2
REMARK    2  A    between atoms: C_2  and  C_3
REMARK    3  A    between atoms: C_2  and  C_4
REMARK    4  A    between atoms: C_7  and  C_10
REMARK    5  A    between atoms: C_13  and  C_24
REMARK    6  A    between atoms: C_19  and  N_23
REMARK    7  A    between atoms: C_20  and  C_21
REMARK    8  A    between atoms: C_24  and  C_25
REMARK    9  A    between atoms: C_24  and  C_26
REMARK                            x       y       z     vdW  Elec       q    Type
REMARK                         _______ _______ _______ _____ _____    ______ ____
ROOT
ATOM      1  C   UNL     1      -5.419  -2.005   0.043  0.00  0.00    +0.101 C 
ATOM      2  C   UNL     1      -5.405  -3.512   0.025  0.00  0.00    +0.049 A 
ATOM      3  C   UNL     1      -5.069  -4.376   0.995  0.00  0.00    +0.046 A 
ATOM      4  N   UNL     1      -5.216  -5.627   0.498  0.00  0.00    -0.278 N 
ATOM      5  H   UNL     1      -5.044  -6.453   0.976  0.00  0.00    +0.189 HD
ATOM      6  N   UNL     1      -5.660  -5.519  -0.829  0.00  0.00    -0.135 NA
ATOM      7  C   UNL     1      -5.775  -4.255  -1.117  0.00  0.00    +0.245 A 
ATOM      8  O   UNL     1      -6.172  -3.655  -2.271  0.00  0.00    -0.421 OA
ATOM      9  C   UNL     1      -6.462  -2.340  -2.218  0.00  0.00    +0.201 C 
ATOM     10  C   UNL     1      -6.148  -1.526  -1.187  0.00  0.00    +0.098 C 
ENDROOT
BRANCH   1  14
ATOM     11  C   UNL     1      -1.412  -0.526   0.013  0.00  0.00    -0.045 A 
ATOM     12  C   UNL     1      -2.259  -0.204   1.056  0.00  0.00    +0.004 A 
ATOM     13  C   UNL     1      -3.556  -0.683   1.066  0.00  0.00    +0.005 A 
ATOM     14  C   UNL     1      -4.006  -1.482   0.032  0.00  0.00    -0.035 A 
ATOM     15  C   UNL     1      -3.159  -1.803  -1.012  0.00  0.00    +0.005 A 
ATOM     16  C   UNL     1      -1.863  -1.321  -1.024  0.00  0.00    +0.004 A 
BRANCH  11  18
ATOM     17  C   UNL     1      -0.019   1.526   0.010  0.00  0.00    +0.012 C 
ATOM     18  C   UNL     1       0.002  -0.004   0.002  0.00  0.00    +0.013 C 
ATOM     19  C   UNL     1       0.742  -0.511   1.242  0.00  0.00    +0.012 C 
ENDBRANCH  11  18
ENDBRANCH   1  14
BRANCH   9  20
ATOM     20  N   UNL     1      -7.123  -1.788  -3.287  0.00  0.00    -0.328 N 
ATOM     21  H   UNL     1      -7.365  -2.342  -4.046  0.00  0.00    +0.145 HD
ATOM     22  H   UNL     1      -7.349  -0.845  -3.284  0.00  0.00    +0.145 HD
ENDBRANCH   9  20
BRANCH   3  23
ATOM     23  C   UNL     1      -4.611  -4.020   2.385  0.00  0.00    +0.031 C 
ATOM     24  C   UNL     1      -5.578  -4.617   3.409  0.00  0.00    +0.014 C 
ATOM     25  C   UNL     1      -3.208  -4.582   2.620  0.00  0.00    +0.014 C 
ENDBRANCH   3  23
BRANCH  10  26
ATOM     26  C   UNL     1      -6.525  -0.147  -1.264  0.00  0.00    +0.101 C 
ATOM     27  N   UNL     1      -6.824   0.947  -1.325  0.00  0.00    -0.191 NA
ENDBRANCH  10  26
TORSDOF 5
