REMARK  Name = ZINC44737544
REMARK  10 active torsions:
REMARK  status: ('A' for Active; 'I' for Inactive)
REMARK    1  A    between atoms: C_1  and  C_2
REMARK    2  A    between atoms: C_9  and  C_11
REMARK    3  A    between atoms: C_11  and  C_13
REMARK    4  A    between atoms: C_11  and  N_14
REMARK    5  A    between atoms: C_15  and  C_17
REMARK    6  A    between atoms: C_28  and  C_30
REMARK    7  A    between atoms: C_30  and  C_31
REMARK    8  A    between atoms: C_31  and  C_32
REMARK    9  A    between atoms: C_35  and  O_38
REMARK   10  A    between atoms: O_38  and  C_39
REMARK                            x       y       z     vdW  Elec       q    Type
REMARK                         _______ _______ _______ _____ _____    ______ ____
ROOT
ATOM      1  C   UNL     1      -1.623  -8.782   1.003  0.00  0.00    +0.100 C 
ATOM      2  C   UNL     1      -0.558  -9.300   0.011  0.00  0.00    +0.121 C 
ATOM      3  N   UNL     1      -0.007 -10.516   0.656  0.00  0.00    -0.300 N 
ATOM      4  C   UNL     1      -1.187 -11.177   1.265  0.00  0.00    +0.115 C 
ATOM      5  C   UNL     1      -2.036 -10.017   1.821  0.00  0.00    -0.004 C 
ATOM      6  C   UNL     1      -3.521 -10.308   1.626  0.00  0.00    -0.010 C 
ATOM      7  C   UNL     1      -3.920 -11.504   2.495  0.00  0.00    -0.082 C 
ATOM      8  N   UNL     1      -3.642 -11.203   3.904  0.00  0.00    +0.379 N 
ATOM      9  C   UNL     1      -2.199 -11.015   4.100  0.00  0.00    -0.082 C 
ATOM     10  C   UNL     1      -1.727  -9.798   3.299  0.00  0.00    -0.010 C 
ATOM     11  C   UNL     1       1.276 -10.928   0.682  0.00  0.00    +0.216 C 
ATOM     12  O   UNL     1       1.571 -11.955   1.255  0.00  0.00    -0.276 OA
ATOM     13  H   UNL     1      -4.128 -10.359   4.168  0.00  0.00    -0.086 HD
ATOM     14  H   UNL     1      -3.962 -11.967   4.480  0.00  0.00    -0.086 HD
ENDROOT
BRANCH   1  16
ATOM     15  N   UNL     1      -1.820  -6.765   2.421  0.00  0.00    -0.305 N 
ATOM     16  C   UNL     1      -1.032  -7.728   1.904  0.00  0.00    +0.219 C 
ATOM     17  O   UNL     1       0.152  -7.748   2.164  0.00  0.00    -0.275 OA
ATOM     18  H   UNL     1      -2.768  -6.749   2.213  0.00  0.00    +0.149 HD
BRANCH  15  19
ATOM     19  C   UNL     1      -1.246  -5.741   3.298  0.00  0.00    +0.136 C 
ATOM     20  C   UNL     1      -0.668  -4.608   2.447  0.00  0.00    +0.036 C 
BRANCH  19  29
ATOM     21  C   UNL     1      -5.539  -2.734   8.581  0.00  0.00    +0.044 C 
ATOM     22  C   UNL     1      -5.086  -3.401   7.308  0.00  0.00    -0.048 A 
ATOM     23  C   UNL     1      -6.023  -3.775   6.354  0.00  0.00    +0.005 A 
ATOM     24  C   UNL     1      -5.633  -4.380   5.194  0.00  0.00    +0.030 A 
ATOM     25  C   UNL     1      -4.277  -4.629   4.960  0.00  0.00    +0.089 A 
ATOM     26  C   UNL     1      -3.329  -4.251   5.925  0.00  0.00    +0.067 A 
ATOM     27  C   UNL     1      -3.744  -3.632   7.096  0.00  0.00    +0.031 A 
ATOM     28  N   UNL     1      -2.100  -4.621   5.416  0.00  0.00    -0.340 N 
ATOM     29  C   UNL     1      -2.320  -5.193   4.202  0.00  0.00    +0.128 A 
ATOM     30  N   UNL     1      -3.593  -5.198   3.934  0.00  0.00    -0.231 NA
ATOM     31  H   UNL     1      -1.239  -4.496   5.845  0.00  0.00    +0.167 HD
ENDBRANCH  19  29
ENDBRANCH  15  19
ENDBRANCH   1  16
BRANCH  11  32
ATOM     32  C   UNL     1       2.343 -10.113  -0.002  0.00  0.00    +0.100 C 
BRANCH  32  33
ATOM     33  C   UNL     1       3.700 -10.797   0.176  0.00  0.00    +0.044 C 
BRANCH  33  34
ATOM     34  C   UNL     1       4.767  -9.982  -0.508  0.00  0.00    -0.047 A 
ATOM     35  C   UNL     1       5.074 -10.222  -1.834  0.00  0.00    +0.007 A 
ATOM     36  C   UNL     1       6.052  -9.476  -2.463  0.00  0.00    +0.046 A 
ATOM     37  C   UNL     1       6.726  -8.486  -1.763  0.00  0.00    +0.120 A 
ATOM     38  C   UNL     1       6.416  -8.248  -0.432  0.00  0.00    +0.046 A 
ATOM     39  C   UNL     1       5.433  -8.993   0.191  0.00  0.00    +0.007 A 
BRANCH  37  40
ATOM     40  O   UNL     1       7.689  -7.752  -2.380  0.00  0.00    -0.495 OA
ATOM     41  C   UNL     1       8.342  -6.750  -1.597  0.00  0.00    +0.277 C 
ENDBRANCH  37  40
ENDBRANCH  33  34
ENDBRANCH  32  33
ENDBRANCH  11  32
TORSDOF 7
