REMARK  Name = ZINC04455949
REMARK  6 active torsions:
REMARK  status: ('A' for Active; 'I' for Inactive)
REMARK    1  A    between atoms: C_1  and  C_2
REMARK    2  A    between atoms: C_5  and  N_9
REMARK    3  A    between atoms: C_6  and  C_8
REMARK    4  A    between atoms: N_9  and  C_10
REMARK    5  A    between atoms: C_10  and  N_11
REMARK    6  A    between atoms: C_15  and  C_16
REMARK                            x       y       z     vdW  Elec       q    Type
REMARK                         _______ _______ _______ _____ _____    ______ ____
ROOT
ATOM      1  N   UNL     1       4.503   4.724   0.551  0.00  0.00    -0.212 N 
ATOM      2  C   UNL     1       3.549   3.812   0.627  0.00  0.00    +0.262 C 
ATOM      3  O   UNL     1       3.789   2.624   0.515  0.00  0.00    -0.269 OA
ATOM      4  C   UNL     1       2.175   4.309   0.850  0.00  0.00    +0.080 C 
ATOM      5  C   UNL     1       1.014   3.618   0.965  0.00  0.00    +0.028 C 
ATOM      6  S   UNL     1       2.467   6.071   0.935  0.00  0.00    -0.026 S 
ATOM      7  C   UNL     1       4.234   6.039   0.683  0.00  0.00    +0.287 C 
ATOM      8  O   UNL     1       5.008   6.976   0.642  0.00  0.00    -0.262 OA
ENDROOT
BRANCH   5   9
ATOM      9  C   UNL     1       0.987   2.175   0.689  0.00  0.00    -0.024 A 
ATOM     10  C   UNL     1       0.268   1.313   1.524  0.00  0.00    +0.011 A 
ATOM     11  C   UNL     1       0.247  -0.039   1.259  0.00  0.00    +0.039 A 
ATOM     12  C   UNL     1       0.935  -0.545   0.167  0.00  0.00    +0.123 A 
ATOM     13  C   UNL     1       1.649   0.303  -0.666  0.00  0.00    +0.039 A 
ATOM     14  C   UNL     1       1.679   1.657  -0.412  0.00  0.00    +0.011 A 
ATOM     15  F   UNL     1       0.909  -1.872  -0.088  0.00  0.00    -0.205 F 
ENDBRANCH   5   9
BRANCH   1  16
ATOM     16  C   UNL     1       5.886   4.296   0.325  0.00  0.00    +0.222 C 
BRANCH  16  17
ATOM     17  N   UNL     1       6.473   3.850   1.592  0.00  0.00    -0.328 N 
ATOM     18  H   UNL     1       6.360   2.932   1.882  0.00  0.00    +0.148 HD
BRANCH  17  23
ATOM     19  C   UNL     1       9.400   7.499   4.798  0.00  0.00    +0.044 C 
ATOM     20  C   UNL     1       8.622   6.529   3.946  0.00  0.00    -0.050 A 
ATOM     21  C   UNL     1       8.170   6.917   2.697  0.00  0.00    +0.005 A 
ATOM     22  C   UNL     1       7.457   6.031   1.914  0.00  0.00    +0.023 A 
ATOM     23  C   UNL     1       7.194   4.749   2.381  0.00  0.00    +0.031 A 
ATOM     24  C   UNL     1       7.645   4.365   3.637  0.00  0.00    -0.029 A 
ATOM     25  C   UNL     1       8.362   5.254   4.414  0.00  0.00    +0.008 A 
ATOM     26  C   UNL     1       7.357   2.978   4.151  0.00  0.00    +0.045 C 
ENDBRANCH  17  23
ENDBRANCH  16  17
ENDBRANCH   1  16
TORSDOF 4
