REMARK  Name = ZINC02084055
REMARK  8 active torsions:
REMARK  status: ('A' for Active; 'I' for Inactive)
REMARK    1  A    between atoms: C_1  and  C_2
REMARK    2  A    between atoms: C_2  and  C_3
REMARK    3  A    between atoms: C_8  and  N_9
REMARK    4  A    between atoms: N_11  and  C_24
REMARK    5  A    between atoms: C_15  and  C_16
REMARK    6  A    between atoms: C_20  and  O_22
REMARK    7  A    between atoms: C_29  and  C_30
REMARK    8  A    between atoms: C_30  and  C_31
REMARK                            x       y       z     vdW  Elec       q    Type
REMARK                         _______ _______ _______ _____ _____    ______ ____
ROOT
ATOM      1  N   UNL     1       1.161  -2.162  -0.820  0.00  0.00    -0.225 NA
ATOM      2  C   UNL     1       0.051  -2.816  -0.563  0.00  0.00    +0.173 C 
ATOM      3  N   UNL     1      -0.165  -4.179  -0.581  0.00  0.00    -0.214 N 
ATOM      4  C   UNL     1      -1.357  -4.675  -0.292  0.00  0.00    +0.263 C 
ATOM      5  O   UNL     1      -1.567  -5.873  -0.303  0.00  0.00    -0.269 OA
ATOM      6  C   UNL     1      -2.421  -3.708   0.043  0.00  0.00    +0.078 C 
ATOM      7  C   UNL     1      -3.716  -3.934   0.374  0.00  0.00    +0.028 C 
ATOM      8  S   UNL     1      -1.542  -2.158  -0.097  0.00  0.00    -0.048 S 
ENDROOT
BRANCH   1  14
ATOM      9  C   UNL     1       2.211  -0.190   0.047  0.00  0.00    -0.022 A 
ATOM     10  C   UNL     1       2.241   1.184   0.168  0.00  0.00    +0.006 A 
ATOM     11  C   UNL     1       1.270   1.957  -0.444  0.00  0.00    +0.000 A 
ATOM     12  C   UNL     1       0.264   1.359  -1.182  0.00  0.00    +0.002 A 
ATOM     13  C   UNL     1       0.221  -0.013  -1.312  0.00  0.00    +0.028 A 
ATOM     14  C   UNL     1       1.198  -0.800  -0.696  0.00  0.00    +0.070 A 
BRANCH   9  16
ATOM     15  C   UNL     1       4.386  -1.333  -0.285  0.00  0.00    +0.009 C 
ATOM     16  C   UNL     1       3.268  -1.030   0.715  0.00  0.00    +0.034 C 
ENDBRANCH   9  16
ENDBRANCH   1  14
BRANCH   7  17
ATOM     17  C   UNL     1      -4.186  -5.308   0.609  0.00  0.00    -0.020 A 
ATOM     18  C   UNL     1      -3.353  -6.236   1.244  0.00  0.00    +0.008 A 
ATOM     19  C   UNL     1      -3.798  -7.523   1.462  0.00  0.00    +0.004 A 
ATOM     20  C   UNL     1      -5.065  -7.901   1.054  0.00  0.00    +0.045 A 
ATOM     21  C   UNL     1      -5.899  -6.987   0.422  0.00  0.00    +0.117 A 
ATOM     22  C   UNL     1      -5.468  -5.691   0.203  0.00  0.00    +0.053 A 
BRANCH  21  23
ATOM     23  O   UNL     1      -7.143  -7.366   0.025  0.00  0.00    -0.507 OA
ATOM     24  H   UNL     1      -7.828  -7.230   0.694  0.00  0.00    +0.292 HD
ENDBRANCH  21  23
ENDBRANCH   7  17
BRANCH   3  25
ATOM     25  C   UNL     1       0.886  -5.045  -0.908  0.00  0.00    +0.047 A 
ATOM     26  C   UNL     1       1.717  -5.539   0.090  0.00  0.00    +0.024 A 
ATOM     27  C   UNL     1       2.752  -6.392  -0.236  0.00  0.00    +0.002 A 
ATOM     28  C   UNL     1       2.964  -6.754  -1.554  0.00  0.00    +0.000 A 
ATOM     29  C   UNL     1       2.139  -6.264  -2.549  0.00  0.00    +0.005 A 
ATOM     30  C   UNL     1       1.097  -5.415  -2.229  0.00  0.00    -0.026 A 
BRANCH  30  31
ATOM     31  C   UNL     1       0.195  -4.886  -3.314  0.00  0.00    +0.033 C 
ATOM     32  C   UNL     1       0.697  -3.515  -3.772  0.00  0.00    +0.009 C 
ENDBRANCH  30  31
ENDBRANCH   3  25
TORSDOF 6
