REMARK  Name = ZINC42029580
REMARK  4 active torsions:
REMARK  status: ('A' for Active; 'I' for Inactive)
REMARK    1  A    between atoms: C_1  and  C_2
REMARK    2  A    between atoms: C_6  and  N_21
REMARK    3  A    between atoms: C_7  and  C_8
REMARK    4  A    between atoms: N_12  and  C_13
REMARK                            x       y       z     vdW  Elec       q    Type
REMARK                         _______ _______ _______ _____ _____    ______ ____
ROOT
ATOM      1  C   UNL     1       0.032  -0.041   2.433  0.00  0.00    +0.189 A 
ATOM      2  N   UNL     1      -0.229   1.243   2.572  0.00  0.00    -0.108 NA
ATOM      3  N   UNL     1      -0.402   1.536   3.810  0.00  0.00    -0.022 NA
ATOM      4  N   UNL     1      -0.269   0.487   4.547  0.00  0.00    -0.039 NA
ATOM      5  N   UNL     1       0.014  -0.586   3.684  0.00  0.00    -0.190 N 
ENDROOT
BRANCH   5   6
ATOM      6  C   UNL     1       0.232  -1.926   4.034  0.00  0.00    +0.107 A 
ATOM      7  C   UNL     1      -0.410  -2.940   3.336  0.00  0.00    +0.031 A 
ATOM      8  C   UNL     1      -0.195  -4.260   3.681  0.00  0.00    +0.005 A 
ATOM      9  C   UNL     1       0.660  -4.575   4.722  0.00  0.00    +0.041 A 
ATOM     10  C   UNL     1       1.303  -3.568   5.421  0.00  0.00    +0.161 A 
ATOM     11  C   UNL     1       1.096  -2.243   5.075  0.00  0.00    +0.184 A 
ATOM     12  F   UNL     1       1.727  -1.259   5.753  0.00  0.00    -0.200 F 
ATOM     13  F   UNL     1       2.137  -3.878   6.438  0.00  0.00    -0.202 F 
ENDBRANCH   5   6
BRANCH   1  20
ATOM     14  C   UNL     1      -1.909   0.098   0.294  0.00  0.00    +0.044 C 
ATOM     15  C   UNL     1      -0.639  -0.696   0.127  0.00  0.00    -0.038 A 
ATOM     16  C   UNL     1      -0.391  -1.360  -1.057  0.00  0.00    +0.004 A 
ATOM     17  C   UNL     1       0.774  -2.091  -1.217  0.00  0.00    +0.002 A 
ATOM     18  C   UNL     1       1.700  -2.163  -0.195  0.00  0.00    +0.023 A 
ATOM     19  C   UNL     1       1.466  -1.501   1.002  0.00  0.00    +0.036 A 
ATOM     20  C   UNL     1       0.289  -0.755   1.166  0.00  0.00    +0.045 A 
BRANCH  19  21
ATOM     21  N   UNL     1       2.397  -1.573   2.035  0.00  0.00    -0.357 N 
ATOM     22  H   UNL     1       3.162  -2.165   1.959  0.00  0.00    +0.142 HD
ATOM     23  H   UNL     1       2.282  -1.030   2.831  0.00  0.00    +0.142 HD
ENDBRANCH  19  21
ENDBRANCH   1  20
TORSDOF 3
