REMARK  Name = ZINC12885345
REMARK  7 active torsions:
REMARK  status: ('A' for Active; 'I' for Inactive)
REMARK    1  A    between atoms: C_1  and  C_2
REMARK    2  A    between atoms: C_4  and  C_38
REMARK    3  A    between atoms: C_13  and  C_15
REMARK    4  A    between atoms: C_15  and  C_16
REMARK    5  A    between atoms: C_16  and  C_17
REMARK    6  A    between atoms: N_22  and  C_25
REMARK    7  A    between atoms: C_25  and  C_26
REMARK                            x       y       z     vdW  Elec       q    Type
REMARK                         _______ _______ _______ _____ _____    ______ ____
ROOT
ATOM      1  C   UNL     1      -4.598  -3.565   1.304  0.00  0.00    +0.044 C 
ATOM      2  C   UNL     1      -4.069  -4.110   0.002  0.00  0.00    -0.050 A 
ATOM      3  C   UNL     1      -3.793  -5.459  -0.124  0.00  0.00    +0.008 A 
ATOM      4  C   UNL     1      -3.310  -5.963  -1.313  0.00  0.00    -0.029 A 
ATOM      5  C   UNL     1      -3.095  -5.116  -2.398  0.00  0.00    +0.039 A 
ATOM      6  C   UNL     1      -3.376  -3.760  -2.260  0.00  0.00    -0.027 A 
ATOM      7  C   UNL     1      -3.859  -3.261  -1.070  0.00  0.00    +0.008 A 
ATOM      8  C   UNL     1      -3.044  -3.135  -3.585  0.00  0.00    +0.050 C 
ATOM      9  C   UNL     1      -1.976  -2.045  -3.442  0.00  0.00    +0.088 C 
ATOM     10  C   UNL     1      -2.775  -0.712  -3.425  0.00  0.00    +0.073 C 
ATOM     11  C   UNL     1      -4.255  -1.137  -3.533  0.00  0.00    -0.057 C 
ATOM     12  C   UNL     1      -2.520  -0.170  -2.036  0.00  0.00    +0.224 C 
ATOM     13  O   UNL     1      -2.963   0.869  -1.598  0.00  0.00    -0.275 OA
ATOM     14  N   UNL     1      -1.727  -1.016  -1.368  0.00  0.00    -0.237 N 
ATOM     15  C   UNL     1      -1.366  -2.103  -2.060  0.00  0.00    +0.225 C 
ATOM     16  O   UNL     1      -0.660  -2.996  -1.643  0.00  0.00    -0.275 OA
ATOM     17  C   UNL     1      -2.559  -4.271  -4.443  0.00  0.00    +0.211 C 
ATOM     18  O   UNL     1      -2.186  -4.201  -5.595  0.00  0.00    -0.277 OA
ATOM     19  N   UNL     1      -2.620  -5.382  -3.683  0.00  0.00    -0.286 N 
ATOM     20  C   UNL     1      -3.013  -7.435  -1.439  0.00  0.00    +0.045 C 
ATOM     21  H   UNL     1      -2.363  -6.265  -3.994  0.00  0.00    +0.155 HD
ATOM     22  N   UNL     1      -4.197  -2.461  -4.156  0.00  0.00    +0.394 N 
ATOM     23  H   UNL     1      -5.054  -2.988  -3.950  0.00  0.00    -0.083 HD
ATOM     24  H   UNL     1      -4.087  -2.370  -5.173  0.00  0.00    -0.083 HD
ENDROOT
BRANCH  11  25
ATOM     25  C   UNL     1      -5.032  -0.145  -4.401  0.00  0.00    -0.006 C 
BRANCH  25  26
ATOM     26  C   UNL     1      -6.503  -0.559  -4.456  0.00  0.00    +0.094 C 
BRANCH  26  27
ATOM     27  C   UNL     1      -7.269   0.418  -5.311  0.00  0.00    +0.210 C 
ATOM     28  O   UNL     1      -6.694   1.354  -5.825  0.00  0.00    -0.276 OA
ATOM     29  N   UNL     1      -8.592   0.252  -5.503  0.00  0.00    -0.329 N 
ATOM     30  H   UNL     1      -9.052  -0.496  -5.092  0.00  0.00    +0.145 HD
ATOM     31  H   UNL     1      -9.085   0.881  -6.054  0.00  0.00    +0.145 HD
ENDBRANCH  26  27
ENDBRANCH  25  26
ENDBRANCH  11  25
BRANCH  14  32
ATOM     32  C   UNL     1      -1.294  -0.774   0.010  0.00  0.00    +0.151 C 
BRANCH  32  33
ATOM     33  C   UNL     1       0.002  -0.004   0.002  0.00  0.00    -0.026 A 
ATOM     34  C   UNL     1       1.207  -0.682  -0.014  0.00  0.00    +0.009 A 
ATOM     35  C   UNL     1       2.398   0.019  -0.021  0.00  0.00    +0.050 A 
ATOM     36  C   UNL     1       2.387   1.405  -0.012  0.00  0.00    +0.166 A 
ATOM     37  C   UNL     1       1.173   2.088   0.002  0.00  0.00    +0.167 A 
ATOM     38  C   UNL     1      -0.017   1.378   0.010  0.00  0.00    +0.054 A 
ATOM     39  O   UNL     1       1.427   3.429   0.008  0.00  0.00    -0.453 OA
ATOM     40  C   UNL     1       2.804   3.558   0.408  0.00  0.00    +0.466 C 
ATOM     41  O   UNL     1       3.401   2.318  -0.017  0.00  0.00    -0.453 OA
ENDBRANCH  32  33
ENDBRANCH  14  32
TORSDOF 5
