REMARK  Name = ZINC53360445
REMARK  6 active torsions:
REMARK  status: ('A' for Active; 'I' for Inactive)
REMARK    1  A    between atoms: C_1  and  C_2
REMARK    2  A    between atoms: C_2  and  O_3
REMARK    3  A    between atoms: O_3  and  C_4
REMARK    4  A    between atoms: C_9  and  O_10
REMARK    5  A    between atoms: O_10  and  C_11
REMARK    6  A    between atoms: C_11  and  C_12
REMARK                            x       y       z     vdW  Elec       q    Type
REMARK                         _______ _______ _______ _____ _____    ______ ____
ROOT
ATOM      1  C   UNL     1       3.191  -1.077   5.376  0.00  0.00    +0.254 C 
ATOM      2  O   UNL     1       3.017   0.094   5.114  0.00  0.00    -0.272 OA
ATOM      3  N   UNL     1       3.857  -1.425   6.495  0.00  0.00    -0.294 N 
ATOM      4  C   UNL     1       4.086  -2.838   6.830  0.00  0.00    +0.114 C 
ATOM      5  C   UNL     1       5.592  -3.122   6.803  0.00  0.00    +0.072 C 
ATOM      6  C   UNL     1       6.314  -2.019   7.539  0.00  0.00    +0.023 A 
ATOM      7  C   UNL     1       5.776  -0.809   7.808  0.00  0.00    -0.002 A 
ATOM      8  C   UNL     1       6.778  -0.042   8.517  0.00  0.00    +0.006 A 
ATOM      9  C   UNL     1       6.788   1.256   9.037  0.00  0.00    +0.030 A 
ATOM     10  C   UNL     1       7.940   1.665   9.664  0.00  0.00    +0.042 A 
ATOM     11  C   UNL     1       9.047   0.839   9.782  0.00  0.00    +0.022 A 
ATOM     12  C   UNL     1       9.064  -0.449   9.276  0.00  0.00    +0.027 A 
ATOM     13  C   UNL     1       7.909  -0.891   8.634  0.00  0.00    +0.047 A 
ATOM     14  N   UNL     1       7.591  -2.075   8.034  0.00  0.00    -0.358 N 
ATOM     15  H   UNL     1       8.182  -2.842   7.968  0.00  0.00    +0.166 HD
ATOM     16 CL   UNL     1       8.011   3.266  10.331  0.00  0.00    -0.084 Cl
ATOM     17  C   UNL     1       4.382  -0.399   7.414  0.00  0.00    +0.145 C 
ENDROOT
BRANCH   1  18
ATOM     18  C   UNL     1       2.664  -2.143   4.451  0.00  0.00    +0.325 C 
BRANCH  18  19
ATOM     19  O   UNL     1       2.000  -1.528   3.345  0.00  0.00    -0.479 OA
BRANCH  19  25
ATOM     20  C   UNL     1       0.802  -1.825   1.306  0.00  0.00    +0.162 A 
ATOM     21  C   UNL     1       0.261  -2.673   0.353  0.00  0.00    +0.049 A 
ATOM     22  C   UNL     1       0.372  -4.043   0.502  0.00  0.00    +0.004 A 
ATOM     23  C   UNL     1       1.024  -4.570   1.602  0.00  0.00    +0.004 A 
ATOM     24  C   UNL     1       1.566  -3.730   2.557  0.00  0.00    +0.049 A 
ATOM     25  C   UNL     1       1.462  -2.356   2.410  0.00  0.00    +0.163 A 
BRANCH  20  26
ATOM     26  O   UNL     1       0.693  -0.477   1.160  0.00  0.00    -0.489 OA
BRANCH  26  28
ATOM     27  C   UNL     1      -0.019   1.526   0.010  0.00  0.00    +0.048 C 
ATOM     28  C   UNL     1       0.002  -0.004   0.002  0.00  0.00    +0.226 C 
ENDBRANCH  26  28
ENDBRANCH  20  26
ENDBRANCH  19  25
ENDBRANCH  18  19
ENDBRANCH   1  18
TORSDOF 5
