REMARK  Name = ZINC43264829
REMARK  7 active torsions:
REMARK  status: ('A' for Active; 'I' for Inactive)
REMARK    1  A    between atoms: C_1  and  C_2
REMARK    2  A    between atoms: C_4  and  O_9
REMARK    3  A    between atoms: O_9  and  C_10
REMARK    4  A    between atoms: C_10  and  C_12
REMARK    5  A    between atoms: C_10  and  C_18
REMARK    6  A    between atoms: C_18  and  C_20
REMARK    7  A    between atoms: C_18  and  N_21
REMARK                            x       y       z     vdW  Elec       q    Type
REMARK                         _______ _______ _______ _____ _____    ______ ____
ROOT
ATOM      1  C   UNL     1       0.158  -4.171  -2.320  0.00  0.00    +0.196 C 
ENDROOT
BRANCH   1   2
ATOM      2  C   UNL     1       0.964  -4.656  -3.498  0.00  0.00    +0.029 A 
ATOM      3  C   UNL     1       1.844  -5.684  -3.564  0.00  0.00    +0.016 A 
ATOM      4  C   UNL     1       2.475  -5.951  -4.765  0.00  0.00    +0.023 A 
ATOM      5  C   UNL     1       2.194  -5.175  -5.841  0.00  0.00    +0.055 A 
ATOM      6  S   UNL     1       1.000  -4.030  -5.169  0.00  0.00    -0.083 S 
ATOM      7 BR   UNL     1       2.883  -5.282  -7.599  0.00  0.00    -0.043 Br
ENDBRANCH   1   2
BRANCH   1   8
ATOM      8  C   UNL     1      -1.230  -4.812  -2.353  0.00  0.00    -0.032 C 
ATOM      9  C   UNL     1      -2.048  -4.320  -1.157  0.00  0.00    -0.010 C 
BRANCH   8  10
ATOM     10  N   UNL     1      -1.096  -6.274  -2.285  0.00  0.00    +0.382 N 
ATOM     11  H   UNL     1      -0.627  -6.529  -1.429  0.00  0.00    -0.089 HD
ATOM     12  H   UNL     1      -2.012  -6.697  -2.307  0.00  0.00    -0.089 HD
ATOM     13  H   UNL     1      -0.557  -6.599  -3.074  0.00  0.00    -0.089 HD
ENDBRANCH   8  10
ENDBRANCH   1   8
BRANCH   1  14
ATOM     14  O   UNL     1       0.028  -2.749  -2.386  0.00  0.00    -0.485 OA
BRANCH  14  18
ATOM     15  C   UNL     1       0.205   1.520  -0.026  0.00  0.00    +0.045 C 
ATOM     16  C   UNL     1       0.206   0.013  -0.024  0.00  0.00    -0.029 A 
ATOM     17  C   UNL     1       0.116  -0.680  -1.216  0.00  0.00    +0.050 A 
ATOM     18  C   UNL     1       0.117  -2.067  -1.214  0.00  0.00    +0.122 A 
ATOM     19  C   UNL     1       0.208  -2.756  -0.013  0.00  0.00    +0.047 A 
ATOM     20  C   UNL     1       0.299  -2.061   1.177  0.00  0.00    +0.024 A 
ATOM     21  C   UNL     1       0.303  -0.677   1.172  0.00  0.00    +0.044 A 
ATOM     22 CL   UNL     1       0.424   0.195   2.668  0.00  0.00    -0.083 Cl
ENDBRANCH  14  18
ENDBRANCH   1  14
TORSDOF 5
