REMARK  Name = ZINC22197155
REMARK  6 active torsions:
REMARK  status: ('A' for Active; 'I' for Inactive)
REMARK    1  A    between atoms: C_2  and  C_3
REMARK    2  A    between atoms: C_3  and  N_4
REMARK    3  A    between atoms: C_10  and  C_16
REMARK    4  A    between atoms: N_18  and  C_19
REMARK    5  A    between atoms: C_19  and  C_20
REMARK    6  A    between atoms: C_23  and  C_25
REMARK                            x       y       z     vdW  Elec       q    Type
REMARK                         _______ _______ _______ _____ _____    ______ ____
ROOT
ATOM      1  C   UNL     1      -1.026  -6.398  -5.545  0.00  0.00    +0.244 C 
ATOM      2  O   UNL     1      -1.493  -5.991  -6.590  0.00  0.00    -0.270 OA
ATOM      3  N   UNL     1      -0.555  -7.659  -5.463  0.00  0.00    -0.304 N 
ATOM      4  H   UNL     1      -0.132  -8.028  -4.518  0.00  0.00    +0.149 HD
ENDROOT
BRANCH   1  11
ATOM      5  N   UNL     1      -1.318  -1.700  -1.126  0.00  0.00    -0.283 N 
ATOM      6  C   UNL     1      -0.829  -2.950  -0.974  0.00  0.00    +0.263 A 
ATOM      7  O   UNL     1      -0.370  -3.314   0.091  0.00  0.00    -0.267 OA
ATOM      8  C   UNL     1      -0.867  -3.862  -2.135  0.00  0.00    +0.065 A 
ATOM      9  C   UNL     1      -0.381  -5.165  -2.054  0.00  0.00    +0.016 A 
ATOM     10  C   UNL     1      -0.434  -5.983  -3.161  0.00  0.00    +0.014 A 
ATOM     11  C   UNL     1      -0.973  -5.511  -4.361  0.00  0.00    +0.039 A 
ATOM     12  C   UNL     1      -1.460  -4.209  -4.449  0.00  0.00    +0.041 A 
ATOM     13  C   UNL     1      -1.409  -3.381  -3.339  0.00  0.00    +0.080 A 
ATOM     14  N   UNL     1      -1.884  -2.078  -3.384  0.00  0.00    -0.222 NA
ATOM     15  C   UNL     1      -1.831  -1.290  -2.297  0.00  0.00    +0.183 A 
ATOM     16  S   UNL     1      -2.437   0.307  -2.411  0.00  0.00    -0.011 SA
BRANCH   5  17
ATOM     17  C   UNL     1      -1.293  -0.775   0.010  0.00  0.00    +0.154 C 
BRANCH  17  19
ATOM     18  C   UNL     1      -0.016   1.306   0.009  0.00  0.00    +0.005 C 
ATOM     19  C   UNL     1       0.002  -0.004   0.002  0.00  0.00    -0.013 C 
ENDBRANCH  17  19
ENDBRANCH   5  17
ENDBRANCH   1  11
BRANCH   3  20
ATOM     20  C   UNL     1      -0.607  -8.537  -6.635  0.00  0.00    +0.179 C 
BRANCH  20  21
ATOM     21  C   UNL     1      -0.023  -9.881  -6.282  0.00  0.00    +0.123 A 
ATOM     22  C   UNL     1      -0.709 -10.931  -5.791  0.00  0.00    +0.047 A 
ATOM     23  C   UNL     1       0.216 -11.978  -5.604  0.00  0.00    +0.050 A 
ATOM     24  C   UNL     1       1.429 -11.503  -5.996  0.00  0.00    +0.135 A 
ATOM     25  O   UNL     1       1.268 -10.231  -6.409  0.00  0.00    -0.458 OA
BRANCH  24  26
ATOM     26  C   UNL     1       2.701 -12.254  -5.977  0.00  0.00    +0.017 A 
ATOM     27  C   UNL     1       2.730 -13.574  -5.522  0.00  0.00    +0.012 A 
ATOM     28  C   UNL     1       3.920 -14.271  -5.513  0.00  0.00    +0.016 A 
ATOM     29  C   UNL     1       5.086 -13.662  -5.942  0.00  0.00    +0.018 A 
ATOM     30  C   UNL     1       5.066 -12.352  -6.389  0.00  0.00    +0.016 A 
ATOM     31  C   UNL     1       3.881 -11.645  -6.409  0.00  0.00    +0.012 A 
ATOM     32 BR   UNL     1       6.715 -14.623  -5.917  0.00  0.00    -0.050 Br
ENDBRANCH  24  26
ENDBRANCH  20  21
ENDBRANCH   3  20
TORSDOF 6
