REMARK  Name = ZINC33692965
REMARK  13 active torsions:
REMARK  status: ('A' for Active; 'I' for Inactive)
REMARK    1  A    between atoms: C_1  and  C_2
REMARK    2  A    between atoms: C_2  and  C_3
REMARK    3  A    between atoms: C_2  and  C_4
REMARK    4  A    between atoms: C_2  and  C_5
REMARK    5  A    between atoms: C_5  and  C_6
REMARK    6  A    between atoms: C_6  and  C_7
REMARK    7  A    between atoms: C_6  and  C_8
REMARK    8  A    between atoms: C_6  and  N_9
REMARK    9  A    between atoms: N_9  and  C_10
REMARK   10  A    between atoms: C_11  and  C_19
REMARK   11  A    between atoms: C_24  and  O_25
REMARK   12  A    between atoms: O_25  and  C_26
REMARK   13  A    between atoms: C_26  and  C_28
REMARK                            x       y       z     vdW  Elec       q    Type
REMARK                         _______ _______ _______ _____ _____    ______ ____
ROOT
ATOM      1  C   UNL     1       0.647  -2.619   0.258  0.00  0.00    +0.129 A 
ATOM      2  C   UNL     1       1.413  -3.732  -0.017  0.00  0.00    +0.090 A 
ATOM      3  N   UNL     1       1.005  -4.729   0.790  0.00  0.00    -0.338 N 
ATOM      4  C   UNL     1       0.019  -4.293   1.557  0.00  0.00    +0.117 A 
ATOM      5  N   UNL     1      -0.224  -2.974   1.250  0.00  0.00    -0.289 N 
ATOM      6  C   UNL     1      -1.210  -2.283   1.902  0.00  0.00    +0.094 A 
ATOM      7  C   UNL     1      -1.948  -2.879   2.860  0.00  0.00    +0.018 A 
ATOM      8  C   UNL     1      -1.718  -4.224   3.199  0.00  0.00    +0.005 A 
ATOM      9  C   UNL     1      -0.748  -4.927   2.558  0.00  0.00    +0.045 A 
ATOM     10  H   UNL     1       1.490  -5.715   0.734  0.00  0.00    +0.167 HD
ENDROOT
BRANCH   2  11
ATOM     11  C   UNL     1       2.497  -3.816  -1.024  0.00  0.00    +0.044 A 
ATOM     12  C   UNL     1       2.947  -2.664  -1.666  0.00  0.00    +0.014 A 
ATOM     13  C   UNL     1       3.960  -2.747  -2.599  0.00  0.00    +0.001 A 
ATOM     14  C   UNL     1       4.523  -3.972  -2.910  0.00  0.00    +0.004 A 
ATOM     15  C   UNL     1       4.080  -5.123  -2.283  0.00  0.00    +0.047 A 
ATOM     16  C   UNL     1       3.068  -5.054  -1.340  0.00  0.00    +0.141 A 
BRANCH  16  17
ATOM     17  O   UNL     1       2.632  -6.184  -0.725  0.00  0.00    -0.422 OA
BRANCH  17  18
ATOM     18  C   UNL     1       1.589  -6.824  -1.288  0.00  0.00    +0.344 C 
ATOM     19  O   UNL     1       1.142  -6.438  -2.350  0.00  0.00    -0.245 OA
BRANCH  18  20
ATOM     20  C   UNL     1       0.989  -7.994  -0.616  0.00  0.00    +0.059 A 
ATOM     21  C   UNL     1       1.505  -8.444   0.602  0.00  0.00    +0.015 A 
ATOM     22  C   UNL     1       0.937  -9.534   1.227  0.00  0.00    +0.001 A 
ATOM     23  C   UNL     1      -0.134 -10.189   0.645  0.00  0.00    +0.000 A 
ATOM     24  C   UNL     1      -0.646  -9.753  -0.564  0.00  0.00    +0.001 A 
ATOM     25  C   UNL     1      -0.091  -8.660  -1.198  0.00  0.00    +0.015 A 
ENDBRANCH  18  20
ENDBRANCH  17  18
ENDBRANCH  16  17
ENDBRANCH   2  11
BRANCH   1  26
ATOM     26  N   UNL     1       0.745  -1.370  -0.356  0.00  0.00    -0.323 N 
ATOM     27  H   UNL     1       1.379  -1.061  -1.200  0.00  0.00    +0.148 HD
BRANCH  26  28
ATOM     28  C   UNL     1      -0.157  -0.399   0.279  0.00  0.00    +0.028 C 
ATOM     29  C   UNL     1       0.139  -0.334   1.779  0.00  0.00    +0.031 C 
ATOM     30  C   UNL     1      -1.608  -0.835   0.064  0.00  0.00    +0.031 C 
BRANCH  28  31
ATOM     31  C   UNL     1       0.059   0.981  -0.344  0.00  0.00    +0.031 C 
BRANCH  31  33
ATOM     32  C   UNL     1       1.621   0.421  -2.212  0.00  0.00    +0.010 C 
ATOM     33  C   UNL     1       1.500   1.095  -0.844  0.00  0.00    -0.036 C 
ATOM     34  C   UNL     1       1.881   2.572  -0.968  0.00  0.00    +0.010 C 
ATOM     35  C   UNL     1       2.440   0.408   0.148  0.00  0.00    +0.010 C 
ENDBRANCH  31  33
ENDBRANCH  28  31
ENDBRANCH  26  28
ENDBRANCH   1  26
TORSDOF 8
