REMARK  Name = ZINC39702971
REMARK  5 active torsions:
REMARK  status: ('A' for Active; 'I' for Inactive)
REMARK    1  A    between atoms: C_1  and  C_2
REMARK    2  A    between atoms: C_3  and  C_14
REMARK    3  A    between atoms: C_4  and  C_8
REMARK    4  A    between atoms: N_16  and  N_17
REMARK    5  A    between atoms: C_18  and  C_19
REMARK                            x       y       z     vdW  Elec       q    Type
REMARK                         _______ _______ _______ _____ _____    ______ ____
ROOT
ATOM      1  C   UNL     1      -2.442  -0.315   0.021  0.00  0.00    +0.264 C 
ATOM      2  O   UNL     1      -2.677   0.879   0.037  0.00  0.00    -0.269 OA
ATOM      3  N   UNL     1      -3.457  -1.202   0.021  0.00  0.00    -0.203 N 
ATOM      4  H   UNL     1      -3.270  -2.153   0.008  0.00  0.00    +0.178 HD
ENDROOT
BRANCH   1   7
ATOM      5  C   UNL     1      -0.018   1.503   0.010  0.00  0.00    +0.089 C 
ATOM      6  C   UNL     1       0.002  -0.004   0.002  0.00  0.00    +0.132 C 
ATOM      7  C   UNL     1      -1.102  -0.773   0.003  0.00  0.00    +0.080 C 
ATOM      8  C   UNL     1      -0.648  -2.220  -0.019  0.00  0.00    +0.161 C 
ATOM      9  N   UNL     1       0.774  -2.108  -0.434  0.00  0.00    -0.144 NA
ATOM     10  O   UNL     1       1.127  -0.743  -0.013  0.00  0.00    -0.410 OA
ATOM     11  H   UNL     1       0.868  -2.210  -1.434  0.00  0.00    +0.168 HD
BRANCH   8  12
ATOM     12  C   UNL     1      -0.761  -2.837   1.352  0.00  0.00    -0.023 A 
ATOM     13  C   UNL     1       0.213  -2.594   2.302  0.00  0.00    +0.005 A 
ATOM     14  C   UNL     1       0.109  -3.159   3.559  0.00  0.00    +0.000 A 
ATOM     15  C   UNL     1      -0.970  -3.968   3.866  0.00  0.00    +0.000 A 
ATOM     16  C   UNL     1      -1.944  -4.211   2.916  0.00  0.00    +0.000 A 
ATOM     17  C   UNL     1      -1.842  -3.642   1.661  0.00  0.00    +0.005 A 
ENDBRANCH   8  12
ENDBRANCH   1   7
BRANCH   3  18
ATOM     18  N   UNL     1      -4.783  -0.749   0.038  0.00  0.00    -0.188 NA
ATOM     19  C   UNL     1      -5.770  -1.611   0.038  0.00  0.00    +0.136 C 
BRANCH  19  20
ATOM     20  C   UNL     1      -7.095  -1.158   0.056  0.00  0.00    +0.000 C 
ATOM     21  C   UNL     1      -8.252  -1.936   0.063  0.00  0.00    +0.004 A 
ATOM     22  C   UNL     1      -8.462  -3.332   0.056  0.00  0.00    +0.010 A 
ATOM     23  C   UNL     1      -9.728  -3.822   0.067  0.00  0.00    +0.001 A 
ATOM     24  C   UNL     1     -10.840  -2.976   0.085  0.00  0.00    +0.002 A 
ATOM     25  C   UNL     1     -10.713  -1.627   0.092  0.00  0.00    +0.026 A 
ATOM     26  C   UNL     1      -9.421  -1.040   0.082  0.00  0.00    +0.043 A 
ATOM     27  N   UNL     1      -9.036   0.220   0.086  0.00  0.00    -0.380 N 
ATOM     28  C   UNL     1      -7.571   0.278   0.077  0.00  0.00    +0.150 C 
ATOM     29  H   UNL     1      -9.628   0.988   0.098  0.00  0.00    +0.160 HD
ENDBRANCH  19  20
ENDBRANCH   3  18
TORSDOF 4
