REMARK  Name = ZINC02214684
REMARK  7 active torsions:
REMARK  status: ('A' for Active; 'I' for Inactive)
REMARK    1  A    between atoms: C_1  and  C_2
REMARK    2  A    between atoms: C_2  and  C_3
REMARK    3  A    between atoms: C_2  and  C_4
REMARK    4  A    between atoms: C_4  and  C_5
REMARK    5  A    between atoms: C_11  and  N_15
REMARK    6  A    between atoms: N_15  and  C_16
REMARK    7  A    between atoms: C_16  and  C_17
REMARK                            x       y       z     vdW  Elec       q    Type
REMARK                         _______ _______ _______ _____ _____    ______ ____
ROOT
ATOM      1  C   UNL     1     -11.653   2.121   0.394  0.00  0.00    +0.046 A 
ATOM      2  C   UNL     1     -11.834   1.162  -0.593  0.00  0.00    -0.022 A 
ATOM      3  C   UNL     1     -10.741   0.628  -1.237  0.00  0.00    -0.031 A 
ATOM      4  C   UNL     1      -9.446   1.066  -0.884  0.00  0.00    +0.037 A 
ATOM      5  C   UNL     1      -8.157   0.622  -1.448  0.00  0.00    +0.093 A 
ATOM      6  C   UNL     1      -7.014   1.225  -0.909  0.00  0.00    +0.080 A 
ATOM      7  C   UNL     1      -5.747   0.890  -1.369  0.00  0.00    +0.136 A 
ATOM      8  N   UNL     1      -5.646  -0.028  -2.330  0.00  0.00    -0.220 NA
ATOM      9  C   UNL     1      -6.734  -0.590  -2.823  0.00  0.00    +0.224 A 
ATOM     10  N   UNL     1      -7.944  -0.296  -2.417  0.00  0.00    -0.234 NA
ATOM     11  S   UNL     1      -7.633   2.354   0.307  0.00  0.00    -0.064 S 
ATOM     12  C   UNL     1      -9.372   2.042   0.126  0.00  0.00    +0.111 A 
ATOM     13  N   UNL     1     -10.442   2.527   0.719  0.00  0.00    -0.244 NA
ATOM     14  C   UNL     1     -11.186  -0.389  -2.263  0.00  0.00    +0.036 C 
ATOM     15  C   UNL     1     -12.688  -0.107  -2.480  0.00  0.00    +0.009 C 
ATOM     16  C   UNL     1     -13.101   0.540  -1.140  0.00  0.00    +0.037 C 
ENDROOT
BRANCH   7  17
ATOM     17  N   UNL     1      -4.617   1.492  -0.839  0.00  0.00    -0.326 N 
ATOM     18  H   UNL     1      -4.704   2.158  -0.140  0.00  0.00    +0.148 HD
BRANCH  17  19
ATOM     19  C   UNL     1      -3.289   1.120  -1.334  0.00  0.00    +0.134 C 
BRANCH  19  20
ATOM     20  C   UNL     1      -2.223   1.924  -0.587  0.00  0.00    +0.135 C 
ATOM     21  C   UNL     1      -0.833   1.634  -1.185  0.00  0.00    +0.035 C 
ATOM     22  C   UNL     1      -0.013   1.086   0.008  0.00  0.00    +0.031 C 
ATOM     23  C   UNL     1      -0.810   1.621   1.224  0.00  0.00    +0.160 C 
ATOM     24  O   UNL     1      -2.186   1.524   0.793  0.00  0.00    -0.375 OA
ENDBRANCH  19  20
ENDBRANCH  17  19
ENDBRANCH   7  17
BRANCH   1  25
ATOM     25  C   UNL     1     -12.851   2.704   1.098  0.00  0.00    +0.058 C 
BRANCH  25  27
ATOM     26  C   UNL     1     -12.026   1.964   3.337  0.00  0.00    +0.007 C 
ATOM     27  C   UNL     1     -13.176   1.861   2.333  0.00  0.00    -0.011 C 
ATOM     28  C   UNL     1     -14.464   2.377   2.978  0.00  0.00    +0.007 C 
ENDBRANCH  25  27
ENDBRANCH   1  25
TORSDOF 5
