REMARK  Name = ZINC40692583
REMARK  4 active torsions:
REMARK  status: ('A' for Active; 'I' for Inactive)
REMARK    1  A    between atoms: C_4  and  S_8
REMARK    2  A    between atoms: S_8  and  N_11
REMARK    3  A    between atoms: N_11  and  C_12
REMARK    4  A    between atoms: C_12  and  C_16
REMARK                            x       y       z     vdW  Elec       q    Type
REMARK                         _______ _______ _______ _____ _____    ______ ____
ROOT
ATOM      1  S   UNL     1       3.916  -0.828  -0.049  0.00  0.00    +0.061 S 
ATOM      2  O   UNL     1       4.809  -0.278   0.910  0.00  0.00    -0.153 OA
ATOM      3  O   UNL     1       3.495  -2.184  -0.008  0.00  0.00    -0.153 OA
ENDROOT
BRANCH   1   7
ATOM      4  C   UNL     1       0.158   1.695   0.089  0.00  0.00    +0.016 A 
ATOM      5  C   UNL     1       0.259   0.654  -0.815  0.00  0.00    +0.018 A 
ATOM      6  C   UNL     1       1.406  -0.116  -0.858  0.00  0.00    +0.044 A 
ATOM      7  C   UNL     1       2.454   0.155   0.005  0.00  0.00    +0.120 A 
ATOM      8  C   UNL     1       2.353   1.196   0.908  0.00  0.00    +0.045 A 
ATOM      9  C   UNL     1       1.205   1.966   0.951  0.00  0.00    +0.020 A 
ATOM     10 BR   UNL     1       1.068   3.391   2.187  0.00  0.00    -0.050 Br
ATOM     11 BR   UNL     1       1.544  -1.541  -2.094  0.00  0.00    -0.048 Br
ENDBRANCH   1   7
BRANCH   1  12
ATOM     12  N   UNL     1       4.610  -0.591  -1.533  0.00  0.00    -0.170 NA
ATOM     13  H   UNL     1       4.681  -1.329  -2.159  0.00  0.00    +0.150 HD
BRANCH  12  14
ATOM     14  C   UNL     1       5.119   0.732  -1.902  0.00  0.00    +0.126 C 
ATOM     15  C   UNL     1       4.015   1.730  -2.289  0.00  0.00    +0.039 C 
ATOM     16  C   UNL     1       4.956   2.216  -3.405  0.00  0.00    +0.006 C 
ATOM     17  C   UNL     1       5.603   0.822  -3.359  0.00  0.00    +0.039 C 
BRANCH  14  18
ATOM     18  C   UNL     1       6.083   1.266  -0.926  0.00  0.00    +0.086 C 
ATOM     19  N   UNL     1       6.827   1.678  -0.173  0.00  0.00    -0.195 NA
ENDBRANCH  14  18
ENDBRANCH  12  14
ENDBRANCH   1  12
TORSDOF 4
