REMARK  Name = ZINC16010196
REMARK  5 active torsions:
REMARK  status: ('A' for Active; 'I' for Inactive)
REMARK    1  A    between atoms: C_1  and  C_2
REMARK    2  A    between atoms: C_2  and  C_4
REMARK    3  A    between atoms: C_2  and  O_35
REMARK    4  A    between atoms: N_12  and  C_15
REMARK    5  A    between atoms: C_15  and  C_16
REMARK                            x       y       z     vdW  Elec       q    Type
REMARK                         _______ _______ _______ _____ _____    ______ ____
ROOT
ATOM      1  C   UNL     1       0.721  -0.469  -1.286  0.00  0.00    +0.096 C 
ATOM      2  C   UNL     1       0.748  -2.012  -1.271  0.00  0.00    +0.109 C 
ATOM      3  C   UNL     1       2.143  -2.391  -1.841  0.00  0.00    +0.123 C 
ATOM      4  C   UNL     1       1.813  -3.076  -3.147  0.00  0.00    +0.229 C 
ATOM      5  O   UNL     1       2.624  -3.531  -3.924  0.00  0.00    -0.275 OA
ATOM      6  N   UNL     1       0.485  -3.103  -3.312  0.00  0.00    -0.237 N 
ATOM      7  C   UNL     1      -0.222  -2.535  -2.307  0.00  0.00    +0.228 C 
ATOM      8  O   UNL     1      -1.430  -2.452  -2.240  0.00  0.00    -0.275 OA
ATOM      9  C   UNL     1       2.833  -1.047  -2.103  0.00  0.00    +0.136 C 
ATOM     10  N   UNL     1       2.151  -0.060  -1.254  0.00  0.00    -0.293 NA
ATOM     11  C   UNL     1       4.306  -1.118  -1.816  0.00  0.00    +0.005 A 
ATOM     12  C   UNL     1       5.038  -1.424  -0.690  0.00  0.00    +0.008 A 
ATOM     13  C   UNL     1       6.421  -1.403  -0.737  0.00  0.00    +0.002 A 
ATOM     14  C   UNL     1       7.065  -1.076  -1.916  0.00  0.00    +0.022 A 
ATOM     15  C   UNL     1       6.336  -0.768  -3.046  0.00  0.00    +0.062 A 
ATOM     16  C   UNL     1       4.942  -0.787  -3.008  0.00  0.00    +0.057 A 
ATOM     17  N   UNL     1       3.998  -0.519  -4.002  0.00  0.00    -0.282 N 
ATOM     18  C   UNL     1       2.735  -0.651  -3.551  0.00  0.00    +0.243 C 
ATOM     19  O   UNL     1       1.717  -0.484  -4.189  0.00  0.00    -0.273 OA
ATOM     20 CL   UNL     1       7.156  -0.356  -4.520  0.00  0.00    -0.082 Cl
ATOM     21  H   UNL     1       2.267   0.876  -1.612  0.00  0.00    +0.124 HD
ATOM     22  H   UNL     1       4.224  -0.268  -4.911  0.00  0.00    +0.155 HD
ENDROOT
BRANCH   1  24
ATOM     23  C   UNL     1       0.006   1.593  -0.070  0.00  0.00    +0.039 C 
ATOM     24  C   UNL     1      -0.013   0.063  -0.054  0.00  0.00    +0.129 C 
BRANCH  24  25
ATOM     25  O   UNL     1       0.637  -0.409   1.128  0.00  0.00    -0.390 OA
ATOM     26  H   UNL     1       0.225  -0.110   1.950  0.00  0.00    +0.210 HD
ENDBRANCH  24  25
ENDBRANCH   1  24
BRANCH   6  27
ATOM     27  C   UNL     1      -0.156  -3.704  -4.483  0.00  0.00    +0.153 C 
BRANCH  27  28
ATOM     28  C   UNL     1      -0.280  -5.192  -4.280  0.00  0.00    -0.011 A 
ATOM     29  C   UNL     1       0.684  -6.042  -4.791  0.00  0.00    +0.006 A 
ATOM     30  C   UNL     1       0.571  -7.407  -4.605  0.00  0.00    +0.000 A 
ATOM     31  C   UNL     1      -0.506  -7.923  -3.907  0.00  0.00    +0.001 A 
ATOM     32  C   UNL     1      -1.470  -7.075  -3.396  0.00  0.00    +0.020 A 
ATOM     33  C   UNL     1      -1.354  -5.708  -3.578  0.00  0.00    +0.046 A 
ATOM     34 CL   UNL     1      -2.561  -4.641  -2.930  0.00  0.00    -0.083 Cl
ENDBRANCH  27  28
ENDBRANCH   6  27
TORSDOF 4
