REMARK  Name = ZINC14462289
REMARK  7 active torsions:
REMARK  status: ('A' for Active; 'I' for Inactive)
REMARK    1  A    between atoms: C_1  and  C_2
REMARK    2  A    between atoms: C_2  and  N_3
REMARK    3  A    between atoms: N_3  and  C_4
REMARK    4  A    between atoms: N_3  and  C_6
REMARK    5  A    between atoms: C_4  and  C_5
REMARK    6  A    between atoms: C_9  and  C_12
REMARK    7  A    between atoms: C_23  and  C_28
REMARK                            x       y       z     vdW  Elec       q    Type
REMARK                         _______ _______ _______ _____ _____    ______ ____
ROOT
ATOM      1  C   UNL     1       4.653   1.489  -0.371  0.00  0.00    +0.105 C 
ATOM      2  C   UNL     1       4.992   0.307   0.543  0.00  0.00    +0.029 C 
ATOM      3  C   UNL     1       6.114  -0.513  -0.158  0.00  0.00    +0.033 C 
ATOM      4  C   UNL     1       5.353  -1.379  -1.144  0.00  0.00    -0.030 C 
ATOM      5  C   UNL     1       4.101  -1.501  -0.775  0.00  0.00    -0.023 C 
ATOM      6  C   UNL     1       3.854  -0.731   0.500  0.00  0.00    +0.049 C 
ATOM      7  C   UNL     1       2.494  -0.106   0.505  0.00  0.00    -0.019 A 
ATOM      8  C   UNL     1       1.394  -0.916   0.723  0.00  0.00    +0.019 A 
ATOM      9  C   UNL     1       0.109  -0.375   0.736  0.00  0.00    +0.037 A 
ATOM     10  C   UNL     1      -0.074   0.996   0.530  0.00  0.00    +0.015 A 
ATOM     11  C   UNL     1       1.020   1.801   0.314  0.00  0.00    +0.024 A 
ATOM     12  C   UNL     1       2.301   1.255   0.301  0.00  0.00    +0.031 A 
ATOM     13  N   UNL     1       3.393   2.091   0.078  0.00  0.00    -0.336 N 
ATOM     14  H   UNL     1       3.322   3.048   0.216  0.00  0.00    +0.147 HD
ENDROOT
BRANCH   9  15
ATOM     15  C   UNL     1      -1.057  -1.248   0.968  0.00  0.00    +0.247 C 
ATOM     16  O   UNL     1      -0.915  -2.455   1.006  0.00  0.00    -0.270 OA
ATOM     17  N   UNL     1      -2.280  -0.708   1.138  0.00  0.00    -0.298 N 
ATOM     18  C   UNL     1      -2.611   0.719   1.015  0.00  0.00    +0.108 C 
ATOM     19  C   UNL     1      -4.117   0.868   1.317  0.00  0.00    +0.020 C 
ATOM     20  C   UNL     1      -4.428  -0.401   2.155  0.00  0.00    +0.020 C 
ATOM     21  C   UNL     1      -3.507  -1.450   1.484  0.00  0.00    +0.108 C 
ENDBRANCH   9  15
BRANCH   1  25
ATOM     22  C   UNL     1       4.228   0.112  -4.394  0.00  0.00    +0.030 A 
ATOM     23  C   UNL     1       3.128   0.136  -3.547  0.00  0.00    +0.023 A 
ATOM     24  C   UNL     1       3.269   0.581  -2.247  0.00  0.00    +0.007 A 
ATOM     25  C   UNL     1       4.503   1.003  -1.789  0.00  0.00    -0.027 A 
ATOM     26  C   UNL     1       5.600   0.986  -2.632  0.00  0.00    +0.007 A 
ATOM     27  C   UNL     1       5.467   0.536  -3.931  0.00  0.00    +0.023 A 
BRANCH  22  28
ATOM     28  N   UNL     1       4.090  -0.338  -5.709  0.00  0.00    -0.330 N 
BRANCH  28  30
ATOM     29  C   UNL     1       5.956  -1.716  -6.484  0.00  0.00    +0.024 C 
ATOM     30  C   UNL     1       5.251  -0.363  -6.602  0.00  0.00    +0.102 C 
ENDBRANCH  28  30
BRANCH  28  31
ATOM     31  C   UNL     1       2.782  -0.785  -6.197  0.00  0.00    +0.102 C 
ATOM     32  C   UNL     1       2.027   0.404  -6.794  0.00  0.00    +0.024 C 
ENDBRANCH  28  31
ENDBRANCH  22  28
ENDBRANCH   1  25
TORSDOF 5
