REMARK  Name = ZINC13495950
REMARK  15 active torsions:
REMARK  status: ('A' for Active; 'I' for Inactive)
REMARK    1  A    between atoms: C_1  and  C_2
REMARK    2  A    between atoms: C_2  and  C_3
REMARK    3  A    between atoms: C_3  and  C_5
REMARK    4  A    between atoms: C_3  and  N_78
REMARK    5  A    between atoms: N_9  and  C_10
REMARK    6  A    between atoms: C_10  and  C_11
REMARK    7  A    between atoms: C_11  and  C_12
REMARK    8  A    between atoms: C_18  and  C_19
REMARK    9  A    between atoms: C_18  and  N_78
REMARK   10  A    between atoms: C_19  and  C_20
REMARK   11  A    between atoms: C_24  and  C_26
REMARK   12  A    between atoms: C_27  and  C_28
REMARK   13  A    between atoms: C_27  and  N_78
REMARK   14  A    between atoms: C_32  and  C_41
REMARK   15  A    between atoms: C_34  and  C_40
REMARK                            x       y       z     vdW  Elec       q    Type
REMARK                         _______ _______ _______ _____ _____    ______ ____
ROOT
ATOM      1  N   UNL     1      -1.352   7.989  -1.226  0.00  0.00    +0.389 N 
ATOM      2  H   UNL     1      -0.569   7.737  -1.840  0.00  0.00    -0.080 HD
ENDROOT
BRANCH   1   3
ATOM      3  C   UNL     1      -1.603   9.441  -1.339  0.00  0.00    +0.003 C 
BRANCH   3   4
ATOM      4  C   UNL     1      -2.552   9.898  -0.261  0.00  0.00    +0.138 A 
ATOM      5  N   UNL     1      -2.518   9.563   1.005  0.00  0.00    -0.115 NA
ATOM      6  N   UNL     1      -3.492  10.160   1.601  0.00  0.00    -0.023 NA
ATOM      7  N   UNL     1      -4.151  10.861   0.746  0.00  0.00    -0.044 NA
ATOM      8  N   UNL     1      -3.603  10.726  -0.414  0.00  0.00    -0.231 N 
BRANCH   8   9
ATOM      9  C   UNL     1      -4.041  11.355  -1.663  0.00  0.00    +0.152 C 
BRANCH   9  10
ATOM     10  C   UNL     1      -5.153  10.515  -2.294  0.00  0.00    +0.058 C 
BRANCH  10  11
ATOM     11  C   UNL     1      -5.552  11.121  -3.615  0.00  0.00    -0.046 A 
ATOM     12  C   UNL     1      -6.561  12.065  -3.665  0.00  0.00    +0.004 A 
ATOM     13  C   UNL     1      -6.923  12.625  -4.876  0.00  0.00    +0.000 A 
ATOM     14  C   UNL     1      -6.285  12.233  -6.037  0.00  0.00    +0.000 A 
ATOM     15  C   UNL     1      -5.280  11.285  -5.988  0.00  0.00    +0.000 A 
ATOM     16  C   UNL     1      -4.913  10.729  -4.776  0.00  0.00    +0.004 A 
ENDBRANCH  10  11
ENDBRANCH   9  10
ENDBRANCH   8   9
ENDBRANCH   3   4
BRANCH   3  18
ATOM     17  C   UNL     1       0.633   9.840  -2.380  0.00  0.00    +0.002 C 
ATOM     18  C   UNL     1      -0.272  10.183  -1.195  0.00  0.00    -0.011 C 
ENDBRANCH   3  18
ENDBRANCH   1   3
BRANCH   1  19
ATOM     19  C   UNL     1      -2.553   7.235  -1.646  0.00  0.00    -0.073 C 
BRANCH  19  20
ATOM     20  C   UNL     1      -2.740   7.408  -3.155  0.00  0.00    +0.016 C 
BRANCH  20  21
ATOM     21  C   UNL     1      -3.869   6.527  -3.624  0.00  0.00    -0.049 A 
ATOM     22  C   UNL     1      -3.628   5.202  -3.936  0.00  0.00    +0.003 A 
ATOM     23  C   UNL     1      -4.665   4.393  -4.363  0.00  0.00    +0.001 A 
ATOM     24  C   UNL     1      -5.940   4.911  -4.487  0.00  0.00    +0.003 A 
ATOM     25  C   UNL     1      -6.180   6.237  -4.180  0.00  0.00    -0.050 A 
ATOM     26  C   UNL     1      -5.145   7.045  -3.749  0.00  0.00    +0.007 A 
ATOM     27  C   UNL     1      -7.571   6.802  -4.315  0.00  0.00    +0.044 C 
ENDBRANCH  20  21
ENDBRANCH  19  20
ENDBRANCH   1  19
BRANCH   1  28
ATOM     28  C   UNL     1      -1.001   7.643   0.167  0.00  0.00    -0.037 C 
BRANCH  28  29
ATOM     29  C   UNL     1      -0.304   6.307   0.172  0.00  0.00    +0.001 A 
ATOM     30  C   UNL     1       1.050   6.252   0.134  0.00  0.00    +0.017 A 
ATOM     31  C   UNL     1       1.697   4.938   0.140  0.00  0.00    -0.001 A 
ATOM     32  C   UNL     1       3.090   4.817   0.103  0.00  0.00    +0.013 A 
ATOM     33  C   UNL     1       3.663   3.577   0.110  0.00  0.00    -0.050 A 
ATOM     34  C   UNL     1       2.874   2.435   0.154  0.00  0.00    +0.008 A 
ATOM     35  C   UNL     1       1.500   2.530   0.186  0.00  0.00    -0.026 A 
ATOM     36  C   UNL     1       0.894   3.783   0.185  0.00  0.00    +0.052 A 
ATOM     37  N   UNL     1      -0.478   3.908   0.223  0.00  0.00    -0.322 N 
ATOM     38  H   UNL     1      -1.030   3.110   0.254  0.00  0.00    +0.169 HD
ATOM     39  C   UNL     1      -1.063   5.118   0.217  0.00  0.00    +0.251 A 
ATOM     40  O   UNL     1      -2.279   5.191   0.251  0.00  0.00    -0.268 OA
ATOM     41  C   UNL     1       0.655   1.282   0.228  0.00  0.00    +0.046 C 
ATOM     42  C   UNL     1       5.163   3.447   0.070  0.00  0.00    +0.044 C 
ENDBRANCH  28  29
ENDBRANCH   1  28
TORSDOF 11
