REMARK  Name = ZINC09181877
REMARK  9 active torsions:
REMARK  status: ('A' for Active; 'I' for Inactive)
REMARK    1  A    between atoms: C_1  and  C_2
REMARK    2  A    between atoms: C_5  and  C_35
REMARK    3  A    between atoms: N_8  and  S_10
REMARK    4  A    between atoms: S_10  and  C_13
REMARK    5  A    between atoms: C_16  and  C_19
REMARK    6  A    between atoms: C_19  and  O_21
REMARK    7  A    between atoms: O_21  and  C_22
REMARK    8  A    between atoms: C_22  and  C_23
REMARK    9  A    between atoms: N_28  and  C_29
REMARK                            x       y       z     vdW  Elec       q    Type
REMARK                         _______ _______ _______ _____ _____    ______ ____
ROOT
ATOM      1  C   UNL     1      -7.644   1.502   0.083  0.00  0.00    +0.340 C 
ATOM      2  O   UNL     1      -8.149   1.174   1.138  0.00  0.00    -0.245 OA
ENDROOT
BRANCH   1   6
ATOM      3  C   UNL     1      -4.043   3.754   0.061  0.00  0.00    +0.106 A 
ATOM      4  C   UNL     1      -4.642   3.400  -1.135  0.00  0.00    +0.029 A 
ATOM      5  C   UNL     1      -5.809   2.664  -1.136  0.00  0.00    +0.017 A 
ATOM      6  C   UNL     1      -6.392   2.286   0.075  0.00  0.00    +0.059 A 
ATOM      7  C   UNL     1      -5.785   2.651   1.279  0.00  0.00    +0.017 A 
ATOM      8  C   UNL     1      -4.616   3.382   1.265  0.00  0.00    +0.029 A 
BRANCH   3   9
ATOM      9  S   UNL     1      -2.550   4.688   0.052  0.00  0.00    +0.061 S 
ATOM     10  O   UNL     1      -2.485   5.364   1.300  0.00  0.00    -0.153 OA
ATOM     11  O   UNL     1      -2.509   5.377  -1.190  0.00  0.00    -0.153 OA
BRANCH   9  17
ATOM     12  C   UNL     1      -2.198   1.093  -1.204  0.00  0.00    +0.009 C 
ATOM     13  C   UNL     1      -0.752   1.593  -1.232  0.00  0.00    +0.002 C 
ATOM     14  C   UNL     1      -0.013   1.086   0.008  0.00  0.00    +0.009 C 
ATOM     15  C   UNL     1      -0.729   1.579   1.268  0.00  0.00    +0.002 C 
ATOM     16  C   UNL     1      -0.717   3.111   1.290  0.00  0.00    +0.112 C 
ATOM     17  N   UNL     1      -1.296   3.606   0.034  0.00  0.00    -0.176 NA
ATOM     18  C   UNL     1      -0.741   3.124  -1.238  0.00  0.00    +0.112 C 
ATOM     19  C   UNL     1      -0.008   1.045   2.507  0.00  0.00    +0.009 C 
ENDBRANCH   9  17
ENDBRANCH   3   9
ENDBRANCH   1   6
BRANCH   1  20
ATOM     20  O   UNL     1      -8.226   1.152  -1.080  0.00  0.00    -0.452 OA
BRANCH  20  21
ATOM     21  C   UNL     1      -9.455   0.382  -0.997  0.00  0.00    +0.328 C 
BRANCH  21  22
ATOM     22  C   UNL     1      -9.956   0.084  -2.386  0.00  0.00    +0.258 C 
ATOM     23  O   UNL     1      -9.339   0.482  -3.351  0.00  0.00    -0.272 OA
ATOM     24  N   UNL     1     -11.091  -0.623  -2.556  0.00  0.00    -0.237 N 
ATOM     25  C   UNL     1     -11.539  -0.889  -3.799  0.00  0.00    +0.306 C 
ATOM     26  O   UNL     1     -10.921  -0.491  -4.766  0.00  0.00    -0.252 OA
ATOM     27  N   UNL     1     -12.674  -1.597  -3.968  0.00  0.00    -0.296 N 
ATOM     28  H   UNL     1     -11.584  -0.941  -1.784  0.00  0.00    +0.159 HD
ATOM     29  H   UNL     1     -13.167  -1.915  -3.196  0.00  0.00    +0.151 HD
BRANCH  27  30
ATOM     30  C   UNL     1     -13.161  -1.887  -5.319  0.00  0.00    +0.074 C 
ATOM     31  C   UNL     1     -13.995  -0.707  -5.824  0.00  0.00    +0.022 C 
ATOM     32  C   UNL     1     -14.505  -1.009  -7.234  0.00  0.00    +0.002 C 
ATOM     33  C   UNL     1     -15.370  -2.271  -7.205  0.00  0.00    +0.000 C 
ATOM     34  C   UNL     1     -14.537  -3.450  -6.700  0.00  0.00    +0.002 C 
ATOM     35  C   UNL     1     -14.027  -3.148  -5.290  0.00  0.00    +0.022 C 
ENDBRANCH  27  30
ENDBRANCH  21  22
ENDBRANCH  20  21
ENDBRANCH   1  20
TORSDOF 7
