REMARK  Name = ZINC66726271
REMARK  13 active torsions:
REMARK  status: ('A' for Active; 'I' for Inactive)
REMARK    1  A    between atoms: C_1  and  C_2
REMARK    2  A    between atoms: C_2  and  N_3
REMARK    3  A    between atoms: N_3  and  C_4
REMARK    4  A    between atoms: C_4  and  C_5
REMARK    5  A    between atoms: C_8  and  C_11
REMARK    6  A    between atoms: C_11  and  N_12
REMARK    7  A    between atoms: N_12  and  C_13
REMARK    8  A    between atoms: N_12  and  C_14
REMARK    9  A    between atoms: C_15  and  C_17
REMARK   10  A    between atoms: C_17  and  C_18
REMARK   11  A    between atoms: C_18  and  C_20
REMARK   12  A    between atoms: C_18  and  N_27
REMARK   13  A    between atoms: C_25  and  C_26
REMARK                            x       y       z     vdW  Elec       q    Type
REMARK                         _______ _______ _______ _____ _____    ______ ____
ROOT
ATOM      1  N   UNL     1       0.890  -1.137   1.615  0.00  0.00    -0.297 N 
ATOM      2  C   UNL     1       2.220  -1.092   1.405  0.00  0.00    +0.218 C 
ATOM      3  O   UNL     1       2.986  -1.361   2.306  0.00  0.00    -0.276 OA
ENDROOT
BRANCH   1   5
ATOM      4  C   UNL     1      -0.342   0.687   0.549  0.00  0.00    +0.024 C 
ATOM      5  C   UNL     1      -0.036  -0.812   0.527  0.00  0.00    +0.105 C 
ENDBRANCH   1   5
BRANCH   1   6
ATOM      6  C   UNL     1       0.369  -1.512   2.932  0.00  0.00    +0.142 C 
BRANCH   6   7
ATOM      7  C   UNL     1       0.175  -3.006   2.989  0.00  0.00    -0.030 A 
ATOM      8  C   UNL     1      -1.032  -3.561   2.605  0.00  0.00    +0.005 A 
ATOM      9  C   UNL     1      -1.210  -4.931   2.657  0.00  0.00    +0.002 A 
ATOM     10  C   UNL     1      -0.182  -5.745   3.093  0.00  0.00    -0.064 A 
ATOM     11  C   UNL     1       1.025  -5.190   3.477  0.00  0.00    +0.002 A 
ATOM     12  C   UNL     1       1.204  -3.821   3.421  0.00  0.00    +0.005 A 
BRANCH  10  13
ATOM     13  C   UNL     1      -0.376  -7.239   3.151  0.00  0.00    -0.044 C 
BRANCH  13  14
ATOM     14  N   UNL     1       0.025  -7.835   1.870  0.00  0.00    +0.379 N 
ATOM     15  C   UNL     1       1.466  -7.638   1.668  0.00  0.00    -0.096 C 
ATOM     16  C   UNL     1      -0.277  -9.272   1.883  0.00  0.00    -0.096 C 
ATOM     17  H   UNL     1      -0.483  -7.392   1.119  0.00  0.00    -0.082 HD
ENDBRANCH  13  14
ENDBRANCH  10  13
ENDBRANCH   6   7
ENDBRANCH   1   6
BRANCH   2  18
ATOM     18  C   UNL     1       2.756  -0.706   0.050  0.00  0.00    +0.123 C 
BRANCH  18  19
ATOM     19  C   UNL     1       4.285  -0.733   0.080  0.00  0.00    +0.114 C 
BRANCH  19  20
ATOM     20  C   UNL     1       4.820  -0.468  -1.304  0.00  0.00    -0.024 A 
ATOM     21  C   UNL     1       3.990   0.059  -2.276  0.00  0.00    +0.006 A 
ATOM     22  C   UNL     1       4.479   0.302  -3.546  0.00  0.00    +0.000 A 
ATOM     23  C   UNL     1       5.800   0.019  -3.843  0.00  0.00    +0.000 A 
ATOM     24  C   UNL     1       6.630  -0.506  -2.871  0.00  0.00    +0.004 A 
ATOM     25  C   UNL     1       6.141  -0.745  -1.600  0.00  0.00    -0.045 A 
ATOM     26  C   UNL     1       7.047  -1.313  -0.538  0.00  0.00    +0.044 C 
ENDBRANCH  19  20
BRANCH  19  27
ATOM     27  N   UNL     1       4.774   0.299   0.998  0.00  0.00    -0.292 N 
ATOM     28  C   UNL     1       4.555   1.601   0.726  0.00  0.00    +0.298 C 
ATOM     29  O   UNL     1       3.874   1.916  -0.231  0.00  0.00    -0.253 OA
ATOM     30  N   UNL     1       5.092   2.554   1.514  0.00  0.00    -0.313 N 
ATOM     31  H   UNL     1       5.254   0.046   1.802  0.00  0.00    +0.151 HD
ATOM     32  H   UNL     1       5.635   2.302   2.277  0.00  0.00    +0.146 HD
ATOM     33  H   UNL     1       4.935   3.491   1.318  0.00  0.00    +0.146 HD
ENDBRANCH  19  27
ENDBRANCH  18  19
ENDBRANCH   2  18
TORSDOF 9
