REMARK  Name = ZINC39669191
REMARK  5 active torsions:
REMARK  status: ('A' for Active; 'I' for Inactive)
REMARK    1  A    between atoms: C_4  and  C_7
REMARK    2  A    between atoms: C_10  and  C_12
REMARK    3  A    between atoms: C_16  and  C_25
REMARK    4  A    between atoms: N_27  and  C_28
REMARK    5  A    between atoms: C_28  and  C_29
REMARK                            x       y       z     vdW  Elec       q    Type
REMARK                         _______ _______ _______ _____ _____    ______ ____
ROOT
ATOM      1  C   UNL     1       7.021  -0.759  -0.178  0.00  0.00    +0.282 C 
ATOM      2  O   UNL     1       7.701  -1.768  -0.228  0.00  0.00    -0.267 OA
ATOM      3  N   UNL     1       7.614   0.451  -0.131  0.00  0.00    -0.294 N 
ATOM      4  C   UNL     1       6.961   1.779  -0.061  0.00  0.00    +0.121 C 
ATOM      5  C   UNL     1       7.840   2.596   0.912  0.00  0.00    +0.100 C 
ATOM      6  C   UNL     1       9.220   1.919   0.856  0.00  0.00    -0.004 C 
ATOM      7  C   UNL     1       9.065   0.753  -0.131  0.00  0.00    +0.115 C 
ATOM      8  C   UNL     1       9.604   1.388   2.234  0.00  0.00    -0.010 C 
ATOM      9  C   UNL     1      11.004   0.770   2.165  0.00  0.00    -0.082 C 
ATOM     10  N   UNL     1      11.968   1.785   1.723  0.00  0.00    +0.379 N 
ATOM     11  C   UNL     1      11.644   2.224   0.360  0.00  0.00    -0.082 C 
ATOM     12  C   UNL     1      10.272   2.903   0.352  0.00  0.00    -0.010 C 
ATOM     13  H   UNL     1      11.930   2.577   2.348  0.00  0.00    -0.086 HD
ATOM     14  H   UNL     1      12.897   1.393   1.737  0.00  0.00    -0.086 HD
ENDROOT
BRANCH   1  18
ATOM     15  C   UNL     1       3.436  -0.298  -0.125  0.00  0.00    +0.136 A 
ATOM     16  C   UNL     1       3.480  -1.661  -0.184  0.00  0.00    +0.050 A 
ATOM     17  C   UNL     1       4.830  -2.028  -0.213  0.00  0.00    +0.055 A 
ATOM     18  C   UNL     1       5.560  -0.860  -0.170  0.00  0.00    +0.190 A 
ATOM     19  O   UNL     1       4.694   0.174  -0.122  0.00  0.00    -0.450 OA
BRANCH  15  23
ATOM     20  C   UNL     1      -0.092   2.061   0.011  0.00  0.00    +0.000 A 
ATOM     21  C   UNL     1       1.147   2.675   0.021  0.00  0.00    +0.001 A 
ATOM     22  C   UNL     1       2.298   1.915  -0.023  0.00  0.00    +0.011 A 
ATOM     23  C   UNL     1       2.209   0.523  -0.077  0.00  0.00    +0.017 A 
ATOM     24  C   UNL     1       0.954  -0.090  -0.086  0.00  0.00    +0.011 A 
ATOM     25  C   UNL     1      -0.188   0.682  -0.043  0.00  0.00    +0.001 A 
ENDBRANCH  15  23
ENDBRANCH   1  18
BRANCH   5  26
ATOM     26  C   UNL     1       7.277   2.531   2.308  0.00  0.00    +0.218 C 
ATOM     27  O   UNL     1       6.664   1.549   2.670  0.00  0.00    -0.275 OA
ATOM     28  N   UNL     1       7.456   3.563   3.156  0.00  0.00    -0.312 N 
ATOM     29  H   UNL     1       7.947   4.348   2.867  0.00  0.00    +0.149 HD
BRANCH  28  30
ATOM     30  C   UNL     1       6.909   3.500   4.513  0.00  0.00    +0.140 C 
BRANCH  30  31
ATOM     31  C   UNL     1       7.251   4.790   5.262  0.00  0.00    +0.165 C 
ATOM     32  C   UNL     1       6.680   4.725   6.655  0.00  0.00    -0.014 A 
ATOM     33  C   UNL     1       5.391   4.243   6.824  0.00  0.00    +0.006 A 
ATOM     34  C   UNL     1       4.834   4.174   8.086  0.00  0.00    +0.000 A 
ATOM     35  C   UNL     1       5.564   4.586   9.185  0.00  0.00    +0.000 A 
ATOM     36  C   UNL     1       6.849   5.064   9.018  0.00  0.00    +0.004 A 
ATOM     37  C   UNL     1       7.410   5.132   7.752  0.00  0.00    -0.040 A 
ATOM     38  C   UNL     1       8.819   5.647   7.610  0.00  0.00    +0.063 C 
ATOM     39  C   UNL     1       9.086   6.028   6.152  0.00  0.00    +0.165 C 
ATOM     40  O   UNL     1       8.669   4.942   5.319  0.00  0.00    -0.370 OA
ENDBRANCH  30  31
ENDBRANCH  28  30
ENDBRANCH   5  26
TORSDOF 5
