REMARK  Name = ZINC66445359
REMARK  5 active torsions:
REMARK  status: ('A' for Active; 'I' for Inactive)
REMARK    1  A    between atoms: C_1  and  C_2
REMARK    2  A    between atoms: C_11  and  C_14
REMARK    3  A    between atoms: N_16  and  C_17
REMARK    4  A    between atoms: C_17  and  C_18
REMARK    5  A    between atoms: C_18  and  C_23
REMARK                            x       y       z     vdW  Elec       q    Type
REMARK                         _______ _______ _______ _____ _____    ______ ____
ROOT
ATOM      1  C   UNL     1      -0.019   1.526   0.010  0.00  0.00    +0.062 C 
ATOM      2  C   UNL     1       0.002  -0.004   0.002  0.00  0.00    +0.256 C 
ATOM      3  C   UNL     1       0.707  -0.490  -1.239  0.00  0.00    +0.258 C 
ATOM      4  O   UNL     1       0.074  -0.718  -2.249  0.00  0.00    -0.271 OA
ATOM      5  N   UNL     1       2.045  -0.670  -1.222  0.00  0.00    -0.280 N 
ATOM      6  C   UNL     1       2.747  -0.434  -0.031  0.00  0.00    +0.076 A 
ATOM      7  C   UNL     1       4.124  -0.293  -0.038  0.00  0.00    +0.027 A 
ATOM      8  C   UNL     1       4.806  -0.060   1.145  0.00  0.00    +0.003 A 
ATOM      9  C   UNL     1       4.122   0.033   2.337  0.00  0.00    +0.017 A 
ATOM     10  C   UNL     1       2.731  -0.107   2.361  0.00  0.00    +0.080 A 
ATOM     11  C   UNL     1       2.042  -0.341   1.167  0.00  0.00    +0.155 A 
ATOM     12  O   UNL     1       0.693  -0.477   1.161  0.00  0.00    -0.477 OA
ATOM     13  H   UNL     1       2.514  -0.958  -2.021  0.00  0.00    +0.155 HD
ENDROOT
BRANCH  10  14
ATOM     14  C   UNL     1       1.996  -0.008   3.636  0.00  0.00    +0.248 C 
ATOM     15  O   UNL     1       0.786  -0.130   3.652  0.00  0.00    -0.270 OA
ATOM     16  N   UNL     1       2.665   0.218   4.784  0.00  0.00    -0.311 N 
ATOM     17  H   UNL     1       3.630   0.316   4.772  0.00  0.00    +0.149 HD
BRANCH  16  18
ATOM     18  C   UNL     1       1.935   0.317   6.051  0.00  0.00    +0.111 C 
BRANCH  18  19
ATOM     19  C   UNL     1       2.923   0.574   7.190  0.00  0.00    -0.017 C 
ATOM     20  C   UNL     1       3.633   1.923   6.978  0.00  0.00    +0.008 C 
ATOM     21  C   UNL     1       3.283   2.801   8.197  0.00  0.00    +0.001 C 
ATOM     22  C   UNL     1       2.927   1.784   9.309  0.00  0.00    +0.001 C 
ATOM     23  C   UNL     1       2.167   0.680   8.531  0.00  0.00    +0.008 C 
ATOM     24  C   UNL     1       3.953  -0.556   7.256  0.00  0.00    +0.013 C 
ENDBRANCH  18  19
ENDBRANCH  16  18
ENDBRANCH  10  14
TORSDOF 3
