REMARK  Name = ZINC67469417
REMARK  9 active torsions:
REMARK  status: ('A' for Active; 'I' for Inactive)
REMARK    1  A    between atoms: C_1  and  C_2
REMARK    2  A    between atoms: C_7  and  C_9
REMARK    3  A    between atoms: C_7  and  C_10
REMARK    4  A    between atoms: N_13  and  C_14
REMARK    5  A    between atoms: C_14  and  C_16
REMARK    6  A    between atoms: C_14  and  C_17
REMARK    7  A    between atoms: C_21  and  S_23
REMARK    8  A    between atoms: S_23  and  N_26
REMARK    9  A    between atoms: N_26  and  C_27
REMARK                            x       y       z     vdW  Elec       q    Type
REMARK                         _______ _______ _______ _____ _____    ______ ____
ROOT
ATOM      1  C   UNL     1      -3.705  -3.198  -2.392  0.00  0.00    +0.102 C 
ATOM      2  C   UNL     1      -5.005  -3.520  -1.651  0.00  0.00    +0.033 C 
ENDROOT
BRANCH   1  14
ATOM      3  C   UNL     1      -0.009   1.522   0.006  0.00  0.00    +0.039 C 
ATOM      4  C   UNL     1       0.008  -0.008   0.001  0.00  0.00    +0.133 C 
ATOM      5  C   UNL     1      -1.431  -0.536   0.012  0.00  0.00    +0.140 C 
ATOM      6  N   UNL     1      -1.389  -1.995   0.196  0.00  0.00    -0.280 N 
ATOM      7  C   UNL     1      -0.582  -2.530   1.304  0.00  0.00    +0.143 C 
ATOM      8  C   UNL     1       0.816  -1.905   1.230  0.00  0.00    +0.080 C 
ATOM      9  O   UNL     1       0.693  -0.482   1.162  0.00  0.00    -0.368 OA
ATOM     10  C   UNL     1       1.538  -2.414  -0.019  0.00  0.00    +0.043 C 
ATOM     11  C   UNL     1       1.615  -2.290   2.476  0.00  0.00    +0.043 C 
ATOM     12  C   UNL     1      -2.068  -2.818  -0.627  0.00  0.00    +0.303 C 
ATOM     13  O   UNL     1      -1.946  -4.023  -0.519  0.00  0.00    -0.253 OA
ATOM     14  N   UNL     1      -2.884  -2.306  -1.570  0.00  0.00    -0.293 N 
ATOM     15  H   UNL     1      -2.927  -1.346  -1.704  0.00  0.00    +0.151 HD
ENDBRANCH   1  14
BRANCH   1  16
ATOM     16  C   UNL     1      -4.027  -2.522  -3.700  0.00  0.00    -0.026 A 
ATOM     17  C   UNL     1      -4.329  -1.173  -3.725  0.00  0.00    +0.005 A 
ATOM     18  C   UNL     1      -4.623  -0.554  -4.925  0.00  0.00    +0.002 A 
ATOM     19  C   UNL     1      -4.615  -1.283  -6.100  0.00  0.00    +0.028 A 
ATOM     20  C   UNL     1      -4.312  -2.631  -6.074  0.00  0.00    +0.106 A 
ATOM     21  C   UNL     1      -4.013  -3.250  -4.875  0.00  0.00    +0.034 A 
BRANCH  20  22
ATOM     22  S   UNL     1      -4.303  -3.560  -7.572  0.00  0.00    +0.058 S 
ATOM     23  O   UNL     1      -4.523  -4.917  -7.209  0.00  0.00    -0.153 OA
ATOM     24  O   UNL     1      -5.145  -2.869  -8.484  0.00  0.00    -0.153 OA
BRANCH  22  25
ATOM     25  N   UNL     1      -2.768  -3.478  -8.189  0.00  0.00    -0.193 NA
ATOM     26  C   UNL     1      -1.651  -4.083  -7.459  0.00  0.00    +0.127 C 
ATOM     27  H   UNL     1      -2.609  -3.030  -9.034  0.00  0.00    +0.148 HD
ENDBRANCH  22  25
ENDBRANCH  20  22
ENDBRANCH   1  16
TORSDOF 4
