REMARK  Name = ZINC35455588
REMARK  7 active torsions:
REMARK  status: ('A' for Active; 'I' for Inactive)
REMARK    1  A    between atoms: C_1  and  C_2
REMARK    2  A    between atoms: C_6  and  N_9
REMARK    3  A    between atoms: C_7  and  C_8
REMARK    4  A    between atoms: C_11  and  C_20
REMARK    5  A    between atoms: C_12  and  C_14
REMARK    6  A    between atoms: N_24  and  C_28
REMARK    7  A    between atoms: C_28  and  C_29
REMARK                            x       y       z     vdW  Elec       q    Type
REMARK                         _______ _______ _______ _____ _____    ______ ____
ROOT
ATOM      1  N   UNL     1       0.250  -3.017   2.240  0.00  0.00    -0.195 N 
ATOM      2  C   UNL     1       0.304  -4.365   2.221  0.00  0.00    +0.281 A 
ATOM      3  C   UNL     1       0.418  -4.800   3.538  0.00  0.00    +0.071 A 
ATOM      4  C   UNL     1       0.428  -3.589   4.370  0.00  0.00    +0.104 A 
ATOM      5  N   UNL     1       0.332  -2.562   3.558  0.00  0.00    -0.162 NA
ATOM      6  O   UNL     1       0.257  -5.152   1.120  0.00  0.00    -0.265 OA
ENDROOT
BRANCH   3   7
ATOM      7  C   UNL     1       0.508  -6.184   4.001  0.00  0.00    +0.044 C 
ATOM      8  C   UNL     1      -0.392  -7.108   3.565  0.00  0.00    +0.099 C 
ATOM      9  C   UNL     1      -0.448  -8.482   3.920  0.00  0.00    +0.269 C 
ATOM     10  O   UNL     1       0.306  -9.064   4.679  0.00  0.00    -0.268 OA
ATOM     11  N   UNL     1      -1.491  -9.019   3.259  0.00  0.00    -0.216 N 
ATOM     12  C   UNL     1      -2.091  -8.073   2.516  0.00  0.00    +0.313 C 
ATOM     13  O   UNL     1      -3.063  -8.253   1.808  0.00  0.00    -0.252 OA
ATOM     14  N   UNL     1      -1.459  -6.895   2.677  0.00  0.00    -0.265 N 
ATOM     15  H   UNL     1      -1.696  -6.055   2.255  0.00  0.00    +0.157 HD
BRANCH  11  16
ATOM     16  C   UNL     1      -1.909 -10.421   3.338  0.00  0.00    +0.153 C 
BRANCH  16  17
ATOM     17  C   UNL     1      -2.906 -10.586   4.456  0.00  0.00    -0.030 A 
ATOM     18  C   UNL     1      -2.468 -10.879   5.734  0.00  0.00    +0.005 A 
ATOM     19  C   UNL     1      -3.382 -11.031   6.760  0.00  0.00    +0.000 A 
ATOM     20  C   UNL     1      -4.734 -10.888   6.508  0.00  0.00    +0.000 A 
ATOM     21  C   UNL     1      -5.171 -10.594   5.230  0.00  0.00    +0.000 A 
ATOM     22  C   UNL     1      -4.257 -10.438   4.205  0.00  0.00    +0.005 A 
ENDBRANCH  16  17
ENDBRANCH  11  16
ENDBRANCH   3   7
BRANCH   1  28
ATOM     23  C   UNL     1       1.777   0.885  -0.335  0.00  0.00    +0.044 C 
ATOM     24  C   UNL     1       0.862  -0.300  -0.163  0.00  0.00    -0.046 A 
ATOM     25  C   UNL     1      -0.093  -0.580  -1.123  0.00  0.00    +0.004 A 
ATOM     26  C   UNL     1      -0.935  -1.666  -0.970  0.00  0.00    +0.002 A 
ATOM     27  C   UNL     1      -0.824  -2.475   0.144  0.00  0.00    +0.028 A 
ATOM     28  C   UNL     1       0.135  -2.198   1.109  0.00  0.00    +0.072 A 
ATOM     29  C   UNL     1       0.983  -1.109   0.949  0.00  0.00    -0.022 A 
ATOM     30  C   UNL     1       2.028  -0.807   1.992  0.00  0.00    +0.046 C 
ENDBRANCH   1  28
BRANCH   4  31
ATOM     31  C   UNL     1       0.533  -3.538   5.848  0.00  0.00    +0.003 A 
ATOM     32  C   UNL     1      -0.059  -4.531   6.626  0.00  0.00    +0.010 A 
ATOM     33  C   UNL     1       0.042  -4.478   8.002  0.00  0.00    +0.001 A 
ATOM     34  C   UNL     1       0.729  -3.441   8.607  0.00  0.00    +0.000 A 
ATOM     35  C   UNL     1       1.318  -2.452   7.840  0.00  0.00    +0.001 A 
ATOM     36  C   UNL     1       1.228  -2.498   6.464  0.00  0.00    +0.010 A 
ENDBRANCH   4  31
TORSDOF 5
