REMARK  Name = ZINC08310534
REMARK  6 active torsions:
REMARK  status: ('A' for Active; 'I' for Inactive)
REMARK    1  A    between atoms: C_6  and  C_7
REMARK    2  A    between atoms: C_12  and  C_13
REMARK    3  A    between atoms: C_12  and  N_64
REMARK    4  A    between atoms: N_18  and  C_19
REMARK    5  A    between atoms: C_19  and  C_20
REMARK    6  A    between atoms: C_20  and  C_21
REMARK                            x       y       z     vdW  Elec       q    Type
REMARK                         _______ _______ _______ _____ _____    ______ ____
ROOT
ATOM      1  C   UNL     1      -1.213   3.508   0.027  0.00  0.00    +0.020 C 
ENDROOT
BRANCH   1   2
ATOM      2  C   UNL     1      -1.192   2.002   0.019  0.00  0.00    +0.204 C 
ATOM      3  O   UNL     1      -2.234   1.381   0.020  0.00  0.00    -0.277 OA
ATOM      4  N   UNL     1      -0.016   1.344   0.009  0.00  0.00    -0.242 N 
ATOM      5  C   UNL     1       0.002  -0.004   0.002  0.00  0.00    +0.306 C 
ATOM      6  O   UNL     1      -1.042  -0.626   0.009  0.00  0.00    -0.252 OA
ATOM      7  N   UNL     1       1.178  -0.662  -0.013  0.00  0.00    -0.299 N 
ATOM      8  H   UNL     1       0.817   1.840   0.004  0.00  0.00    +0.159 HD
ATOM      9  H   UNL     1       2.012  -0.166  -0.018  0.00  0.00    +0.150 HD
BRANCH   7  10
ATOM     10  C   UNL     1       1.198  -2.127  -0.021  0.00  0.00    +0.110 C 
BRANCH  10  11
ATOM     11  C   UNL     1       2.647  -2.617  -0.037  0.00  0.00    +0.049 C 
BRANCH  11  12
ATOM     12  C   UNL     1       2.668  -4.124  -0.046  0.00  0.00    -0.072 C 
ATOM     13  C   UNL     1       2.760  -4.723  -1.189  0.00  0.00    -0.028 C 
ATOM     14  C   UNL     1       2.786  -6.214  -1.357  0.00  0.00    +0.027 C 
ATOM     15  C   UNL     1       3.106  -6.891  -0.022  0.00  0.00    +0.004 C 
ATOM     16  C   UNL     1       2.186  -6.300   1.054  0.00  0.00    +0.005 C 
ATOM     17  C   UNL     1       2.574  -4.836   1.272  0.00  0.00    +0.030 C 
ENDBRANCH  11  12
ENDBRANCH  10  11
ENDBRANCH   7  10
ENDBRANCH   1   2
BRANCH   1  22
ATOM     18  C   UNL     1      -2.670   5.442   0.285  0.00  0.00    -0.037 C 
ATOM     19  C   UNL     1      -4.052   5.868  -0.256  0.00  0.00    -0.013 C 
ATOM     20  C   UNL     1      -4.422   4.792  -1.298  0.00  0.00    -0.020 C 
ATOM     21  C   UNL     1      -3.233   3.808  -1.299  0.00  0.00    -0.077 C 
ATOM     22  N   UNL     1      -2.627   4.000   0.016  0.00  0.00    +0.390 N 
ATOM     23  H   UNL     1      -3.165   3.494   0.728  0.00  0.00    -0.080 HD
BRANCH  18  29
ATOM     24  C   UNL     1      -3.230   4.916   2.666  0.00  0.00    +0.006 A 
ATOM     25  C   UNL     1      -3.144   5.173   4.023  0.00  0.00    +0.049 A 
ATOM     26  C   UNL     1      -2.398   6.248   4.472  0.00  0.00    +0.162 A 
ATOM     27  C   UNL     1      -1.738   7.065   3.564  0.00  0.00    +0.162 A 
ATOM     28  C   UNL     1      -1.821   6.802   2.208  0.00  0.00    +0.051 A 
ATOM     29  C   UNL     1      -2.572   5.729   1.761  0.00  0.00    -0.057 A 
ATOM     30  O   UNL     1      -1.005   8.123   4.018  0.00  0.00    -0.488 OA
ATOM     31  C   UNL     1      -1.749   9.194   4.602  0.00  0.00    +0.232 C 
ATOM     32  C   UNL     1      -2.041   8.912   6.067  0.00  0.00    +0.082 C 
ATOM     33  C   UNL     1      -2.949   7.706   6.255  0.00  0.00    +0.232 C 
ATOM     34  O   UNL     1      -2.304   6.512   5.808  0.00  0.00    -0.488 OA
ENDBRANCH  18  29
ENDBRANCH   1  22
TORSDOF 6
