REMARK  Name = ZINC57783357
REMARK  13 active torsions:
REMARK  status: ('A' for Active; 'I' for Inactive)
REMARK    1  A    between atoms: C_1  and  C_2
REMARK    2  A    between atoms: C_5  and  C_33
REMARK    3  A    between atoms: C_6  and  O_8
REMARK    4  A    between atoms: O_8  and  C_9
REMARK    5  A    between atoms: C_9  and  C_10
REMARK    6  A    between atoms: C_13  and  S_16
REMARK    7  A    between atoms: N_14  and  N_15
REMARK    8  A    between atoms: S_16  and  C_17
REMARK    9  A    between atoms: C_17  and  C_19
REMARK   10  A    between atoms: C_17  and  C_20
REMARK   11  A    between atoms: C_30  and  C_32
REMARK   12  A    between atoms: C_33  and  C_34
REMARK   13  A    between atoms: C_33  and  C_35
REMARK                            x       y       z     vdW  Elec       q    Type
REMARK                         _______ _______ _______ _____ _____    ______ ____
ROOT
ATOM      1  C   UNL     1       0.155  -2.828   4.816  0.00  0.00    +0.189 A 
ATOM      2  N   UNL     1      -0.885  -3.448   5.297  0.00  0.00    -0.128 NA
ATOM      3  N   UNL     1      -0.534  -4.207   6.273  0.00  0.00    -0.121 NA
ATOM      4  C   UNL     1       0.760  -4.111   6.470  0.00  0.00    +0.209 A 
ATOM      5  N   UNL     1       1.241  -3.232   5.543  0.00  0.00    -0.225 N 
ENDROOT
BRANCH   5   6
ATOM      6  N   UNL     1       2.538  -2.835   5.377  0.00  0.00    -0.295 N 
ATOM      7  H   UNL     1       2.741  -2.021   5.936  0.00  0.00    +0.163 HD
ATOM      8  H   UNL     1       3.176  -3.588   5.588  0.00  0.00    +0.163 HD
ENDBRANCH   5   6
BRANCH   1   9
ATOM      9  C   UNL     1       0.161  -1.852   3.668  0.00  0.00    +0.306 C 
BRANCH   9  10
ATOM     10  O   UNL     1       0.362  -2.558   2.443  0.00  0.00    -0.484 OA
BRANCH  10  16
ATOM     11  C   UNL     1       0.094   1.801   0.266  0.00  0.00    +0.044 C 
ATOM     12  C   UNL     1       0.267   0.306   0.202  0.00  0.00    -0.047 A 
ATOM     13  C   UNL     1       0.458  -0.316  -1.018  0.00  0.00    +0.004 A 
ATOM     14  C   UNL     1       0.618  -1.688  -1.080  0.00  0.00    +0.008 A 
ATOM     15  C   UNL     1       0.586  -2.441   0.077  0.00  0.00    -0.003 A 
ATOM     16  C   UNL     1       0.394  -1.820   1.303  0.00  0.00    +0.125 A 
ATOM     17  C   UNL     1       0.241  -0.442   1.363  0.00  0.00    +0.049 A 
BRANCH  15  18
ATOM     18  C   UNL     1       0.759  -3.937   0.009  0.00  0.00    +0.016 C 
ATOM     19  C   UNL     1      -0.351  -4.540  -0.854  0.00  0.00    +0.012 C 
ATOM     20  C   UNL     1       2.120  -4.265  -0.608  0.00  0.00    +0.012 C 
ENDBRANCH  15  18
ENDBRANCH  10  16
ENDBRANCH   9  10
ENDBRANCH   1   9
BRANCH   4  21
ATOM     21  S   UNL     1       1.700  -4.961   7.694  0.00  0.00    -0.072 S 
BRANCH  21  22
ATOM     22  C   UNL     1       0.470  -5.962   8.575  0.00  0.00    +0.137 C 
ATOM     23  C   UNL     1      -0.515  -5.040   9.297  0.00  0.00    +0.029 C 
BRANCH  22  24
ATOM     24  C   UNL     1       1.165  -6.841   9.582  0.00  0.00    +0.233 C 
ATOM     25  O   UNL     1       2.329  -6.642   9.860  0.00  0.00    -0.274 OA
ATOM     26  N   UNL     1       0.494  -7.849  10.174  0.00  0.00    -0.267 N 
ATOM     27  C   UNL     1      -0.824  -8.213   9.884  0.00  0.00    +0.040 A 
ATOM     28  C   UNL     1      -1.715  -7.655   8.965  0.00  0.00    +0.024 A 
ATOM     29  C   UNL     1      -2.987  -8.168   8.831  0.00  0.00    +0.002 A 
ATOM     30  C   UNL     1      -3.391  -9.240   9.605  0.00  0.00    +0.000 A 
ATOM     31  C   UNL     1      -2.515  -9.798  10.517  0.00  0.00    +0.005 A 
ATOM     32  C   UNL     1      -1.238  -9.287  10.655  0.00  0.00    -0.024 A 
ATOM     33  C   UNL     1      -0.098  -9.699  11.559  0.00  0.00    +0.059 C 
ATOM     34  C   UNL     1       1.042  -8.727  11.212  0.00  0.00    +0.083 C 
ATOM     35  C   UNL     1       2.251  -9.494  10.674  0.00  0.00    +0.029 C 
ENDBRANCH  22  24
ENDBRANCH  21  22
ENDBRANCH   4  21
TORSDOF 8
