REMARK  Name = ZINC36313139
REMARK  16 active torsions:
REMARK  status: ('A' for Active; 'I' for Inactive)
REMARK    1  A    between atoms: C_1  and  C_2
REMARK    2  A    between atoms: C_2  and  C_3
REMARK    3  A    between atoms: C_2  and  C_4
REMARK    4  A    between atoms: C_4  and  C_5
REMARK    5  A    between atoms: C_5  and  N_6
REMARK    6  A    between atoms: N_6  and  C_7
REMARK    7  A    between atoms: N_6  and  C_22
REMARK    8  A    between atoms: C_7  and  C_8
REMARK    9  A    between atoms: C_15  and  C_19
REMARK   10  A    between atoms: C_19  and  C_20
REMARK   11  A    between atoms: C_19  and  C_21
REMARK   12  A    between atoms: C_22  and  C_23
REMARK   13  A    between atoms: C_23  and  C_25
REMARK   14  A    between atoms: C_23  and  O_34
REMARK   15  A    between atoms: C_25  and  O_26
REMARK   16  A    between atoms: O_26  and  C_27
REMARK                            x       y       z     vdW  Elec       q    Type
REMARK                         _______ _______ _______ _____ _____    ______ ____
ROOT
ATOM      1  N   UNL     1      -3.473  -0.737  -1.331  0.00  0.00    +0.386 N 
ATOM      2  H   UNL     1      -3.346  -1.709  -1.094  0.00  0.00    -0.081 HD
ENDROOT
BRANCH   1   3
ATOM      3  C   UNL     1      -2.167  -0.065  -1.356  0.00  0.00    -0.078 C 
BRANCH   3   4
ATOM      4  C   UNL     1      -1.448  -0.299  -0.026  0.00  0.00    -0.016 C 
BRANCH   4   6
ATOM      5  C   UNL     1      -0.119   1.805  -0.253  0.00  0.00    +0.007 C 
ATOM      6  C   UNL     1      -0.035   0.285  -0.101  0.00  0.00    -0.019 C 
ATOM      7  C   UNL     1       0.727  -0.058   1.181  0.00  0.00    +0.007 C 
ENDBRANCH   4   6
ENDBRANCH   3   4
ENDBRANCH   1   3
BRANCH   1   8
ATOM      8  C   UNL     1      -4.102  -0.634  -2.655  0.00  0.00    -0.003 C 
BRANCH   8   9
ATOM      9  C   UNL     1      -3.280  -1.397  -3.662  0.00  0.00    +0.094 A 
ATOM     10  N   UNL     1      -3.678  -1.430  -4.960  0.00  0.00    -0.312 N 
ATOM     11  H   UNL     1      -4.487  -0.963  -5.221  0.00  0.00    +0.170 HD
ATOM     12  C   UNL     1      -2.973  -2.098  -5.891  0.00  0.00    +0.260 A 
ATOM     13  O   UNL     1      -3.344  -2.118  -7.052  0.00  0.00    -0.267 OA
ATOM     14  C   UNL     1      -1.780  -2.786  -5.497  0.00  0.00    +0.072 A 
ATOM     15  C   UNL     1      -0.858  -3.566  -6.302  0.00  0.00    +0.027 A 
ATOM     16  C   UNL     1       0.210  -4.129  -5.714  0.00  0.00    -0.005 A 
ATOM     17  S   UNL     1       0.049  -3.640  -4.008  0.00  0.00    -0.073 S 
ATOM     18  C   UNL     1      -1.448  -2.695  -4.133  0.00  0.00    +0.116 A 
ATOM     19  N   UNL     1      -2.194  -2.009  -3.272  0.00  0.00    -0.229 NA
BRANCH  16  20
ATOM     20  C   UNL     1       1.288  -4.972  -6.346  0.00  0.00    +0.020 C 
ATOM     21  C   UNL     1       2.646  -4.295  -6.151  0.00  0.00    +0.013 C 
ATOM     22  C   UNL     1       1.307  -6.353  -5.687  0.00  0.00    +0.013 C 
ENDBRANCH  16  20
ENDBRANCH   8   9
ENDBRANCH   1   8
BRANCH   1  23
ATOM     23  C   UNL     1      -4.335  -0.097  -0.329  0.00  0.00    -0.043 C 
BRANCH  23  24
ATOM     24  C   UNL     1      -5.639  -0.886  -0.198  0.00  0.00    +0.135 C 
BRANCH  24  25
ATOM     25  O   UNL     1      -5.346  -2.223   0.214  0.00  0.00    -0.390 OA
ATOM     26  H   UNL     1      -4.960  -2.287   1.099  0.00  0.00    +0.210 HD
ENDBRANCH  24  25
BRANCH  24  27
ATOM     27  C   UNL     1      -6.538  -0.217   0.844  0.00  0.00    +0.258 C 
BRANCH  27  28
ATOM     28  O   UNL     1      -7.801  -0.885   0.882  0.00  0.00    -0.489 OA
BRANCH  28  29
ATOM     29  C   UNL     1      -8.723  -0.411   1.762  0.00  0.00    +0.121 A 
ATOM     30  C   UNL     1      -8.420   0.678   2.566  0.00  0.00    +0.047 A 
ATOM     31  C   UNL     1      -9.358   1.158   3.459  0.00  0.00    +0.023 A 
ATOM     32  C   UNL     1     -10.599   0.553   3.552  0.00  0.00    +0.041 A 
ATOM     33  C   UNL     1     -10.903  -0.534   2.751  0.00  0.00    +0.023 A 
ATOM     34  C   UNL     1      -9.970  -1.013   1.852  0.00  0.00    +0.047 A 
ATOM     35 CL   UNL     1     -11.777   1.157   4.675  0.00  0.00    -0.084 Cl
ENDBRANCH  28  29
ENDBRANCH  27  28
ENDBRANCH  24  27
ENDBRANCH  23  24
ENDBRANCH   1  23
TORSDOF 12
