REMARK  Name = ZINC15956650
REMARK  8 active torsions:
REMARK  status: ('A' for Active; 'I' for Inactive)
REMARK    1  A    between atoms: C_1  and  C_2
REMARK    2  A    between atoms: C_16  and  C_19
REMARK    3  A    between atoms: C_19  and  C_21
REMARK    4  A    between atoms: C_19  and  O_22
REMARK    5  A    between atoms: N_25  and  C_28
REMARK    6  A    between atoms: C_28  and  C_29
REMARK    7  A    between atoms: C_34  and  O_35
REMARK    8  A    between atoms: O_35  and  C_36
REMARK                            x       y       z     vdW  Elec       q    Type
REMARK                         _______ _______ _______ _____ _____    ______ ____
ROOT
ATOM      1  C   UNL     1      -0.018   1.503   0.010  0.00  0.00    +0.045 C 
ATOM      2  C   UNL     1       0.002  -0.004   0.002  0.00  0.00    -0.029 A 
ATOM      3  C   UNL     1       0.006  -0.685  -1.198  0.00  0.00    +0.005 A 
ATOM      4  C   UNL     1       0.025  -2.068  -1.216  0.00  0.00    +0.001 A 
ATOM      5  C   UNL     1       0.041  -2.772  -0.024  0.00  0.00    +0.008 A 
ATOM      6  C   UNL     1       0.038  -2.096   1.175  0.00  0.00    +0.004 A 
ATOM      7  C   UNL     1       0.023  -0.705   1.205  0.00  0.00    +0.042 A 
ATOM      8  N   UNL     1       0.026  -0.250   2.526  0.00  0.00    -0.283 N 
ATOM      9  C   UNL     1       0.045  -1.264   3.412  0.00  0.00    +0.243 C 
ATOM     10  O   UNL     1       0.047  -1.169   4.621  0.00  0.00    -0.273 OA
ATOM     11  C   UNL     1       0.052  -2.538   2.611  0.00  0.00    +0.136 C 
ATOM     12  C   UNL     1      -1.150  -3.430   2.940  0.00  0.00    +0.123 C 
ATOM     13  C   UNL     1      -0.600  -4.467   3.959  0.00  0.00    +0.109 C 
ATOM     14  C   UNL     1       0.886  -4.091   4.143  0.00  0.00    +0.096 C 
ATOM     15  N   UNL     1       1.250  -3.342   2.919  0.00  0.00    -0.293 NA
ATOM     16  C   UNL     1      -1.367  -4.151   5.224  0.00  0.00    +0.228 C 
ATOM     17  O   UNL     1      -1.244  -4.732   6.281  0.00  0.00    -0.275 OA
ATOM     18  N   UNL     1      -2.202  -3.131   4.995  0.00  0.00    -0.237 N 
ATOM     19  C   UNL     1      -2.169  -2.645   3.733  0.00  0.00    +0.229 C 
ATOM     20  O   UNL     1      -2.839  -1.732   3.302  0.00  0.00    -0.275 OA
ATOM     21  H   UNL     1       0.015   0.687   2.776  0.00  0.00    +0.155 HD
ATOM     22  H   UNL     1       1.461  -3.979   2.166  0.00  0.00    +0.124 HD
ENDROOT
BRANCH  14  23
ATOM     23  C   UNL     1       1.739  -5.353   4.291  0.00  0.00    +0.129 C 
ATOM     24  C   UNL     1       3.206  -4.957   4.472  0.00  0.00    +0.039 C 
BRANCH  23  25
ATOM     25  O   UNL     1       1.302  -6.093   5.432  0.00  0.00    -0.390 OA
ATOM     26  H   UNL     1       1.365  -5.606   6.265  0.00  0.00    +0.210 HD
ENDBRANCH  23  25
ENDBRANCH  14  23
BRANCH  18  27
ATOM     27  C   UNL     1      -3.089  -2.587   6.026  0.00  0.00    +0.155 C 
BRANCH  27  28
ATOM     28  C   UNL     1      -2.379  -1.482   6.766  0.00  0.00    +0.012 A 
ATOM     29  C   UNL     1      -1.801  -1.734   7.995  0.00  0.00    +0.009 A 
ATOM     30  C   UNL     1      -1.150  -0.721   8.675  0.00  0.00    +0.001 A 
ATOM     31  C   UNL     1      -1.076   0.546   8.127  0.00  0.00    +0.004 A 
ATOM     32  C   UNL     1      -1.653   0.803   6.898  0.00  0.00    +0.046 A 
ATOM     33  C   UNL     1      -2.302  -0.213   6.212  0.00  0.00    +0.125 A 
BRANCH  33  34
ATOM     34  O   UNL     1      -2.865   0.036   5.000  0.00  0.00    -0.495 OA
ATOM     35  C   UNL     1      -2.746   1.366   4.490  0.00  0.00    +0.277 C 
ENDBRANCH  33  34
ENDBRANCH  27  28
ENDBRANCH  18  27
TORSDOF 5
