REMARK  Name = ZINC43619392
REMARK  6 active torsions:
REMARK  status: ('A' for Active; 'I' for Inactive)
REMARK    1  A    between atoms: C_4  and  C_7
REMARK    2  A    between atoms: C_8  and  C_9
REMARK    3  A    between atoms: C_9  and  N_10
REMARK    4  A    between atoms: C_22  and  C_24
REMARK    5  A    between atoms: C_24  and  C_25
REMARK    6  A    between atoms: C_28  and  N_31
REMARK                            x       y       z     vdW  Elec       q    Type
REMARK                         _______ _______ _______ _____ _____    ______ ____
ROOT
ATOM      1  N   UNL     1       5.063  -3.726   1.013  0.00  0.00    +0.382 N 
ATOM      2  C   UNL     1       4.029  -4.754   0.855  0.00  0.00    -0.077 C 
ATOM      3  C   UNL     1       4.038  -5.704   2.058  0.00  0.00    +0.004 C 
ATOM      4  C   UNL     1       5.416  -6.356   2.153  0.00  0.00    +0.076 C 
ATOM      5  C   UNL     1       6.471  -5.252   2.294  0.00  0.00    -0.007 C 
ATOM      6  C   UNL     1       6.397  -4.342   1.070  0.00  0.00    -0.073 C 
ATOM      7  C   UNL     1       7.849  -5.896   2.416  0.00  0.00    +0.005 C 
ATOM      8  C   UNL     1       7.888  -6.752   3.687  0.00  0.00    +0.019 C 
ATOM      9  C   UNL     1       6.823  -7.849   3.610  0.00  0.00    +0.108 C 
ATOM     10  N   UNL     1       5.507  -7.237   3.321  0.00  0.00    -0.298 N 
ATOM     11  C   UNL     1       4.430  -7.479   4.095  0.00  0.00    +0.220 C 
ATOM     12  O   UNL     1       3.364  -6.966   3.829  0.00  0.00    -0.275 OA
ATOM     13  H   UNL     1       4.895  -3.214   1.866  0.00  0.00    -0.081 HD
ENDROOT
BRANCH   1  14
ATOM     14  C   UNL     1       5.005  -2.801  -0.127  0.00  0.00    -0.051 C 
BRANCH  14  16
ATOM     15  C   UNL     1       3.655  -0.751  -0.127  0.00  0.00    +0.002 C 
ATOM     16  C   UNL     1       3.684  -2.077  -0.119  0.00  0.00    -0.045 C 
BRANCH  15  20
ATOM     17  C   UNL     1      -0.069   1.291  -0.105  0.00  0.00    +0.000 A 
ATOM     18  C   UNL     1       1.112   2.012  -0.120  0.00  0.00    +0.001 A 
ATOM     19  C   UNL     1       2.325   1.355  -0.127  0.00  0.00    +0.008 A 
ATOM     20  C   UNL     1       2.359  -0.040  -0.119  0.00  0.00    -0.025 A 
ATOM     21  C   UNL     1       1.164  -0.761  -0.104  0.00  0.00    +0.008 A 
ATOM     22  C   UNL     1      -0.042  -0.092  -0.097  0.00  0.00    +0.001 A 
ENDBRANCH  15  20
ENDBRANCH  14  16
ENDBRANCH   1  14
BRANCH  11  23
ATOM     23  C   UNL     1       4.551  -8.389   5.291  0.00  0.00    +0.131 C 
BRANCH  23  24
ATOM     24  C   UNL     1       3.215  -8.492   5.980  0.00  0.00    -0.039 A 
ATOM     25  C   UNL     1       2.882  -7.596   6.979  0.00  0.00    +0.006 A 
ATOM     26  C   UNL     1       1.659  -7.688   7.612  0.00  0.00    +0.024 A 
ATOM     27  C   UNL     1       0.762  -8.682   7.245  0.00  0.00    +0.038 A 
ATOM     28  C   UNL     1       1.099  -9.582   6.242  0.00  0.00    +0.024 A 
ATOM     29  C   UNL     1       2.322  -9.481   5.609  0.00  0.00    +0.006 A 
BRANCH  27  30
ATOM     30  N   UNL     1      -0.479  -8.779   7.885  0.00  0.00    -0.254 N 
ATOM     31  C   UNL     1      -1.558  -9.708   7.517  0.00  0.00    +0.134 C 
ATOM     32  C   UNL     1      -2.676  -9.396   8.531  0.00  0.00    +0.125 C 
ATOM     33  N   UNL     1      -2.108  -8.324   9.362  0.00  0.00    -0.297 N 
ATOM     34  C   UNL     1      -0.870  -8.043   8.934  0.00  0.00    +0.307 C 
ATOM     35  O   UNL     1      -0.167  -7.195   9.448  0.00  0.00    -0.252 OA
ATOM     36  H   UNL     1      -2.558  -7.891  10.105  0.00  0.00    +0.150 HD
ENDBRANCH  27  30
ENDBRANCH  23  24
ENDBRANCH  11  23
TORSDOF 6
