REMARK  Name = ZINC14476565
REMARK  5 active torsions:
REMARK  status: ('A' for Active; 'I' for Inactive)
REMARK    1  A    between atoms: C_4  and  C_7
REMARK    2  A    between atoms: C_7  and  O_8
REMARK    3  A    between atoms: O_8  and  C_9
REMARK    4  A    between atoms: C_14  and  C_15
REMARK    5  A    between atoms: C_28  and  C_31
REMARK                            x       y       z     vdW  Elec       q    Type
REMARK                         _______ _______ _______ _____ _____    ______ ____
ROOT
ATOM      1  C   UNL     1      -0.600   1.229   2.443  0.00  0.00    +0.108 C 
ATOM      2  C   UNL     1      -0.722   2.060   1.183  0.00  0.00    +0.029 C 
ATOM      3  C   UNL     1       0.128   1.660  -0.028  0.00  0.00    +0.033 C 
ATOM      4  C   UNL     1      -0.751   2.135  -1.188  0.00  0.00    -0.030 C 
ATOM      5  C   UNL     1      -2.025   2.153  -0.813  0.00  0.00    -0.023 C 
ATOM      6  C   UNL     1      -2.111   1.667   0.586  0.00  0.00    +0.049 C 
ATOM      7  C   UNL     1      -3.121   2.164   1.545  0.00  0.00    -0.019 A 
ATOM      8  C   UNL     1      -4.353   2.619   1.129  0.00  0.00    +0.006 A 
ATOM      9  C   UNL     1      -5.292   3.067   2.043  0.00  0.00    +0.001 A 
ATOM     10  C   UNL     1      -4.997   3.057   3.389  0.00  0.00    +0.015 A 
ATOM     11  C   UNL     1      -3.784   2.582   3.821  0.00  0.00    +0.058 A 
ATOM     12  C   UNL     1      -2.806   2.150   2.900  0.00  0.00    +0.044 A 
ATOM     13  N   UNL     1      -1.578   1.758   3.407  0.00  0.00    -0.336 N 
ATOM     14  H   UNL     1      -1.693   1.130   4.188  0.00  0.00    +0.147 HD
ENDROOT
BRANCH  11  15
ATOM     15  C   UNL     1      -3.484   2.576   5.265  0.00  0.00    +0.248 C 
ATOM     16  O   UNL     1      -2.422   3.011   5.667  0.00  0.00    -0.270 OA
ATOM     17  N   UNL     1      -4.386   2.087   6.138  0.00  0.00    -0.297 N 
ATOM     18  C   UNL     1      -5.658   1.441   5.784  0.00  0.00    +0.108 C 
ATOM     19  C   UNL     1      -6.366   1.068   7.104  0.00  0.00    +0.020 C 
ATOM     20  C   UNL     1      -5.721   2.040   8.128  0.00  0.00    +0.020 C 
ATOM     21  C   UNL     1      -4.264   2.118   7.607  0.00  0.00    +0.108 C 
ENDBRANCH  11  15
BRANCH   1  27
ATOM     22  C   UNL     1       0.090  -1.048   1.652  0.00  0.00    +0.126 A 
ATOM     23  C   UNL     1      -0.194  -2.378   1.377  0.00  0.00    +0.046 A 
ATOM     24  C   UNL     1      -1.470  -2.866   1.577  0.00  0.00    +0.004 A 
ATOM     25  C   UNL     1      -2.463  -2.032   2.057  0.00  0.00    +0.001 A 
ATOM     26  C   UNL     1      -2.181  -0.708   2.338  0.00  0.00    +0.009 A 
ATOM     27  C   UNL     1      -0.906  -0.215   2.138  0.00  0.00    +0.015 A 
BRANCH  22  28
ATOM     28  O   UNL     1       1.344  -0.564   1.450  0.00  0.00    -0.487 OA
BRANCH  28  29
ATOM     29  C   UNL     1       2.320  -1.479   0.947  0.00  0.00    +0.264 C 
BRANCH  29  33
ATOM     30  C   UNL     1       6.061   0.533   0.495  0.00  0.00    +0.000 A 
ATOM     31  C   UNL     1       5.751  -0.092   1.689  0.00  0.00    +0.000 A 
ATOM     32  C   UNL     1       4.541  -0.743   1.835  0.00  0.00    +0.007 A 
ATOM     33  C   UNL     1       3.639  -0.769   0.788  0.00  0.00    -0.010 A 
ATOM     34  C   UNL     1       3.950  -0.149  -0.408  0.00  0.00    +0.007 A 
ATOM     35  C   UNL     1       5.159   0.506  -0.552  0.00  0.00    +0.000 A 
ENDBRANCH  29  33
ENDBRANCH  28  29
ENDBRANCH  22  28
ENDBRANCH   1  27
TORSDOF 5
