REMARK  Name = ZINC36802505
REMARK  8 active torsions:
REMARK  status: ('A' for Active; 'I' for Inactive)
REMARK    1  A    between atoms: C_1  and  C_2
REMARK    2  A    between atoms: C_5  and  C_27
REMARK    3  A    between atoms: C_10  and  C_12
REMARK    4  A    between atoms: C_12  and  C_14
REMARK    5  A    between atoms: C_12  and  S_15
REMARK    6  A    between atoms: S_15  and  C_16
REMARK    7  A    between atoms: C_19  and  C_22
REMARK    8  A    between atoms: N_20  and  N_21
REMARK                            x       y       z     vdW  Elec       q    Type
REMARK                         _______ _______ _______ _____ _____    ______ ____
ROOT
ATOM      1  S   UNL     1       2.623   2.547   4.024  0.00  0.00    -0.072 S 
ENDROOT
BRANCH   1   2
ATOM      2  C   UNL     1       1.486   3.014   5.287  0.00  0.00    +0.209 A 
ATOM      3  N   UNL     1       0.393   2.370   5.627  0.00  0.00    -0.120 NA
ATOM      4  N   UNL     1      -0.203   2.985   6.585  0.00  0.00    -0.123 NA
ATOM      5  C   UNL     1       0.474   4.062   6.917  0.00  0.00    +0.217 A 
ATOM      6  N   UNL     1       1.581   4.109   6.098  0.00  0.00    -0.221 N 
BRANCH   5   7
ATOM      7  C   UNL     1       0.121   5.029   7.968  0.00  0.00    +0.173 A 
ATOM      8  C   UNL     1      -0.791   4.833   8.961  0.00  0.00    +0.053 A 
ATOM      9  C   UNL     1      -0.807   6.011   9.734  0.00  0.00    +0.042 A 
ATOM     10  C   UNL     1       0.084   6.859   9.182  0.00  0.00    +0.196 A 
ATOM     11  O   UNL     1       0.646   6.261   8.119  0.00  0.00    -0.460 OA
ENDBRANCH   5   7
BRANCH   6  12
ATOM     12  N   UNL     1       2.566   5.056   6.096  0.00  0.00    -0.294 N 
ATOM     13  H   UNL     1       2.339   5.813   5.469  0.00  0.00    +0.163 HD
ATOM     14  H   UNL     1       2.741   5.399   7.029  0.00  0.00    +0.163 HD
ENDBRANCH   6  12
ENDBRANCH   1   2
BRANCH   1  15
ATOM     15  C   UNL     1       1.919   1.022   3.341  0.00  0.00    +0.137 C 
ATOM     16  C   UNL     1       1.933  -0.071   4.411  0.00  0.00    +0.029 C 
BRANCH  15  24
ATOM     17  C   UNL     1       3.648  -2.712   0.948  0.00  0.00    +0.009 C 
ATOM     18  C   UNL     1       2.893  -2.045  -0.203  0.00  0.00    +0.004 C 
ATOM     19  C   UNL     1       1.439  -2.524  -0.205  0.00  0.00    +0.009 C 
ATOM     20  C   UNL     1       0.786  -2.183   1.137  0.00  0.00    +0.004 C 
ATOM     21  C   UNL     1       0.794  -0.664   1.333  0.00  0.00    +0.111 C 
ATOM     22  N   UNL     1       2.173  -0.176   1.192  0.00  0.00    -0.300 N 
ATOM     23  C   UNL     1       2.926  -0.524  -0.022  0.00  0.00    +0.111 C 
ATOM     24  C   UNL     1       2.738   0.577   2.157  0.00  0.00    +0.229 C 
ATOM     25  O   UNL     1       3.905   0.895   2.072  0.00  0.00    -0.274 OA
ATOM     26  C   UNL     1      -0.657  -2.692   1.146  0.00  0.00    +0.009 C 
ENDBRANCH  15  24
ENDBRANCH   1  15
TORSDOF 5
