REMARK  Name = ZINC39610043
REMARK  11 active torsions:
REMARK  status: ('A' for Active; 'I' for Inactive)
REMARK    1  A    between atoms: C_1  and  C_2
REMARK    2  A    between atoms: C_2  and  C_3
REMARK    3  A    between atoms: C_2  and  C_4
REMARK    4  A    between atoms: C_4  and  C_6
REMARK    5  A    between atoms: C_4  and  O_31
REMARK    6  A    between atoms: C_10  and  C_19
REMARK    7  A    between atoms: N_21  and  C_22
REMARK    8  A    between atoms: C_22  and  C_23
REMARK    9  A    between atoms: C_26  and  O_29
REMARK   10  A    between atoms: O_29  and  C_30
REMARK   11  A    between atoms: O_31  and  C_32
REMARK                            x       y       z     vdW  Elec       q    Type
REMARK                         _______ _______ _______ _____ _____    ______ ____
ROOT
ATOM      1  C   UNL     1      -2.446  -0.706  -1.617  0.00  0.00    +0.257 C 
ATOM      2  O   UNL     1      -3.462  -0.044  -1.613  0.00  0.00    -0.272 OA
ATOM      3  N   UNL     1      -1.889  -1.079  -2.787  0.00  0.00    -0.297 N 
ATOM      4  C   UNL     1      -0.664  -1.887  -2.993  0.00  0.00    +0.121 C 
ATOM      5  C   UNL     1      -0.999  -2.808  -4.187  0.00  0.00    +0.100 C 
ATOM      6  C   UNL     1      -2.114  -2.072  -4.949  0.00  0.00    -0.004 C 
ATOM      7  C   UNL     1      -2.368  -0.781  -4.157  0.00  0.00    +0.115 C 
ATOM      8  C   UNL     1      -3.381  -2.921  -4.981  0.00  0.00    -0.010 C 
ATOM      9  C   UNL     1      -4.457  -2.193  -5.792  0.00  0.00    -0.082 C 
ATOM     10  N   UNL     1      -3.968  -1.956  -7.155  0.00  0.00    +0.379 N 
ATOM     11  C   UNL     1      -2.804  -1.063  -7.122  0.00  0.00    -0.082 C 
ATOM     12  C   UNL     1      -1.658  -1.743  -6.367  0.00  0.00    -0.010 C 
ATOM     13  H   UNL     1      -3.704  -2.835  -7.574  0.00  0.00    -0.086 HD
ATOM     14  H   UNL     1      -4.700  -1.532  -7.705  0.00  0.00    -0.086 HD
ENDROOT
BRANCH   5  15
ATOM     15  C   UNL     1      -1.490  -4.146  -3.697  0.00  0.00    +0.218 C 
ATOM     16  O   UNL     1      -2.100  -4.222  -2.651  0.00  0.00    -0.275 OA
ATOM     17  N   UNL     1      -1.251  -5.257  -4.421  0.00  0.00    -0.311 N 
ATOM     18  H   UNL     1      -0.764  -5.196  -5.257  0.00  0.00    +0.149 HD
BRANCH  17  19
ATOM     19  C   UNL     1      -1.728  -6.558  -3.944  0.00  0.00    +0.139 C 
BRANCH  19  20
ATOM     20  C   UNL     1      -1.334  -7.629  -4.929  0.00  0.00    -0.030 A 
ATOM     21  C   UNL     1      -2.182  -7.953  -5.972  0.00  0.00    +0.009 A 
ATOM     22  C   UNL     1      -1.823  -8.935  -6.875  0.00  0.00    +0.046 A 
ATOM     23  C   UNL     1      -0.611  -9.595  -6.735  0.00  0.00    +0.120 A 
ATOM     24  C   UNL     1       0.238  -9.268  -5.688  0.00  0.00    +0.046 A 
ATOM     25  C   UNL     1      -0.123  -8.282  -4.790  0.00  0.00    +0.009 A 
BRANCH  23  26
ATOM     26  O   UNL     1      -0.256 -10.562  -7.623  0.00  0.00    -0.495 OA
ATOM     27  C   UNL     1       1.006 -11.199  -7.417  0.00  0.00    +0.277 C 
ENDBRANCH  23  26
ENDBRANCH  19  20
ENDBRANCH  17  19
ENDBRANCH   5  15
BRANCH   1  28
ATOM     28  C   UNL     1      -1.805  -1.111  -0.315  0.00  0.00    +0.261 C 
BRANCH  28  30
ATOM     29  C   UNL     1      -0.614   1.075  -0.100  0.00  0.00    +0.011 C 
ATOM     30  C   UNL     1      -0.434  -0.442  -0.191  0.00  0.00    +0.033 C 
ATOM     31  C   UNL     1       0.269  -0.949   1.070  0.00  0.00    +0.011 C 
ENDBRANCH  28  30
BRANCH  28  32
ATOM     32  O   UNL     1      -2.636  -0.699   0.773  0.00  0.00    -0.479 OA
BRANCH  32  33
ATOM     33  C   UNL     1      -2.740  -1.551   1.826  0.00  0.00    +0.122 A 
ATOM     34  C   UNL     1      -3.619  -1.271   2.863  0.00  0.00    +0.045 A 
ATOM     35  C   UNL     1      -3.723  -2.139   3.932  0.00  0.00    +0.004 A 
ATOM     36  C   UNL     1      -2.951  -3.286   3.971  0.00  0.00    +0.000 A 
ATOM     37  C   UNL     1      -2.074  -3.567   2.940  0.00  0.00    +0.004 A 
ATOM     38  C   UNL     1      -1.971  -2.705   1.865  0.00  0.00    +0.045 A 
ENDBRANCH  32  33
ENDBRANCH  28  32
ENDBRANCH   1  28
TORSDOF 8
