REMARK  Name = ZINC34145402
REMARK  9 active torsions:
REMARK  status: ('A' for Active; 'I' for Inactive)
REMARK    1  A    between atoms: C_1  and  C_2
REMARK    2  A    between atoms: C_6  and  C_32
REMARK    3  A    between atoms: C_8  and  O_11
REMARK    4  A    between atoms: O_11  and  C_12
REMARK    5  A    between atoms: C_12  and  C_14
REMARK    6  A    between atoms: C_15  and  C_31
REMARK    7  A    between atoms: C_22  and  C_24
REMARK    8  A    between atoms: C_32  and  C_33
REMARK    9  A    between atoms: C_32  and  C_34
REMARK                            x       y       z     vdW  Elec       q    Type
REMARK                         _______ _______ _______ _____ _____    ______ ____
ROOT
ATOM      1  C   UNL     1       3.514  -0.125   3.893  0.00  0.00    +0.082 C 
ATOM      2  C   UNL     1       3.028  -1.053   4.733  0.00  0.00    +0.020 C 
ATOM      3  N   UNL     1       3.722  -1.476   5.839  0.00  0.00    -0.286 N 
ATOM      4  C   UNL     1       5.056  -1.107   5.934  0.00  0.00    +0.240 A 
ATOM      5  N   UNL     1       6.001  -1.521   6.729  0.00  0.00    -0.092 NA
ATOM      6  N   UNL     1       7.105  -0.909   6.468  0.00  0.00    -0.021 NA
ATOM      7  N   UNL     1       6.937  -0.070   5.497  0.00  0.00    -0.042 NA
ATOM      8  N   UNL     1       5.599  -0.167   5.118  0.00  0.00    -0.201 N 
ATOM      9  C   UNL     1       4.851   0.539   4.086  0.00  0.00    +0.181 C 
ATOM     10  C   UNL     1       1.674  -1.651   4.451  0.00  0.00    +0.061 C 
ATOM     11  H   UNL     1       3.296  -2.011   6.527  0.00  0.00    +0.155 HD
ENDROOT
BRANCH   9  12
ATOM     12  C   UNL     1       4.645   1.970   4.512  0.00  0.00    -0.018 A 
ATOM     13  C   UNL     1       4.058   2.251   5.732  0.00  0.00    +0.007 A 
ATOM     14  C   UNL     1       3.869   3.563   6.123  0.00  0.00    +0.015 A 
ATOM     15  C   UNL     1       4.267   4.596   5.293  0.00  0.00    +0.018 A 
ATOM     16  C   UNL     1       4.855   4.314   4.073  0.00  0.00    +0.015 A 
ATOM     17  C   UNL     1       5.048   3.002   3.685  0.00  0.00    +0.007 A 
ATOM     18 BR   UNL     1       4.008   6.391   5.827  0.00  0.00    -0.050 Br
ENDBRANCH   9  12
BRANCH   1  19
ATOM     19  C   UNL     1       2.736   0.241   2.772  0.00  0.00    +0.339 C 
ATOM     20  O   UNL     1       2.077   1.264   2.797  0.00  0.00    -0.245 OA
BRANCH  19  21
ATOM     21  O   UNL     1       2.722  -0.544   1.675  0.00  0.00    -0.458 OA
BRANCH  21  27
ATOM     22  C   UNL     1      -0.105   1.609  -0.625  0.00  0.00    +0.007 C 
ATOM     23  C   UNL     1      -0.237   0.087  -0.552  0.00  0.00    -0.011 C 
ATOM     24  C   UNL     1       0.341  -0.536  -1.825  0.00  0.00    +0.004 C 
ATOM     25  C   UNL     1       1.818  -0.158  -1.952  0.00  0.00    +0.007 C 
ATOM     26  C   UNL     1       2.584  -0.680  -0.735  0.00  0.00    +0.032 C 
ATOM     27  C   UNL     1       2.006  -0.057   0.538  0.00  0.00    +0.180 C 
ATOM     28  C   UNL     1       0.529  -0.434   0.665  0.00  0.00    +0.048 C 
BRANCH  26  29
ATOM     29  C   UNL     1       4.062  -0.302  -0.862  0.00  0.00    -0.011 C 
ATOM     30  C   UNL     1       4.676  -1.040  -2.053  0.00  0.00    +0.007 C 
ATOM     31  C   UNL     1       4.185   1.208  -1.078  0.00  0.00    +0.007 C 
ENDBRANCH  26  29
ENDBRANCH  21  27
ENDBRANCH  19  21
ENDBRANCH   1  19
TORSDOF 5
