REMARK  Name = ZINC14174278
REMARK  7 active torsions:
REMARK  status: ('A' for Active; 'I' for Inactive)
REMARK    1  A    between atoms: C_1  and  C_2
REMARK    2  A    between atoms: C_2  and  C_4
REMARK    3  A    between atoms: C_2  and  S_16
REMARK    4  A    between atoms: N_6  and  C_7
REMARK    5  A    between atoms: S_16  and  C_17
REMARK    6  A    between atoms: C_20  and  C_23
REMARK    7  A    between atoms: C_24  and  C_25
REMARK                            x       y       z     vdW  Elec       q    Type
REMARK                         _______ _______ _______ _____ _____    ______ ____
ROOT
ATOM      1  S   UNL     1       0.849  -0.593  -1.493  0.00  0.00    -0.074 S 
ENDROOT
BRANCH   1   2
ATOM      2  C   UNL     1       2.510  -0.043  -1.286  0.00  0.00    +0.190 A 
ATOM      3  N   UNL     1       3.542  -0.235  -2.160  0.00  0.00    -0.317 N 
ATOM      4  H   UNL     1       3.509  -0.697  -3.013  0.00  0.00    +0.169 HD
ATOM      5  C   UNL     1       4.639   0.365  -1.579  0.00  0.00    +0.155 A 
ATOM      6  N   UNL     1       4.238   0.870  -0.431  0.00  0.00    -0.129 NA
ATOM      7  N   UNL     1       2.986   0.634  -0.263  0.00  0.00    -0.122 NA
BRANCH   5   8
ATOM      8  C   UNL     1       5.994   0.428  -2.134  0.00  0.00    +0.048 C 
ATOM      9  C   UNL     1       6.973   1.051  -1.450  0.00  0.00    +0.011 C 
BRANCH   9  10
ATOM     10  C   UNL     1       8.335   1.115  -2.007  0.00  0.00    -0.025 A 
ATOM     11  C   UNL     1       8.613   0.534  -3.248  0.00  0.00    +0.011 A 
ATOM     12  C   UNL     1       9.890   0.597  -3.764  0.00  0.00    +0.039 A 
ATOM     13  C   UNL     1      10.896   1.235  -3.055  0.00  0.00    +0.123 A 
ATOM     14  C   UNL     1      10.627   1.812  -1.824  0.00  0.00    +0.039 A 
ATOM     15  C   UNL     1       9.353   1.761  -1.300  0.00  0.00    +0.011 A 
ATOM     16  F   UNL     1      12.145   1.294  -3.567  0.00  0.00    -0.205 F 
ENDBRANCH   9  10
ENDBRANCH   5   8
ENDBRANCH   1   2
BRANCH   1  18
ATOM     17  C   UNL     1      -0.008   1.520   0.019  0.00  0.00    +0.029 C 
ATOM     18  C   UNL     1       0.004  -0.010   0.003  0.00  0.00    +0.137 C 
BRANCH  18  19
ATOM     19  C   UNL     1      -1.412  -0.524   0.013  0.00  0.00    +0.230 C 
ATOM     20  O   UNL     1      -1.931  -0.891  -1.021  0.00  0.00    -0.274 OA
ATOM     21  N   UNL     1      -2.103  -0.575   1.169  0.00  0.00    -0.284 N 
ATOM     22  H   UNL     1      -1.668  -0.345   2.004  0.00  0.00    +0.155 HD
BRANCH  21  23
ATOM     23  C   UNL     1      -3.450  -0.960   1.163  0.00  0.00    +0.037 A 
ATOM     24  C   UNL     1      -4.343  -0.374   2.050  0.00  0.00    +0.027 A 
ATOM     25  C   UNL     1      -5.672  -0.753   2.046  0.00  0.00    +0.051 A 
ATOM     26  C   UNL     1      -6.117  -1.719   1.157  0.00  0.00    +0.166 A 
ATOM     27  C   UNL     1      -5.223  -2.308   0.267  0.00  0.00    +0.168 A 
ATOM     28  C   UNL     1      -3.893  -1.924   0.268  0.00  0.00    +0.072 A 
ATOM     29  O   UNL     1      -5.900  -3.219  -0.493  0.00  0.00    -0.453 OA
ATOM     30  C   UNL     1      -7.127  -3.475   0.216  0.00  0.00    +0.466 C 
ATOM     31  O   UNL     1      -7.355  -2.260   0.955  0.00  0.00    -0.453 OA
ENDBRANCH  21  23
ENDBRANCH  18  19
ENDBRANCH   1  18
TORSDOF 6
