REMARK  Name = ZINC40672170
REMARK  5 active torsions:
REMARK  status: ('A' for Active; 'I' for Inactive)
REMARK    1  A    between atoms: C_1  and  N_2
REMARK    2  A    between atoms: C_6  and  N_9
REMARK    3  A    between atoms: N_9  and  S_10
REMARK    4  A    between atoms: S_10  and  C_13
REMARK    5  A    between atoms: C_14  and  N_21
REMARK                            x       y       z     vdW  Elec       q    Type
REMARK                         _______ _______ _______ _____ _____    ______ ____
ROOT
ATOM      1  S   UNL     1       0.466  -4.614   3.812  0.00  0.00    +0.061 S 
ATOM      2  O   UNL     1       1.147  -5.230   4.896  0.00  0.00    -0.153 OA
ATOM      3  O   UNL     1      -0.943  -4.433   3.802  0.00  0.00    -0.153 OA
ENDROOT
BRANCH   1   4
ATOM      4  C   UNL     1       0.864  -5.548   2.372  0.00  0.00    +0.140 A 
ATOM      5  C   UNL     1      -0.039  -5.620   1.318  0.00  0.00    +0.053 A 
ATOM      6  C   UNL     1       0.278  -6.356   0.184  0.00  0.00    +0.040 A 
ATOM      7  C   UNL     1       1.490  -7.016   0.107  0.00  0.00    +0.021 A 
ATOM      8  C   UNL     1       2.387  -6.943   1.157  0.00  0.00    +0.032 A 
ATOM      9  C   UNL     1       2.076  -6.205   2.286  0.00  0.00    +0.047 A 
ATOM     10 BR   UNL     1       3.310  -6.101   3.716  0.00  0.00    -0.048 Br
ATOM     11 BR   UNL     1       1.922  -8.019  -1.437  0.00  0.00    -0.050 Br
BRANCH   5  12
ATOM     12  N   UNL     1      -1.264  -4.953   1.400  0.00  0.00    -0.356 N 
ATOM     13  H   UNL     1      -1.349  -4.160   1.952  0.00  0.00    +0.142 HD
ATOM     14  H   UNL     1      -2.030  -5.282   0.904  0.00  0.00    +0.142 HD
ENDBRANCH   5  12
ENDBRANCH   1   4
BRANCH   1  15
ATOM     15  N   UNL     1       1.138  -3.112   3.623  0.00  0.00    -0.189 NA
ATOM     16  H   UNL     1       1.846  -2.819   4.218  0.00  0.00    +0.148 HD
BRANCH  15  22
ATOM     17  C   UNL     1       0.215   1.498   2.461  0.00  0.00    -0.096 C 
ATOM     18  N   UNL     1       0.240   0.114   1.968  0.00  0.00    +0.379 N 
ATOM     19  C   UNL     1       1.139   0.024   0.811  0.00  0.00    -0.079 C 
ATOM     20  C   UNL     1       1.107  -1.397   0.245  0.00  0.00    -0.017 C 
ATOM     21  C   UNL     1       1.563  -2.382   1.326  0.00  0.00    +0.017 C 
ATOM     22  C   UNL     1       0.664  -2.227   2.556  0.00  0.00    +0.060 C 
ATOM     23  C   UNL     1       0.713  -0.775   3.037  0.00  0.00    -0.059 C 
ATOM     24  H   UNL     1      -0.690  -0.161   1.691  0.00  0.00    -0.082 HD
ENDBRANCH  15  22
ENDBRANCH   1  15
TORSDOF 4
