REMARK  Name = ZINC63772583
REMARK  8 active torsions:
REMARK  status: ('A' for Active; 'I' for Inactive)
REMARK    1  A    between atoms: C_1  and  C_2
REMARK    2  A    between atoms: C_7  and  S_12
REMARK    3  A    between atoms: S_12  and  C_13
REMARK    4  A    between atoms: C_13  and  C_14
REMARK    5  A    between atoms: N_16  and  C_17
REMARK    6  A    between atoms: C_19  and  C_24
REMARK    7  A    between atoms: C_24  and  O_26
REMARK    8  A    between atoms: O_26  and  C_27
REMARK                            x       y       z     vdW  Elec       q    Type
REMARK                         _______ _______ _______ _____ _____    ______ ____
ROOT
ATOM      1  C   UNL     1      -2.790  -4.240   1.485  0.00  0.00    +0.168 C 
ENDROOT
BRANCH   1   2
ATOM      2  C   UNL     1      -4.091  -4.910   1.844  0.00  0.00    +0.224 C 
ATOM      3  O   UNL     1      -4.084  -5.978   2.419  0.00  0.00    -0.275 OA
ATOM      4  N   UNL     1      -5.261  -4.324   1.526  0.00  0.00    -0.301 N 
ATOM      5  H   UNL     1      -5.267  -3.470   1.066  0.00  0.00    +0.150 HD
BRANCH   4   6
ATOM      6  C   UNL     1      -6.526  -4.976   1.875  0.00  0.00    +0.153 C 
ATOM      7  C   UNL     1      -7.573  -3.950   2.384  0.00  0.00    +0.151 C 
ATOM      8  C   UNL     1      -8.443  -3.480   1.263  0.00  0.00    -0.003 C 
ATOM      9  C   UNL     1      -8.508  -4.177   0.146  0.00  0.00    +0.039 C 
ATOM     10  S   UNL     1      -7.416  -5.571   0.375  0.00  0.00    -0.110 S 
BRANCH   7  11
ATOM     11  C   UNL     1      -8.433  -4.601   3.438  0.00  0.00    +0.316 C 
ATOM     12  O   UNL     1      -8.238  -5.751   3.751  0.00  0.00    -0.250 OA
BRANCH  11  13
ATOM     13  O   UNL     1      -9.415  -3.902   4.028  0.00  0.00    -0.467 OA
ATOM     14  C   UNL     1     -10.190  -4.581   5.017  0.00  0.00    +0.280 C 
ENDBRANCH  11  13
ENDBRANCH   7  11
ENDBRANCH   4   6
ENDBRANCH   1   2
BRANCH   1  15
ATOM     15  S   UNL     1      -1.405  -5.270   2.043  0.00  0.00    -0.106 S 
BRANCH  15  22
ATOM     16  C   UNL     1      -0.018   1.503   0.010  0.00  0.00    +0.044 C 
ATOM     17  C   UNL     1       0.002  -0.004   0.002  0.00  0.00    -0.048 A 
ATOM     18  C   UNL     1       0.005  -0.672  -1.235  0.00  0.00    +0.005 A 
ATOM     19  C   UNL     1       0.022  -2.017  -1.335  0.00  0.00    +0.028 A 
ATOM     20  C   UNL     1       0.040  -2.834  -0.114  0.00  0.00    +0.061 A 
ATOM     21  N   UNL     1       0.057  -4.120   0.090  0.00  0.00    -0.355 N 
ATOM     22  C   UNL     1       0.067  -4.335   1.542  0.00  0.00    +0.236 C 
ATOM     23  N   UNL     1       0.053  -3.002   2.159  0.00  0.00    -0.355 N 
ATOM     24  C   UNL     1       0.037  -2.127   1.195  0.00  0.00    +0.061 A 
ATOM     25  C   UNL     1       0.022  -0.657   1.181  0.00  0.00    +0.030 A 
ATOM     26  H   UNL     1       0.062  -4.809  -0.593  0.00  0.00    +0.162 HD
ATOM     27  H   UNL     1       0.055  -2.810   3.109  0.00  0.00    +0.162 HD
ENDBRANCH  15  22
ENDBRANCH   1  15
TORSDOF 6
