REMARK  Name = ZINC32541362
REMARK  9 active torsions:
REMARK  status: ('A' for Active; 'I' for Inactive)
REMARK    1  A    between atoms: C_4  and  C_7
REMARK    2  A    between atoms: C_7  and  N_8
REMARK    3  A    between atoms: C_10  and  N_29
REMARK    4  A    between atoms: C_13  and  C_15
REMARK    5  A    between atoms: N_17  and  C_18
REMARK    6  A    between atoms: C_18  and  C_19
REMARK    7  A    between atoms: C_19  and  C_20
REMARK    8  A    between atoms: N_29  and  C_30
REMARK    9  A    between atoms: C_30  and  C_31
REMARK                            x       y       z     vdW  Elec       q    Type
REMARK                         _______ _______ _______ _____ _____    ______ ____
ROOT
ATOM      1  N   UNL     1       4.153  -0.953   1.342  0.00  0.00    +0.391 N 
ATOM      2  C   UNL     1       4.456   0.330   2.002  0.00  0.00    -0.059 C 
ATOM      3  C   UNL     1       5.935   0.281   2.440  0.00  0.00    +0.036 C 
ATOM      4  C   UNL     1       6.228  -1.241   2.511  0.00  0.00    +0.010 C 
ATOM      5  C   UNL     1       5.380  -1.778   1.331  0.00  0.00    +0.021 C 
ATOM      6  H   UNL     1       3.426  -1.432   1.852  0.00  0.00    -0.080 HD
ENDROOT
BRANCH   5   7
ATOM      7  C   UNL     1       5.037  -3.230   1.550  0.00  0.00    +0.200 C 
ATOM      8  O   UNL     1       3.882  -3.564   1.702  0.00  0.00    -0.278 OA
ATOM      9  N   UNL     1       6.016  -4.156   1.576  0.00  0.00    -0.316 N 
ATOM     10  H   UNL     1       6.941  -3.889   1.454  0.00  0.00    +0.149 HD
BRANCH   9  11
ATOM     11  C   UNL     1       5.683  -5.567   1.788  0.00  0.00    +0.109 C 
BRANCH  11  12
ATOM     12  C   UNL     1       6.966  -6.401   1.774  0.00  0.00    +0.054 C 
BRANCH  12  13
ATOM     13  C   UNL     1       6.624  -7.852   1.992  0.00  0.00    -0.042 A 
ATOM     14  C   UNL     1       6.573  -8.364   3.275  0.00  0.00    +0.007 A 
ATOM     15  C   UNL     1       6.259  -9.694   3.481  0.00  0.00    +0.050 A 
ATOM     16  C   UNL     1       5.995 -10.519   2.399  0.00  0.00    +0.166 A 
ATOM     17  C   UNL     1       6.046 -10.004   1.106  0.00  0.00    +0.166 A 
ATOM     18  C   UNL     1       6.355  -8.668   0.908  0.00  0.00    +0.053 A 
ATOM     19  O   UNL     1       5.750 -11.005   0.226  0.00  0.00    -0.453 OA
ATOM     20  C   UNL     1       5.918 -12.229   0.965  0.00  0.00    +0.466 C 
ATOM     21  O   UNL     1       5.667 -11.842   2.329  0.00  0.00    -0.453 OA
ENDBRANCH  12  13
ENDBRANCH  11  12
ENDBRANCH   9  11
ENDBRANCH   5   7
BRANCH   3  22
ATOM     22  N   UNL     1       6.107   0.909   3.757  0.00  0.00    -0.311 NA
ATOM     23  H   UNL     1       5.437   1.650   3.895  0.00  0.00    +0.122 HD
BRANCH  22  24
ATOM     24  C   UNL     1       7.480   1.402   3.929  0.00  0.00    +0.119 C 
BRANCH  24  25
ATOM     25  C   UNL     1       7.619   2.038   5.288  0.00  0.00    +0.002 A 
ATOM     26  C   UNL     1       7.559   3.413   5.417  0.00  0.00    +0.008 A 
ATOM     27  C   UNL     1       7.686   3.997   6.664  0.00  0.00    +0.000 A 
ATOM     28  C   UNL     1       7.873   3.206   7.783  0.00  0.00    +0.003 A 
ATOM     29  C   UNL     1       7.933   1.831   7.656  0.00  0.00    +0.038 A 
ATOM     30  C   UNL     1       7.801   1.245   6.408  0.00  0.00    +0.128 A 
ATOM     31  F   UNL     1       7.854  -0.099   6.284  0.00  0.00    -0.205 F 
ENDBRANCH  24  25
ENDBRANCH  22  24
ENDBRANCH   3  22
BRANCH   1  32
ATOM     32  C   UNL     1       3.711  -0.707  -0.038  0.00  0.00    -0.042 C 
BRANCH  32  36
ATOM     33  C   UNL     1      -0.017   1.378   0.010  0.00  0.00    +0.000 A 
ATOM     34  C   UNL     1       1.171   2.086   0.002  0.00  0.00    +0.000 A 
ATOM     35  C   UNL     1       2.377   1.411  -0.013  0.00  0.00    +0.002 A 
ATOM     36  C   UNL     1       2.396   0.029  -0.020  0.00  0.00    -0.064 A 
ATOM     37  C   UNL     1       1.208  -0.679  -0.012  0.00  0.00    +0.002 A 
ATOM     38  C   UNL     1       0.002  -0.004   0.002  0.00  0.00    +0.000 A 
ENDBRANCH  32  36
ENDBRANCH   1  32
TORSDOF 9
