REMARK  Name = ZINC08733843
REMARK  6 active torsions:
REMARK  status: ('A' for Active; 'I' for Inactive)
REMARK    1  A    between atoms: C_1  and  C_2
REMARK    2  A    between atoms: C_2  and  C_4
REMARK    3  A    between atoms: C_2  and  N_22
REMARK    4  A    between atoms: N_9  and  C_12
REMARK    5  A    between atoms: C_15  and  C_17
REMARK    6  A    between atoms: C_23  and  C_25
REMARK                            x       y       z     vdW  Elec       q    Type
REMARK                         _______ _______ _______ _____ _____    ______ ____
ROOT
ATOM      1  C   UNL     1      -3.367   7.698  -1.759  0.00  0.00    +0.236 C 
ATOM      2  O   UNL     1      -3.988   6.946  -2.479  0.00  0.00    -0.274 OA
ATOM      3  N   UNL     1      -3.754   8.983  -1.631  0.00  0.00    -0.297 N 
ATOM      4  C   UNL     1      -2.952   9.940  -0.854  0.00  0.00    +0.127 C 
ATOM      5  C   UNL     1      -2.706  11.182  -1.724  0.00  0.00    +0.125 C 
ATOM      6  N   UNL     1      -3.994  11.699  -2.206  0.00  0.00    -0.313 N 
ATOM      7  C   UNL     1      -4.670  10.723  -3.072  0.00  0.00    +0.125 C 
ATOM      8  C   UNL     1      -4.993   9.464  -2.261  0.00  0.00    +0.127 C 
ENDROOT
BRANCH   6   9
ATOM      9  C   UNL     1      -3.831  12.916  -2.859  0.00  0.00    +0.118 A 
ATOM     10  C   UNL     1      -3.965  14.105  -2.147  0.00  0.00    +0.079 A 
ATOM     11  C   UNL     1      -3.794  15.308  -2.809  0.00  0.00    +0.037 A 
ATOM     12  C   UNL     1      -3.504  15.282  -4.167  0.00  0.00    +0.072 A 
ATOM     13  C   UNL     1      -3.391  14.066  -4.811  0.00  0.00    +0.096 A 
ATOM     14 CL   UNL     1      -4.336  14.078  -0.451  0.00  0.00    -0.080 Cl
ATOM     15  N   UNL     1      -3.547  12.865  -4.192  0.00  0.00    -0.348 N 
ATOM     16  H   UNL     1      -3.457  11.976  -4.697  0.00  0.00    +0.167 HD
BRANCH  12  17
ATOM     17  C   UNL     1      -3.315  16.568  -4.929  0.00  0.00    +0.419 C 
ATOM     18  F   UNL     1      -3.034  16.278  -6.269  0.00  0.00    -0.166 F 
ATOM     19  F   UNL     1      -4.484  17.332  -4.853  0.00  0.00    -0.166 F 
ATOM     20  F   UNL     1      -2.251  17.287  -4.375  0.00  0.00    -0.166 F 
ENDBRANCH  12  17
ENDBRANCH   6   9
BRANCH   1  22
ATOM     21  C   UNL     1      -0.892   7.550  -1.783  0.00  0.00    +0.038 C 
ATOM     22  C   UNL     1      -2.161   7.197  -1.006  0.00  0.00    +0.156 C 
BRANCH  22  23
ATOM     23  N   UNL     1      -2.252   5.742  -0.853  0.00  0.00    -0.304 N 
ATOM     24  C   UNL     1      -1.614   5.131   0.165  0.00  0.00    +0.220 C 
ATOM     25  O   UNL     1      -0.965   5.785   0.954  0.00  0.00    -0.275 OA
ATOM     26  H   UNL     1      -2.771   5.220  -1.484  0.00  0.00    +0.149 HD
BRANCH  24  27
ATOM     27  C   UNL     1      -1.707   3.635   0.323  0.00  0.00    +0.048 C 
ATOM     28  C   UNL     1      -1.145   2.955  -0.927  0.00  0.00    +0.019 C 
ATOM     29  C   UNL     1      -1.240   1.436  -0.766  0.00  0.00    -0.009 C 
ATOM     30  C   UNL     1      -0.432   1.001   0.458  0.00  0.00    +0.007 C 
ATOM     31  C   UNL     1      -0.993   1.682   1.708  0.00  0.00    -0.009 C 
ATOM     32  C   UNL     1      -0.899   3.201   1.547  0.00  0.00    +0.019 C 
ATOM     33  C   UNL     1      -2.457   1.279   1.894  0.00  0.00    +0.007 C 
ATOM     34  C   UNL     1      -3.266   1.714   0.669  0.00  0.00    -0.009 C 
ATOM     35  C   UNL     1      -2.704   1.033  -0.581  0.00  0.00    +0.007 C 
ATOM     36  C   UNL     1      -3.171   3.232   0.509  0.00  0.00    +0.019 C 
ENDBRANCH  24  27
ENDBRANCH  22  23
ENDBRANCH   1  22
TORSDOF 5
