REMARK  Name = ZINC03080397
REMARK  8 active torsions:
REMARK  status: ('A' for Active; 'I' for Inactive)
REMARK    1  A    between atoms: C_1  and  C_2
REMARK    2  A    between atoms: C_2  and  O_3
REMARK    3  A    between atoms: O_3  and  C_4
REMARK    4  A    between atoms: C_13  and  C_14
REMARK    5  A    between atoms: N_15  and  N_16
REMARK    6  A    between atoms: C_17  and  C_19
REMARK    7  A    between atoms: C_19  and  N_20
REMARK    8  A    between atoms: N_20  and  C_21
REMARK                            x       y       z     vdW  Elec       q    Type
REMARK                         _______ _______ _______ _____ _____    ______ ____
ROOT
ATOM      1  N   UNL     1      -2.572   8.058   0.066  0.00  0.00    -0.206 N 
ATOM      2  C   UNL     1      -2.563   9.406   0.072  0.00  0.00    +0.249 C 
ATOM      3  O   UNL     1      -1.508  10.005   0.065  0.00  0.00    -0.272 OA
ATOM      4  H   UNL     1      -3.415   7.579   0.072  0.00  0.00    +0.177 HD
ENDROOT
BRANCH   1   6
ATOM      5  C   UNL     1      -1.372   6.050   0.046  0.00  0.00    +0.142 C 
ATOM      6  N   UNL     1      -1.363   7.350   0.052  0.00  0.00    -0.188 NA
BRANCH   5  16
ATOM      7  C   UNL     1       1.117   5.981   0.022  0.00  0.00    +0.130 A 
ATOM      8  C   UNL     1       2.316   5.269   0.007  0.00  0.00    +0.047 A 
ATOM      9  C   UNL     1       2.342   3.910   0.000  0.00  0.00    +0.012 A 
ATOM     10  C   UNL     1       1.148   3.168   0.008  0.00  0.00    -0.017 A 
ATOM     11  C   UNL     1       1.163   1.762   0.000  0.00  0.00    +0.008 A 
ATOM     12  C   UNL     1      -0.013   1.076   0.008  0.00  0.00    +0.001 A 
ATOM     13  C   UNL     1      -1.234   1.745   0.017  0.00  0.00    +0.001 A 
ATOM     14  C   UNL     1      -1.286   3.107   0.031  0.00  0.00    +0.009 A 
ATOM     15  C   UNL     1      -0.096   3.845   0.024  0.00  0.00    -0.006 A 
ATOM     16  C   UNL     1      -0.104   5.307   0.031  0.00  0.00    +0.044 A 
BRANCH   7  17
ATOM     17  O   UNL     1       1.138   7.338   0.028  0.00  0.00    -0.492 OA
BRANCH  17  19
ATOM     18  C   UNL     1       2.244   9.487   0.027  0.00  0.00    +0.048 C 
ATOM     19  C   UNL     1       2.421   7.967   0.018  0.00  0.00    +0.226 C 
ENDBRANCH  17  19
ENDBRANCH   7  17
ENDBRANCH   5  16
ENDBRANCH   1   6
BRANCH   2  20
ATOM     20  C   UNL     1      -3.863  10.168   0.088  0.00  0.00    +0.199 C 
BRANCH  20  21
ATOM     21  N   UNL     1      -3.585  11.607   0.091  0.00  0.00    -0.335 N 
ATOM     22  H   UNL     1      -2.669  11.924   0.084  0.00  0.00    +0.147 HD
BRANCH  21  23
ATOM     23  C   UNL     1      -4.640  12.521   0.105  0.00  0.00    +0.028 A 
ATOM     24  C   UNL     1      -5.961  12.055   0.110  0.00  0.00    +0.023 A 
ATOM     25  C   UNL     1      -7.007  12.922   0.129  0.00  0.00    +0.010 A 
ATOM     26  C   UNL     1      -6.769  14.308   0.133  0.00  0.00    -0.018 A 
ATOM     27  C   UNL     1      -7.832  15.228   0.147  0.00  0.00    +0.008 A 
ATOM     28  C   UNL     1      -7.567  16.563   0.150  0.00  0.00    +0.001 A 
ATOM     29  C   UNL     1      -6.256  17.035   0.140  0.00  0.00    +0.001 A 
ATOM     30  C   UNL     1      -5.202  16.175   0.126  0.00  0.00    +0.008 A 
ATOM     31  C   UNL     1      -5.436  14.789   0.123  0.00  0.00    -0.016 A 
ATOM     32  C   UNL     1      -4.372  13.872   0.109  0.00  0.00    +0.031 A 
ENDBRANCH  21  23
ENDBRANCH  20  21
ENDBRANCH   2  20
TORSDOF 7
