REMARK  Name = ZINC31267593
REMARK  11 active torsions:
REMARK  status: ('A' for Active; 'I' for Inactive)
REMARK    1  A    between atoms: C_1  and  C_2
REMARK    2  A    between atoms: C_2  and  C_3
REMARK    3  A    between atoms: C_2  and  C_4
REMARK    4  A    between atoms: C_4  and  C_5
REMARK    5  A    between atoms: C_5  and  S_6
REMARK    6  A    between atoms: S_6  and  C_7
REMARK    7  A    between atoms: C_10  and  C_16
REMARK    8  A    between atoms: C_12  and  N_13
REMARK    9  A    between atoms: C_21  and  C_24
REMARK   10  A    between atoms: C_24  and  C_26
REMARK   11  A    between atoms: C_24  and  O_32
REMARK                            x       y       z     vdW  Elec       q    Type
REMARK                         _______ _______ _______ _____ _____    ______ ____
ROOT
ATOM      1  C   UNL     1       0.072  -4.245  -0.022  0.00  0.00    +0.247 C 
ATOM      2  O   UNL     1      -0.963  -4.872   0.092  0.00  0.00    -0.270 OA
ATOM      3  N   UNL     1       1.246  -4.897  -0.139  0.00  0.00    -0.298 N 
ATOM      4  C   UNL     1       2.515  -4.157  -0.155  0.00  0.00    +0.108 C 
ATOM      5  C   UNL     1       3.436  -4.744   0.926  0.00  0.00    +0.025 C 
ATOM      6  C   UNL     1       3.584  -6.250   0.699  0.00  0.00    +0.025 C 
ATOM      7  C   UNL     1       2.214  -6.922   0.817  0.00  0.00    +0.025 C 
ATOM      8  C   UNL     1       1.280  -6.361  -0.259  0.00  0.00    +0.108 C 
ENDROOT
BRANCH   1  12
ATOM      9  C   UNL     1      -0.013  -0.004  -0.047  0.00  0.00    +0.038 A 
ATOM     10  C   UNL     1      -0.807  -0.714   0.851  0.00  0.00    +0.018 A 
ATOM     11  C   UNL     1      -0.781  -2.079   0.861  0.00  0.00    +0.014 A 
ATOM     12  C   UNL     1       0.044  -2.770  -0.032  0.00  0.00    +0.039 A 
ATOM     13  C   UNL     1       0.842  -2.061  -0.935  0.00  0.00    +0.047 A 
ATOM     14  C   UNL     1       0.808  -0.685  -0.943  0.00  0.00    +0.140 A 
BRANCH  14  15
ATOM     15  N   UNL     1       1.646   0.071  -1.901  0.00  0.00    +0.058 N 
ATOM     16  O   UNL     1       2.363  -0.524  -2.684  0.00  0.00    -0.126 OA
ATOM     17  O   UNL     1       1.619   1.289  -1.904  0.00  0.00    -0.126 OA
ENDBRANCH  14  15
BRANCH   9  18
ATOM     18  S   UNL     1      -0.052   1.757  -0.053  0.00  0.00    -0.123 S 
BRANCH  18  19
ATOM     19  C   UNL     1      -1.242   2.175   1.251  0.00  0.00    +0.075 C 
BRANCH  19  20
ATOM     20  C   UNL     1      -1.373   3.696   1.354  0.00  0.00    +0.014 C 
BRANCH  20  22
ATOM     21  C   UNL     1      -2.415   5.566   2.642  0.00  0.00    +0.007 C 
ATOM     22  C   UNL     1      -2.377   4.048   2.454  0.00  0.00    -0.016 C 
ATOM     23  C   UNL     1      -3.766   3.547   2.055  0.00  0.00    +0.007 C 
ENDBRANCH  20  22
ENDBRANCH  19  20
ENDBRANCH  18  19
ENDBRANCH   9  18
ENDBRANCH   1  12
BRANCH   6  24
ATOM     24  C   UNL     1       4.531  -6.833   1.751  0.00  0.00    +0.148 C 
BRANCH  24  25
ATOM     25  C   UNL     1       5.879  -6.171   1.635  0.00  0.00    -0.019 A 
ATOM     26  C   UNL     1       6.116  -4.968   2.273  0.00  0.00    +0.006 A 
ATOM     27  C   UNL     1       7.355  -4.363   2.170  0.00  0.00    +0.000 A 
ATOM     28  C   UNL     1       8.354  -4.956   1.421  0.00  0.00    +0.000 A 
ATOM     29  C   UNL     1       8.115  -6.157   0.778  0.00  0.00    +0.000 A 
ATOM     30  C   UNL     1       6.878  -6.764   0.885  0.00  0.00    +0.006 A 
ENDBRANCH  24  25
BRANCH  24  31
ATOM     31  O   UNL     1       3.996  -6.599   3.055  0.00  0.00    -0.387 OA
ATOM     32  H   UNL     1       4.541  -6.949   3.944  0.00  0.00    +0.210 HD
ENDBRANCH  24  31
ENDBRANCH   6  24
TORSDOF 9
