REMARK  Name = ZINC06130855
REMARK  8 active torsions:
REMARK  status: ('A' for Active; 'I' for Inactive)
REMARK    1  A    between atoms: C_4  and  N_29
REMARK    2  A    between atoms: C_5  and  C_7
REMARK    3  A    between atoms: C_8  and  C_9
REMARK    4  A    between atoms: N_10  and  N_11
REMARK    5  A    between atoms: C_12  and  C_14
REMARK    6  A    between atoms: C_19  and  N_20
REMARK    7  A    between atoms: N_20  and  S_21
REMARK    8  A    between atoms: S_21  and  C_24
REMARK                            x       y       z     vdW  Elec       q    Type
REMARK                         _______ _______ _______ _____ _____    ______ ____
ROOT
ATOM      1  N   UNL     1       3.707   1.677  -0.065  0.00  0.00    -0.203 N 
ATOM      2  C   UNL     1       4.946   1.179  -0.245  0.00  0.00    +0.265 C 
ATOM      3  O   UNL     1       5.102  -0.015  -0.421  0.00  0.00    -0.268 OA
ATOM      4  H   UNL     1       3.582   2.629   0.076  0.00  0.00    +0.178 HD
ENDROOT
BRANCH   2   5
ATOM      5  C   UNL     1       6.112   2.080  -0.229  0.00  0.00    +0.061 A 
ATOM      6  C   UNL     1       5.937   3.453  -0.032  0.00  0.00    +0.015 A 
ATOM      7  C   UNL     1       7.031   4.289  -0.014  0.00  0.00    +0.001 A 
ATOM      8  C   UNL     1       8.306   3.779  -0.199  0.00  0.00    +0.002 A 
ATOM      9  C   UNL     1       8.495   2.427  -0.399  0.00  0.00    +0.025 A 
ATOM     10  C   UNL     1       7.404   1.566  -0.416  0.00  0.00    +0.060 A 
BRANCH  10  11
ATOM     11  N   UNL     1       7.592   0.205  -0.617  0.00  0.00    -0.215 N 
ATOM     12  H   UNL     1       6.940  -0.305  -1.122  0.00  0.00    +0.174 HD
BRANCH  11  13
ATOM     13  S   UNL     1       8.930  -0.547   0.006  0.00  0.00    +0.079 S 
ATOM     14  O   UNL     1       8.767  -1.937  -0.244  0.00  0.00    -0.149 OA
ATOM     15  O   UNL     1      10.058   0.183  -0.456  0.00  0.00    -0.149 OA
BRANCH  13  16
ATOM     16  C   UNL     1       8.877  -0.340   1.755  0.00  0.00    +0.146 A 
ATOM     17  C   UNL     1       8.306  -1.136   2.692  0.00  0.00    +0.036 A 
ATOM     18  C   UNL     1       8.391  -0.772   4.022  0.00  0.00    +0.010 A 
ATOM     19  C   UNL     1       9.043   0.370   4.351  0.00  0.00    +0.047 A 
ATOM     20  S   UNL     1       9.569   0.968   2.753  0.00  0.00    -0.077 S 
ENDBRANCH  13  16
ENDBRANCH  11  13
ENDBRANCH  10  11
ENDBRANCH   2   5
BRANCH   1  22
ATOM     21  C   UNL     1       1.400   1.302   0.094  0.00  0.00    +0.130 C 
ATOM     22  N   UNL     1       2.598   0.820  -0.080  0.00  0.00    -0.188 NA
BRANCH  21  24
ATOM     23  C   UNL     1      -0.962   0.934   0.253  0.00  0.00    +0.012 C 
ATOM     24  C   UNL     1       0.279   0.434   0.078  0.00  0.00    +0.022 C 
BRANCH  23  29
ATOM     25  C   UNL     1      -3.041  -2.187   0.151  0.00  0.00    +0.001 A 
ATOM     26  C   UNL     1      -4.320  -1.658   0.189  0.00  0.00    +0.002 A 
ATOM     27  C   UNL     1      -4.508  -0.289   0.247  0.00  0.00    +0.033 A 
ATOM     28  C   UNL     1      -3.422   0.560   0.274  0.00  0.00    +0.133 A 
ATOM     29  C   UNL     1      -2.127   0.034   0.231  0.00  0.00    +0.005 A 
ATOM     30  C   UNL     1      -1.945  -1.351   0.172  0.00  0.00    +0.010 A 
BRANCH  28  31
ATOM     31  N   UNL     1      -3.626   2.025   0.342  0.00  0.00    +0.057 N 
ATOM     32  O   UNL     1      -4.749   2.489   0.251  0.00  0.00    -0.126 OA
ATOM     33  O   UNL     1      -2.671   2.767   0.489  0.00  0.00    -0.126 OA
ENDBRANCH  28  31
ENDBRANCH  23  29
ENDBRANCH  21  24
ENDBRANCH   1  22
TORSDOF 8
