REMARK  Name = ZINC09848282
REMARK  14 active torsions:
REMARK  status: ('A' for Active; 'I' for Inactive)
REMARK    1  A    between atoms: C_1  and  C_2
REMARK    2  A    between atoms: C_4  and  C_30
REMARK    3  A    between atoms: C_14  and  C_17
REMARK    4  A    between atoms: N_19  and  C_20
REMARK    5  A    between atoms: C_20  and  C_21
REMARK    6  A    between atoms: C_21  and  N_71
REMARK    7  A    between atoms: C_22  and  C_23
REMARK    8  A    between atoms: C_22  and  N_71
REMARK    9  A    between atoms: C_23  and  C_24
REMARK   10  A    between atoms: C_23  and  C_25
REMARK   11  A    between atoms: C_26  and  C_27
REMARK   12  A    between atoms: C_26  and  N_71
REMARK   13  A    between atoms: C_27  and  C_28
REMARK   14  A    between atoms: C_27  and  C_29
REMARK                            x       y       z     vdW  Elec       q    Type
REMARK                         _______ _______ _______ _____ _____    ______ ____
ROOT
ATOM      1  C   UNL     1      -8.339  -3.499  -8.784  0.00  0.00    +0.044 C 
ATOM      2  C   UNL     1      -7.223  -2.710  -8.149  0.00  0.00    -0.049 A 
ATOM      3  C   UNL     1      -6.221  -2.158  -8.934  0.00  0.00    +0.009 A 
ATOM      4  C   UNL     1      -5.195  -1.437  -8.381  0.00  0.00    -0.024 A 
ATOM      5  C   UNL     1      -5.126  -1.232  -6.984  0.00  0.00    +0.083 A 
ATOM      6  C   UNL     1      -6.163  -1.810  -6.217  0.00  0.00    +0.041 A 
ATOM      7  C   UNL     1      -7.186  -2.531  -6.779  0.00  0.00    +0.020 A 
ATOM      8  S   UNL     1      -5.715  -1.343  -4.562  0.00  0.00    -0.052 S 
ATOM      9  C   UNL     1      -4.234  -0.432  -4.978  0.00  0.00    +0.162 A 
ATOM     10  N   UNL     1      -4.190  -0.553  -6.286  0.00  0.00    -0.224 NA
ATOM     11  N   UNL     1      -3.357   0.225  -4.139  0.00  0.00    -0.310 N 
ATOM     12  C   UNL     1      -3.784   0.111  -2.739  0.00  0.00    +0.108 C 
ATOM     13  C   UNL     1      -2.875   0.969  -1.856  0.00  0.00    +0.032 C 
ATOM     14  C   UNL     1      -1.428   0.493  -2.008  0.00  0.00    +0.078 C 
ATOM     15  C   UNL     1      -1.024   0.576  -3.483  0.00  0.00    +0.032 C 
ATOM     16  C   UNL     1      -1.987  -0.271  -4.319  0.00  0.00    +0.108 C 
ATOM     17  C   UNL     1      -4.129  -0.855  -9.273  0.00  0.00    +0.046 C 
ENDROOT
BRANCH  14  18
ATOM     18  C   UNL     1      -0.520   1.372  -1.187  0.00  0.00    +0.216 C 
ATOM     19  O   UNL     1      -0.984   2.289  -0.543  0.00  0.00    -0.276 OA
ATOM     20  N   UNL     1       0.807   1.139  -1.168  0.00  0.00    -0.317 N 
ATOM     21  H   UNL     1       1.178   0.406  -1.683  0.00  0.00    +0.149 HD
BRANCH  20  22
ATOM     22  C   UNL     1       1.691   1.997  -0.375  0.00  0.00    +0.085 C 
BRANCH  22  23
ATOM     23  C   UNL     1       3.137   1.524  -0.532  0.00  0.00    -0.060 C 
BRANCH  23  24
ATOM     24  N   UNL     1       4.018   2.412   0.256  0.00  0.00    +0.381 N 
ATOM     25  H   UNL     1       3.820   3.388   0.004  0.00  0.00    -0.082 HD
BRANCH  24  26
ATOM     26  C   UNL     1       3.758   2.228   1.700  0.00  0.00    -0.076 C 
BRANCH  26  27
ATOM     27  C   UNL     1       3.637   0.741   2.037  0.00  0.00    -0.034 C 
ATOM     28  C   UNL     1       5.006   0.072   1.895  0.00  0.00    +0.005 C 
ATOM     29  C   UNL     1       3.138   0.583   3.474  0.00  0.00    +0.005 C 
ENDBRANCH  26  27
ENDBRANCH  24  26
BRANCH  24  30
ATOM     30  C   UNL     1       5.434   2.116  -0.044  0.00  0.00    -0.076 C 
BRANCH  30  31
ATOM     31  C   UNL     1       6.306   3.221   0.555  0.00  0.00    -0.034 C 
ATOM     32  C   UNL     1       7.782   2.889   0.320  0.00  0.00    +0.005 C 
ATOM     33  C   UNL     1       5.971   4.555  -0.114  0.00  0.00    +0.005 C 
ENDBRANCH  30  31
ENDBRANCH  24  30
ENDBRANCH  23  24
ENDBRANCH  22  23
ENDBRANCH  20  22
ENDBRANCH  14  18
TORSDOF 8
