REMARK  Name = ZINC20716990
REMARK  9 active torsions:
REMARK  status: ('A' for Active; 'I' for Inactive)
REMARK    1  A    between atoms: C_1  and  C_2
REMARK    2  A    between atoms: C_2  and  C_3
REMARK    3  A    between atoms: C_3  and  C_5
REMARK    4  A    between atoms: C_3  and  C_6
REMARK    5  A    between atoms: C_6  and  C_8
REMARK    6  A    between atoms: C_6  and  N_12
REMARK    7  A    between atoms: C_8  and  O_10
REMARK    8  A    between atoms: O_10  and  C_11
REMARK    9  A    between atoms: C_24  and  C_26
REMARK                            x       y       z     vdW  Elec       q    Type
REMARK                         _______ _______ _______ _____ _____    ______ ____
ROOT
ATOM      1  N   UNL     1      -0.524  -2.263  -4.059  0.00  0.00    -0.286 N 
ATOM      2  C   UNL     1      -1.200  -2.421  -2.904  0.00  0.00    +0.304 C 
ATOM      3  O   UNL     1      -0.616  -2.333  -1.841  0.00  0.00    -0.253 OA
ATOM      4  N   UNL     1      -2.523  -2.677  -2.927  0.00  0.00    -0.273 N 
ATOM      5  C   UNL     1      -3.279  -2.850  -1.678  0.00  0.00    +0.116 C 
ATOM      6  C   UNL     1      -3.816  -4.285  -1.609  0.00  0.00    +0.076 C 
ATOM      7  C   UNL     1      -4.412  -4.647  -2.946  0.00  0.00    +0.066 A 
ATOM      8  C   UNL     1      -4.159  -3.989  -4.097  0.00  0.00    +0.064 A 
ATOM      9  N   UNL     1      -4.868  -4.606  -5.080  0.00  0.00    -0.346 N 
ATOM     10  H   UNL     1      -4.888  -4.361  -6.018  0.00  0.00    +0.167 HD
ATOM     11  C   UNL     1      -5.541  -5.627  -4.499  0.00  0.00    +0.197 A 
ATOM     12  N   UNL     1      -5.262  -5.642  -3.222  0.00  0.00    -0.240 NA
ATOM     13  C   UNL     1      -3.250  -2.785  -4.205  0.00  0.00    +0.158 C 
ATOM     14  H   UNL     1      -0.973  -2.403  -4.907  0.00  0.00    +0.151 HD
ENDROOT
BRANCH  13  15
ATOM     15  C   UNL     1      -4.067  -1.540  -4.437  0.00  0.00    -0.001 A 
ATOM     16  C   UNL     1      -5.439  -1.572  -4.272  0.00  0.00    +0.007 A 
ATOM     17  C   UNL     1      -6.189  -0.431  -4.485  0.00  0.00    +0.002 A 
ATOM     18  C   UNL     1      -5.567   0.745  -4.863  0.00  0.00    +0.021 A 
ATOM     19  C   UNL     1      -4.195   0.779  -5.028  0.00  0.00    +0.060 A 
ATOM     20  C   UNL     1      -3.443  -0.363  -4.809  0.00  0.00    +0.065 A 
ATOM     21 CL   UNL     1      -1.719  -0.319  -5.009  0.00  0.00    -0.082 Cl
ATOM     22 CL   UNL     1      -3.414   2.255  -5.503  0.00  0.00    -0.082 Cl
ENDBRANCH  13  15
BRANCH   1  23
ATOM     23  C   UNL     1       0.890  -1.881  -4.034  0.00  0.00    +0.186 C 
BRANCH  23  24
ATOM     24  C   UNL     1       1.754  -3.133  -3.870  0.00  0.00    +0.017 C 
ATOM     25  C   UNL     1       3.221  -2.725  -3.719  0.00  0.00    +0.010 C 
BRANCH  24  27
ATOM     26  C   UNL     1       2.362  -5.333  -4.886  0.00  0.00    +0.004 C 
ATOM     27  C   UNL     1       1.598  -4.026  -5.103  0.00  0.00    +0.002 C 
ENDBRANCH  24  27
ENDBRANCH  23  24
BRANCH  23  28
ATOM     28  C   UNL     1       1.247  -1.190  -5.325  0.00  0.00    +0.328 C 
ATOM     29  O   UNL     1       0.406  -1.033  -6.178  0.00  0.00    -0.249 OA
BRANCH  28  30
ATOM     30  O   UNL     1       2.499  -0.749  -5.526  0.00  0.00    -0.467 OA
ATOM     31  C   UNL     1       2.766  -0.103  -6.773  0.00  0.00    +0.280 C 
ENDBRANCH  28  30
ENDBRANCH  23  28
ENDBRANCH   1  23
TORSDOF 6
