REMARK  Name = ZINC63506223
REMARK  5 active torsions:
REMARK  status: ('A' for Active; 'I' for Inactive)
REMARK    1  A    between atoms: N_7  and  C_17
REMARK    2  A    between atoms: C_17  and  C_18
REMARK    3  A    between atoms: N_20  and  C_21
REMARK    4  A    between atoms: C_21  and  C_22
REMARK    5  A    between atoms: C_22  and  C_23
REMARK                            x       y       z     vdW  Elec       q    Type
REMARK                         _______ _______ _______ _____ _____    ______ ____
ROOT
ATOM      1  C   UNL     1       0.223  -2.667  -0.965  0.00  0.00    +0.209 C 
ENDROOT
BRANCH   1   8
ATOM      2  C   UNL     1      -0.017   1.376   0.010  0.00  0.00    +0.002 A 
ATOM      3  C   UNL     1       1.168   2.089   0.002  0.00  0.00    +0.001 A 
ATOM      4  C   UNL     1       2.375   1.416  -0.012  0.00  0.00    +0.017 A 
ATOM      5  C   UNL     1       2.400   0.029  -0.020  0.00  0.00    +0.036 A 
ATOM      6  C   UNL     1       1.212  -0.694  -0.014  0.00  0.00    +0.051 A 
ATOM      7  C   UNL     1       0.002  -0.004   0.002  0.00  0.00    +0.024 A 
ATOM      8  N   UNL     1       1.184  -2.082  -0.027  0.00  0.00    -0.258 N 
ATOM      9  C   UNL     1       1.877  -2.950   0.662  0.00  0.00    +0.254 C 
ATOM     10  O   UNL     1       1.612  -4.118   0.450  0.00  0.00    -0.270 OA
ATOM     11  C   UNL     1       2.924  -2.710   1.651  0.00  0.00    +0.069 A 
ATOM     12  C   UNL     1       2.935  -3.452   2.841  0.00  0.00    +0.017 A 
ATOM     13  C   UNL     1       3.936  -3.207   3.764  0.00  0.00    +0.020 A 
ATOM     14  C   UNL     1       4.892  -2.245   3.493  0.00  0.00    +0.112 A 
ATOM     15  N   UNL     1       4.866  -1.558   2.368  0.00  0.00    -0.248 NA
ATOM     16  C   UNL     1       3.930  -1.754   1.450  0.00  0.00    +0.114 A 
ATOM     17  S   UNL     1       3.951  -0.807  -0.037  0.00  0.00    -0.067 S 
ENDBRANCH   1   8
BRANCH   1  18
ATOM     18  C   UNL     1       0.888  -2.879  -2.300  0.00  0.00    +0.231 C 
ATOM     19  O   UNL     1       2.051  -2.571  -2.454  0.00  0.00    -0.274 OA
ATOM     20  N   UNL     1       0.191  -3.411  -3.324  0.00  0.00    -0.314 N 
ATOM     21  H   UNL     1      -0.739  -3.657  -3.201  0.00  0.00    +0.149 HD
BRANCH  20  22
ATOM     22  C   UNL     1       0.838  -3.616  -4.622  0.00  0.00    +0.108 C 
BRANCH  22  23
ATOM     23  C   UNL     1      -0.167  -4.228  -5.601  0.00  0.00    +0.052 C 
BRANCH  23  24
ATOM     24  C   UNL     1       0.499  -4.439  -6.936  0.00  0.00    -0.040 C 
ATOM     25  C   UNL     1       1.075  -5.577  -7.387  0.00  0.00    +0.000 A 
ATOM     26  C   UNL     1       1.248  -6.907  -6.790  0.00  0.00    +0.030 A 
ATOM     27  C   UNL     1       1.883  -7.868  -7.502  0.00  0.00    +0.042 A 
ATOM     28  C   UNL     1       2.378  -7.624  -8.791  0.00  0.00    +0.022 A 
ATOM     29  C   UNL     1       2.257  -6.428  -9.405  0.00  0.00    +0.027 A 
ATOM     30  C   UNL     1       1.606  -5.346  -8.749  0.00  0.00    +0.043 A 
ATOM     31  N   UNL     1       1.368  -4.114  -9.126  0.00  0.00    -0.380 N 
ATOM     32  C   UNL     1       0.652  -3.424  -8.047  0.00  0.00    +0.144 C 
ATOM     33 CL   UNL     1       2.090  -9.442  -6.800  0.00  0.00    -0.084 Cl
ATOM     34  H   UNL     1       1.620  -3.724  -9.978  0.00  0.00    +0.160 HD
ENDBRANCH  23  24
ENDBRANCH  22  23
ENDBRANCH  20  22
ENDBRANCH   1  18
TORSDOF 5
