REMARK  Name = ZINC38744088
REMARK  13 active torsions:
REMARK  status: ('A' for Active; 'I' for Inactive)
REMARK    1  A    between atoms: C_1  and  C_2
REMARK    2  A    between atoms: C_4  and  C_12
REMARK    3  A    between atoms: C_12  and  C_14
REMARK    4  A    between atoms: C_14  and  C_16
REMARK    5  A    between atoms: C_14  and  O_17
REMARK    6  A    between atoms: O_17  and  C_18
REMARK    7  A    between atoms: C_18  and  C_20
REMARK    8  A    between atoms: C_20  and  C_22
REMARK    9  A    between atoms: C_20  and  N_25
REMARK   10  A    between atoms: C_22  and  C_23
REMARK   11  A    between atoms: C_22  and  C_24
REMARK   12  A    between atoms: N_25  and  S_26
REMARK   13  A    between atoms: S_26  and  C_29
REMARK                            x       y       z     vdW  Elec       q    Type
REMARK                         _______ _______ _______ _____ _____    ______ ____
ROOT
ATOM      1  C   UNL     1      -5.975  -0.191  -1.336  0.00  0.00    +0.327 C 
ATOM      2  O   UNL     1      -6.208  -0.732  -0.281  0.00  0.00    -0.249 OA
ENDROOT
BRANCH   1   3
ATOM      3  O   UNL     1      -4.723  -0.173  -1.819  0.00  0.00    -0.452 OA
BRANCH   3   4
ATOM      4  C   UNL     1      -3.715  -0.814  -1.034  0.00  0.00    +0.244 C 
ATOM      5  C   UNL     1      -3.605  -2.283  -1.445  0.00  0.00    +0.061 C 
BRANCH   4   6
ATOM      6  C   UNL     1      -2.392  -0.129  -1.259  0.00  0.00    +0.202 C 
ATOM      7  O   UNL     1      -2.250   0.624  -2.201  0.00  0.00    -0.288 OA
BRANCH   6  10
ATOM      8  C   UNL     1      -0.004   1.759  -0.333  0.00  0.00    +0.035 C 
ATOM      9  C   UNL     1       0.071   0.235  -0.444  0.00  0.00    +0.111 C 
ATOM     10  C   UNL     1      -1.318  -0.361  -0.374  0.00  0.00    +0.030 C 
ATOM     11  C   UNL     1      -1.313  -1.183   0.739  0.00  0.00    +0.007 A 
ATOM     12  C   UNL     1      -2.300  -2.007   1.331  0.00  0.00    +0.010 A 
ATOM     13  C   UNL     1      -2.015  -2.718   2.445  0.00  0.00    +0.001 A 
ATOM     14  C   UNL     1      -0.754  -2.679   3.062  0.00  0.00    +0.002 A 
ATOM     15  C   UNL     1       0.256  -1.926   2.576  0.00  0.00    +0.026 A 
ATOM     16  C   UNL     1       0.030  -1.120   1.365  0.00  0.00    +0.043 A 
ATOM     17  N   UNL     1       0.810  -0.319   0.695  0.00  0.00    -0.377 N 
ATOM     18  H   UNL     1       1.734  -0.120   0.914  0.00  0.00    +0.160 HD
ENDBRANCH   6  10
ENDBRANCH   4   6
ENDBRANCH   3   4
ENDBRANCH   1   3
BRANCH   1  19
ATOM     19  C   UNL     1      -7.090   0.464  -2.110  0.00  0.00    +0.187 C 
BRANCH  19  20
ATOM     20  C   UNL     1      -6.783   1.953  -2.286  0.00  0.00    +0.012 C 
ATOM     21  C   UNL     1      -7.846   2.591  -3.182  0.00  0.00    +0.009 C 
ATOM     22  C   UNL     1      -6.789   2.640  -0.919  0.00  0.00    +0.009 C 
ENDBRANCH  19  20
BRANCH  19  23
ATOM     23  N   UNL     1      -8.349   0.309  -1.377  0.00  0.00    -0.176 NA
ATOM     24  H   UNL     1      -8.461   0.730  -0.510  0.00  0.00    +0.149 HD
BRANCH  23  25
ATOM     25  S   UNL     1      -9.582  -0.585  -2.028  0.00  0.00    +0.059 S 
ATOM     26  O   UNL     1     -10.642  -0.565  -1.083  0.00  0.00    -0.153 OA
ATOM     27  O   UNL     1      -9.745  -0.137  -3.367  0.00  0.00    -0.153 OA
BRANCH  25  28
ATOM     28  C   UNL     1      -9.022  -2.253  -2.121  0.00  0.00    +0.105 A 
ATOM     29  C   UNL     1      -8.366  -2.701  -3.252  0.00  0.00    +0.028 A 
ATOM     30  C   UNL     1      -7.927  -4.010  -3.325  0.00  0.00    +0.002 A 
ATOM     31  C   UNL     1      -8.143  -4.871  -2.266  0.00  0.00    +0.000 A 
ATOM     32  C   UNL     1      -8.798  -4.423  -1.133  0.00  0.00    +0.002 A 
ATOM     33  C   UNL     1      -9.233  -3.113  -1.059  0.00  0.00    +0.028 A 
ENDBRANCH  25  28
ENDBRANCH  23  25
ENDBRANCH  19  23
ENDBRANCH   1  19
TORSDOF 9
