REMARK  Name = ZINC41514181
REMARK  10 active torsions:
REMARK  status: ('A' for Active; 'I' for Inactive)
REMARK    1  A    between atoms: C_1  and  C_2
REMARK    2  A    between atoms: C_2  and  O_3
REMARK    3  A    between atoms: O_3  and  C_4
REMARK    4  A    between atoms: C_13  and  C_15
REMARK    5  A    between atoms: C_24  and  O_36
REMARK    6  A    between atoms: C_25  and  C_26
REMARK    7  A    between atoms: C_26  and  N_27
REMARK    8  A    between atoms: N_30  and  C_33
REMARK    9  A    between atoms: C_33  and  C_34
REMARK   10  A    between atoms: C_34  and  O_35
REMARK                            x       y       z     vdW  Elec       q    Type
REMARK                         _______ _______ _______ _____ _____    ______ ____
ROOT
ATOM      1  C   UNL     1       3.213  -3.933   5.946  0.00  0.00    +0.006 A 
ATOM      2  C   UNL     1       4.456  -4.540   5.863  0.00  0.00    +0.101 A 
ATOM      3  C   UNL     1       5.083  -4.993   7.033  0.00  0.00    +0.338 A 
ATOM      4  O   UNL     1       6.176  -5.526   6.951  0.00  0.00    -0.245 OA
ATOM      5  O   UNL     1       4.512  -4.857   8.241  0.00  0.00    -0.422 OA
ATOM      6  C   UNL     1       3.303  -4.276   8.399  0.00  0.00    +0.144 A 
ATOM      7  C   UNL     1       2.607  -3.788   7.281  0.00  0.00    +0.026 A 
ATOM      8  C   UNL     1       1.359  -3.182   7.441  0.00  0.00    +0.016 A 
ATOM      9  C   UNL     1       0.819  -3.059   8.690  0.00  0.00    +0.046 A 
ATOM     10  C   UNL     1       1.506  -3.536   9.804  0.00  0.00    +0.122 A 
ATOM     11  C   UNL     1       2.740  -4.150   9.660  0.00  0.00    +0.020 A 
ENDROOT
BRANCH   1  21
ATOM     12  C   UNL     1       0.802  -1.825   1.306  0.00  0.00    +0.163 A 
ATOM     13  C   UNL     1       0.262  -2.673   0.355  0.00  0.00    +0.049 A 
ATOM     14  C   UNL     1       0.374  -4.049   0.491  0.00  0.00    +0.004 A 
ATOM     15  C   UNL     1       1.007  -4.591   1.573  0.00  0.00    +0.012 A 
ATOM     16  C   UNL     1       1.541  -3.753   2.563  0.00  0.00    +0.022 A 
ATOM     17  C   UNL     1       1.463  -2.357   2.410  0.00  0.00    +0.180 A 
ATOM     18  O   UNL     1       2.041  -1.539   3.323  0.00  0.00    -0.418 OA
ATOM     19  C   UNL     1       2.170  -2.020   4.581  0.00  0.00    +0.345 A 
ATOM     20  O   UNL     1       1.999  -1.303   5.549  0.00  0.00    -0.245 OA
ATOM     21  C   UNL     1       2.523  -3.443   4.738  0.00  0.00    +0.068 A 
ATOM     22  C   UNL     1       2.171  -4.303   3.710  0.00  0.00    +0.027 A 
BRANCH  12  23
ATOM     23  O   UNL     1       0.693  -0.477   1.160  0.00  0.00    -0.489 OA
BRANCH  23  25
ATOM     24  C   UNL     1      -0.019   1.526   0.010  0.00  0.00    +0.048 C 
ATOM     25  C   UNL     1       0.002  -0.004   0.002  0.00  0.00    +0.226 C 
ENDBRANCH  23  25
ENDBRANCH  12  23
ENDBRANCH   1  21
BRANCH  10  26
ATOM     26  O   UNL     1       0.958  -3.408  11.039  0.00  0.00    -0.506 OA
ATOM     27  H   UNL     1       0.405  -4.156  11.304  0.00  0.00    +0.292 HD
ENDBRANCH  10  26
BRANCH  11  28
ATOM     28  C   UNL     1       3.475  -4.662  10.871  0.00  0.00    -0.035 C 
BRANCH  28  29
ATOM     29  N   UNL     1       4.326  -3.595  11.415  0.00  0.00    +0.384 N 
ATOM     30  C   UNL     1       5.370  -3.256  10.439  0.00  0.00    -0.063 C 
ATOM     31  C   UNL     1       6.245  -2.132  10.997  0.00  0.00    +0.066 C 
ATOM     32  N   UNL     1       6.854  -2.570  12.261  0.00  0.00    -0.304 NA
ATOM     33  C   UNL     1       5.821  -2.937  13.240  0.00  0.00    +0.066 C 
ATOM     34  C   UNL     1       4.950  -4.055  12.663  0.00  0.00    -0.063 C 
ATOM     35  H   UNL     1       3.763  -2.779  11.602  0.00  0.00    -0.081 HD
BRANCH  32  36
ATOM     36  C   UNL     1       7.748  -1.537  12.800  0.00  0.00    +0.112 C 
BRANCH  36  37
ATOM     37  C   UNL     1       8.550  -2.116  13.968  0.00  0.00    +0.171 C 
BRANCH  37  38
ATOM     38  O   UNL     1       9.413  -3.149  13.488  0.00  0.00    -0.394 OA
ATOM     39  H   UNL     1       9.952  -3.562  14.176  0.00  0.00    +0.209 HD
ENDBRANCH  37  38
ENDBRANCH  36  37
ENDBRANCH  32  36
ENDBRANCH  28  29
ENDBRANCH  11  28
TORSDOF 9
