REMARK  Name = ZINC35877624
REMARK  6 active torsions:
REMARK  status: ('A' for Active; 'I' for Inactive)
REMARK    1  A    between atoms: C_1  and  O_2
REMARK    2  A    between atoms: O_2  and  C_3
REMARK    3  A    between atoms: C_8  and  N_9
REMARK    4  A    between atoms: C_10  and  C_12
REMARK    5  A    between atoms: C_15  and  C_29
REMARK    6  A    between atoms: C_29  and  C_30
REMARK                            x       y       z     vdW  Elec       q    Type
REMARK                         _______ _______ _______ _____ _____    ______ ____
ROOT
ATOM      1  C   UNL     1      -0.407  -5.128  -0.850  0.00  0.00    +0.076 C 
ATOM      2  C   UNL     1      -1.936  -4.910  -0.954  0.00  0.00    -0.003 C 
ATOM      3  C   UNL     1      -2.481  -6.349  -1.137  0.00  0.00    -0.061 C 
ATOM      4  N   UNL     1      -1.594  -7.164  -0.264  0.00  0.00    +0.394 N 
ATOM      5  C   UNL     1      -0.245  -6.591  -0.421  0.00  0.00    +0.049 C 
ATOM      6  C   UNL     1       0.562  -7.364  -1.428  0.00  0.00    -0.027 A 
ATOM      7  C   UNL     1       0.389  -7.641  -2.766  0.00  0.00    +0.019 A 
ATOM      8  C   UNL     1       1.327  -8.401  -3.443  0.00  0.00    +0.018 A 
ATOM      9  C   UNL     1       2.438  -8.880  -2.772  0.00  0.00    +0.017 A 
ATOM     10  C   UNL     1       2.615  -8.604  -1.432  0.00  0.00    +0.024 A 
ATOM     11  C   UNL     1       1.675  -7.840  -0.744  0.00  0.00    +0.036 A 
ATOM     12  N   UNL     1       1.633  -7.431   0.591  0.00  0.00    -0.286 N 
ATOM     13  C   UNL     1       0.539  -6.693   0.861  0.00  0.00    +0.211 C 
ATOM     14  O   UNL     1       0.243  -6.205   1.931  0.00  0.00    -0.277 OA
ATOM     15 BR   UNL     1       1.091  -8.783  -5.280  0.00  0.00    -0.050 Br
ATOM     16  H   UNL     1      -1.893  -7.096   0.697  0.00  0.00    -0.083 HD
ATOM     17  H   UNL     1       2.312  -7.652   1.247  0.00  0.00    +0.155 HD
ATOM     18  H   UNL     1      -1.600  -8.127  -0.565  0.00  0.00    -0.083 HD
ENDROOT
BRANCH   1  20
ATOM     19  N   UNL     1       1.453  -3.773   0.057  0.00  0.00    -0.282 N 
ATOM     20  C   UNL     1       0.184  -4.209   0.187  0.00  0.00    +0.220 C 
ATOM     21  O   UNL     1      -0.482  -3.860   1.139  0.00  0.00    -0.275 OA
ATOM     22  H   UNL     1       1.965  -4.002  -0.735  0.00  0.00    +0.155 HD
BRANCH  19  28
ATOM     23  C   UNL     1       3.388  -3.120   1.356  0.00  0.00    +0.141 A 
ATOM     24  C   UNL     1       3.958  -2.340   2.350  0.00  0.00    +0.049 A 
ATOM     25  C   UNL     1       3.179  -1.440   3.053  0.00  0.00    +0.024 A 
ATOM     26  C   UNL     1       1.831  -1.314   2.768  0.00  0.00    +0.043 A 
ATOM     27  C   UNL     1       1.256  -2.090   1.778  0.00  0.00    +0.047 A 
ATOM     28  C   UNL     1       2.032  -2.991   1.065  0.00  0.00    +0.077 A 
ATOM     29 CL   UNL     1       0.860  -0.182   3.656  0.00  0.00    -0.083 Cl
BRANCH  23  31
ATOM     30  C   UNL     1       5.535  -4.084   1.016  0.00  0.00    +0.277 C 
ATOM     31  O   UNL     1       4.153  -4.006   0.663  0.00  0.00    -0.493 OA
ENDBRANCH  23  31
ENDBRANCH  19  28
ENDBRANCH   1  20
BRANCH   3  32
ATOM     32  C   UNL     1      -3.935  -6.439  -0.669  0.00  0.00    +0.080 C 
BRANCH  32  33
ATOM     33  C   UNL     1      -4.464  -7.824  -0.938  0.00  0.00    +0.209 C 
ATOM     34  O   UNL     1      -3.749  -8.658  -1.453  0.00  0.00    -0.276 OA
ATOM     35  N   UNL     1      -5.732  -8.137  -0.606  0.00  0.00    -0.329 N 
ATOM     36  H   UNL     1      -6.304  -7.471  -0.194  0.00  0.00    +0.145 HD
ATOM     37  H   UNL     1      -6.073  -9.029  -0.779  0.00  0.00    +0.145 HD
ENDBRANCH  32  33
ENDBRANCH   3  32
TORSDOF 5
