REMARK  Name = ZINC02296548
REMARK  8 active torsions:
REMARK  status: ('A' for Active; 'I' for Inactive)
REMARK    1  A    between atoms: C_1  and  O_2
REMARK    2  A    between atoms: O_2  and  C_3
REMARK    3  A    between atoms: C_6  and  C_11
REMARK    4  A    between atoms: C_8  and  O_9
REMARK    5  A    between atoms: O_9  and  C_10
REMARK    6  A    between atoms: N_13  and  N_14
REMARK    7  A    between atoms: N_22  and  C_25
REMARK    8  A    between atoms: C_25  and  N_26
REMARK                            x       y       z     vdW  Elec       q    Type
REMARK                         _______ _______ _______ _____ _____    ______ ____
ROOT
ATOM      1  N   UNL     1       3.780  -2.424   6.344  0.00  0.00    -0.174 NA
ATOM      2  C   UNL     1       4.324  -1.705   7.296  0.00  0.00    +0.153 C 
ATOM      3  C   UNL     1       5.046  -2.192   8.494  0.00  0.00    +0.029 A 
ATOM      4  C   UNL     1       5.358  -3.462   8.966  0.00  0.00    +0.027 A 
ATOM      5  C   UNL     1       6.061  -3.600  10.148  0.00  0.00    +0.019 A 
ATOM      6  C   UNL     1       6.451  -2.476  10.858  0.00  0.00    +0.017 A 
ATOM      7  C   UNL     1       6.145  -1.212  10.397  0.00  0.00    +0.025 A 
ATOM      8  C   UNL     1       5.439  -1.054   9.209  0.00  0.00    +0.047 A 
ATOM      9  N   UNL     1       5.010   0.084   8.534  0.00  0.00    -0.252 N 
ATOM     10  C   UNL     1       4.356  -0.233   7.403  0.00  0.00    +0.272 C 
ATOM     11  O   UNL     1       3.873   0.554   6.611  0.00  0.00    -0.268 OA
ATOM     12 BR   UNL     1       6.489  -5.324  10.797  0.00  0.00    -0.050 Br
ENDROOT
BRANCH   1  15
ATOM     13  C   UNL     1       2.577  -2.534   4.292  0.00  0.00    +0.263 C 
ATOM     14  O   UNL     1       2.632  -3.747   4.341  0.00  0.00    -0.268 OA
ATOM     15  N   UNL     1       3.136  -1.794   5.271  0.00  0.00    -0.202 N 
ATOM     16  H   UNL     1       3.092  -0.826   5.232  0.00  0.00    +0.178 HD
BRANCH  13  20
ATOM     17  C   UNL     1       0.625  -0.618   1.041  0.00  0.00    +0.162 A 
ATOM     18  C   UNL     1       1.201   0.142   2.050  0.00  0.00    +0.050 A 
ATOM     19  C   UNL     1       1.835  -0.475   3.106  0.00  0.00    +0.017 A 
ATOM     20  C   UNL     1       1.899  -1.871   3.163  0.00  0.00    +0.042 A 
ATOM     21  C   UNL     1       1.319  -2.636   2.147  0.00  0.00    +0.062 A 
ATOM     22  C   UNL     1       0.680  -2.010   1.094  0.00  0.00    +0.162 A 
BRANCH  17  24
ATOM     23  C   UNL     1      -0.017   1.425   0.010  0.00  0.00    +0.277 C 
ATOM     24  O   UNL     1       0.002  -0.004   0.002  0.00  0.00    -0.491 OA
ENDBRANCH  17  24
BRANCH  22  25
ATOM     25  O   UNL     1       0.110  -2.752   0.107  0.00  0.00    -0.491 OA
ATOM     26  C   UNL     1       0.204  -4.173   0.226  0.00  0.00    +0.277 C 
ENDBRANCH  22  25
ENDBRANCH  13  20
ENDBRANCH   1  15
BRANCH   9  27
ATOM     27  C   UNL     1       5.246   1.455   8.994  0.00  0.00    +0.201 C 
BRANCH  27  28
ATOM     28  N   UNL     1       6.517   1.944   8.443  0.00  0.00    -0.287 NA
ATOM     29  C   UNL     1       7.656   1.451   9.227  0.00  0.00    +0.086 C 
ATOM     30  C   UNL     1       8.963   1.858   8.543  0.00  0.00    +0.015 C 
ATOM     31  C   UNL     1       9.020   3.384   8.429  0.00  0.00    +0.002 C 
ATOM     32  C   UNL     1       7.798   3.876   7.650  0.00  0.00    +0.015 C 
ATOM     33  C   UNL     1       6.524   3.410   8.360  0.00  0.00    +0.086 C 
ENDBRANCH  27  28
ENDBRANCH   9  27
TORSDOF 6
