REMARK  Name = ZINC63373556
REMARK  6 active torsions:
REMARK  status: ('A' for Active; 'I' for Inactive)
REMARK    1  A    between atoms: C_1  and  O_2
REMARK    2  A    between atoms: O_2  and  C_3
REMARK    3  A    between atoms: C_6  and  C_9
REMARK    4  A    between atoms: C_9  and  N_10
REMARK    5  A    between atoms: C_15  and  C_32
REMARK    6  A    between atoms: C_32  and  C_33
REMARK                            x       y       z     vdW  Elec       q    Type
REMARK                         _______ _______ _______ _____ _____    ______ ____
ROOT
ATOM      1  N   UNL     1       3.923  -2.713  -4.080  0.00  0.00    -0.237 N 
ATOM      2  C   UNL     1       4.865  -1.806  -4.362  0.00  0.00    +0.227 C 
ATOM      3  O   UNL     1       4.668  -0.733  -4.891  0.00  0.00    -0.275 OA
ATOM      4  C   UNL     1       6.213  -2.327  -3.920  0.00  0.00    +0.107 C 
ATOM      5  C   UNL     1       7.089  -2.596  -5.161  0.00  0.00    +0.072 C 
ATOM      6  N   UNL     1       6.745  -3.981  -5.580  0.00  0.00    -0.295 NA
ATOM      7  C   UNL     1       6.579  -4.711  -4.310  0.00  0.00    +0.136 C 
ATOM      8  C   UNL     1       5.882  -3.729  -3.335  0.00  0.00    +0.122 C 
ATOM      9  C   UNL     1       4.381  -3.826  -3.494  0.00  0.00    +0.229 C 
ATOM     10  O   UNL     1       3.699  -4.766  -3.147  0.00  0.00    -0.275 OA
ATOM     11  C   UNL     1       7.898  -5.177  -3.764  0.00  0.00    +0.003 A 
ATOM     12  C   UNL     1       9.052  -4.526  -3.388  0.00  0.00    +0.008 A 
ATOM     13  C   UNL     1      10.130  -5.249  -2.909  0.00  0.00    +0.000 A 
ATOM     14  C   UNL     1      10.046  -6.625  -2.810  0.00  0.00    +0.002 A 
ATOM     15  C   UNL     1       8.893  -7.282  -3.186  0.00  0.00    +0.023 A 
ATOM     16  C   UNL     1       7.803  -6.562  -3.668  0.00  0.00    +0.039 A 
ATOM     17  N   UNL     1       6.547  -6.991  -4.105  0.00  0.00    -0.283 N 
ATOM     18  C   UNL     1       5.769  -5.965  -4.499  0.00  0.00    +0.243 C 
ATOM     19  O   UNL     1       4.635  -6.037  -4.924  0.00  0.00    -0.273 OA
ATOM     20  H   UNL     1       5.893  -3.994  -6.119  0.00  0.00    +0.124 HD
ATOM     21  H   UNL     1       6.268  -7.919  -4.122  0.00  0.00    +0.155 HD
ENDROOT
BRANCH   1  22
ATOM     22  C   UNL     1       2.505  -2.503  -4.381  0.00  0.00    +0.151 C 
BRANCH  22  26
ATOM     23  C   UNL     1       0.606  -0.607  -1.056  0.00  0.00    +0.120 A 
ATOM     24  C   UNL     1       1.173   0.161  -2.062  0.00  0.00    +0.046 A 
ATOM     25  C   UNL     1       1.786  -0.455  -3.136  0.00  0.00    +0.009 A 
ATOM     26  C   UNL     1       1.835  -1.835  -3.209  0.00  0.00    -0.029 A 
ATOM     27  C   UNL     1       1.270  -2.602  -2.207  0.00  0.00    +0.009 A 
ATOM     28  C   UNL     1       0.661  -1.992  -1.128  0.00  0.00    +0.046 A 
BRANCH  23  30
ATOM     29  C   UNL     1      -0.017   1.425   0.010  0.00  0.00    +0.277 C 
ATOM     30  O   UNL     1       0.002  -0.004   0.002  0.00  0.00    -0.495 OA
ENDBRANCH  23  30
ENDBRANCH  22  26
ENDBRANCH   1  22
BRANCH   5  31
ATOM     31  C   UNL     1       6.753  -1.602  -6.275  0.00  0.00    +0.052 C 
BRANCH  31  32
ATOM     32  C   UNL     1       7.702  -1.801  -7.429  0.00  0.00    -0.040 C 
ATOM     33  C   UNL     1       7.490  -2.550  -8.535  0.00  0.00    -0.001 A 
ATOM     34  C   UNL     1       6.358  -3.373  -8.978  0.00  0.00    +0.010 A 
ATOM     35  C   UNL     1       6.441  -4.021 -10.162  0.00  0.00    +0.001 A 
ATOM     36  C   UNL     1       7.579  -3.927 -10.975  0.00  0.00    +0.002 A 
ATOM     37  C   UNL     1       8.658  -3.191 -10.636  0.00  0.00    +0.026 A 
ATOM     38  C   UNL     1       8.680  -2.467  -9.413  0.00  0.00    +0.043 A 
ATOM     39  N   UNL     1       9.591  -1.697  -8.870  0.00  0.00    -0.380 N 
ATOM     40  C   UNL     1       9.080  -1.199  -7.588  0.00  0.00    +0.144 C 
ATOM     41  H   UNL     1      10.457  -1.488  -9.253  0.00  0.00    +0.160 HD
ENDBRANCH  31  32
ENDBRANCH   5  31
TORSDOF 5
