REMARK  Name = ZINC19552667
REMARK  4 active torsions:
REMARK  status: ('A' for Active; 'I' for Inactive)
REMARK    1  A    between atoms: C_1  and  C_2
REMARK    2  A    between atoms: C_3  and  C_14
REMARK    3  A    between atoms: C_6  and  C_8
REMARK    4  A    between atoms: C_15  and  C_27
REMARK                            x       y       z     vdW  Elec       q    Type
REMARK                         _______ _______ _______ _____ _____    ______ ____
ROOT
ATOM      1  C   UNL     1      -1.846  -2.970   2.888  0.00  0.00    +0.087 A 
ATOM      2  C   UNL     1      -2.155  -3.507   1.623  0.00  0.00    +0.026 A 
ATOM      3  C   UNL     1      -1.790  -2.778   0.490  0.00  0.00    +0.125 A 
ATOM      4  N   UNL     1      -1.177  -1.617   0.642  0.00  0.00    -0.222 NA
ATOM      5  C   UNL     1      -0.897  -1.143   1.848  0.00  0.00    +0.218 A 
ATOM      6  N   UNL     1      -1.223  -1.797   2.952  0.00  0.00    -0.214 NA
ATOM      7  N   UNL     1      -0.249   0.075   1.957  0.00  0.00    -0.300 N 
ATOM      8  C   UNL     1       0.029   0.647   0.625  0.00  0.00    +0.108 C 
ATOM      9  C   UNL     1       0.025   2.150   0.751  0.00  0.00    +0.019 C 
ATOM     10  C   UNL     1       1.444   2.706   0.959  0.00  0.00    +0.002 C 
ATOM     11  C   UNL     1       2.270   1.833   1.925  0.00  0.00    +0.002 C 
ATOM     12  C   UNL     1       1.467   1.364   3.112  0.00  0.00    +0.019 C 
ATOM     13  C   UNL     1       0.865  -0.022   2.796  0.00  0.00    +0.108 C 
ENDROOT
BRANCH   1  16
ATOM     14  C   UNL     1       0.149  -3.420   4.980  0.00  0.00    +0.066 C 
ATOM     15  C   UNL     1      -1.264  -3.921   5.132  0.00  0.00    +0.051 A 
ATOM     16  C   UNL     1      -2.209  -3.700   4.125  0.00  0.00    +0.040 A 
ATOM     17  C   UNL     1      -3.507  -4.181   4.321  0.00  0.00    +0.124 A 
ATOM     18  N   UNL     1      -3.786  -4.831   5.438  0.00  0.00    -0.239 NA
ATOM     19  C   UNL     1      -2.865  -5.019   6.362  0.00  0.00    +0.132 A 
ATOM     20  N   UNL     1      -1.631  -4.577   6.220  0.00  0.00    -0.236 NA
BRANCH  19  21
ATOM     21  C   UNL     1      -3.234  -5.761   7.620  0.00  0.00    +0.053 C 
ATOM     22  C   UNL     1      -3.712  -7.170   7.261  0.00  0.00    -0.008 C 
ATOM     23  C   UNL     1      -4.145  -7.897   8.537  0.00  0.00    -0.082 C 
ATOM     24  N   UNL     1      -5.223  -7.145   9.190  0.00  0.00    +0.379 N 
ATOM     25  C   UNL     1      -4.772  -5.805   9.587  0.00  0.00    -0.082 C 
ATOM     26  C   UNL     1      -4.360  -5.015   8.342  0.00  0.00    -0.008 C 
ATOM     27  H   UNL     1      -6.069  -7.039   8.495  0.00  0.00    -0.086 HD
ATOM     28  H   UNL     1      -5.554  -7.684  10.090  0.00  0.00    -0.086 HD
ENDBRANCH  19  21
ENDBRANCH   1  16
BRANCH   2  29
ATOM     29  C   UNL     1      -2.849  -4.810   1.498  0.00  0.00    -0.014 A 
ATOM     30  C   UNL     1      -2.306  -5.951   2.087  0.00  0.00    +0.011 A 
ATOM     31  C   UNL     1      -2.958  -7.161   1.972  0.00  0.00    +0.039 A 
ATOM     32  C   UNL     1      -4.146  -7.246   1.263  0.00  0.00    +0.123 A 
ATOM     33  C   UNL     1      -4.687  -6.116   0.672  0.00  0.00    +0.039 A 
ATOM     34  C   UNL     1      -4.045  -4.900   0.786  0.00  0.00    +0.011 A 
ATOM     35  F   UNL     1      -4.779  -8.434   1.149  0.00  0.00    -0.205 F 
ENDBRANCH   2  29
TORSDOF 3
