REMARK  Name = ZINC34750230
REMARK  10 active torsions:
REMARK  status: ('A' for Active; 'I' for Inactive)
REMARK    1  A    between atoms: C_1  and  C_2
REMARK    2  A    between atoms: C_2  and  C_36
REMARK    3  A    between atoms: C_9  and  N_25
REMARK    4  A    between atoms: C_11  and  S_13
REMARK    5  A    between atoms: S_13  and  C_14
REMARK    6  A    between atoms: C_14  and  C_15
REMARK    7  A    between atoms: N_17  and  C_18
REMARK    8  A    between atoms: C_18  and  C_19
REMARK    9  A    between atoms: N_28  and  C_31
REMARK   10  A    between atoms: C_31  and  C_32
REMARK                            x       y       z     vdW  Elec       q    Type
REMARK                         _______ _______ _______ _____ _____    ______ ____
ROOT
ATOM      1  C   UNL     1       0.001   1.487   0.024  0.00  0.00    +0.041 C 
ATOM      2  C   UNL     1       0.008  -0.043   0.012  0.00  0.00    +0.068 C 
ATOM      3  C   UNL     1      -1.434  -0.558   0.003  0.00  0.00    +0.071 C 
ATOM      4  C   UNL     1      -2.057  -0.251   1.363  0.00  0.00    -0.020 A 
ATOM      5  C   UNL     1      -1.251   0.035   2.413  0.00  0.00    +0.021 A 
ATOM      6  S   UNL     1      -2.347   0.325   3.777  0.00  0.00    -0.071 S 
ATOM      7  C   UNL     1      -3.880   0.065   2.943  0.00  0.00    +0.115 A 
ATOM      8  C   UNL     1      -3.487  -0.243   1.615  0.00  0.00    +0.051 A 
ATOM      9  C   UNL     1      -4.528  -0.508   0.679  0.00  0.00    +0.134 A 
ATOM     10  N   UNL     1      -5.770  -0.439   1.153  0.00  0.00    -0.206 NA
ATOM     11  C   UNL     1      -6.065  -0.145   2.410  0.00  0.00    +0.191 A 
ATOM     12  N   UNL     1      -5.137   0.114   3.334  0.00  0.00    -0.214 NA
ATOM     13  C   UNL     1       0.244   0.085   2.394  0.00  0.00    +0.203 C 
ATOM     14  O   UNL     1       0.693  -0.523   1.172  0.00  0.00    -0.368 OA
ATOM     15  C   UNL     1       0.728  -0.538  -1.243  0.00  0.00    +0.041 C 
ENDROOT
BRANCH   9  16
ATOM     16  N   UNL     1      -4.264  -0.820  -0.642  0.00  0.00    -0.318 N 
ATOM     17  C   UNL     1      -3.961  -2.201  -1.048  0.00  0.00    +0.088 C 
ATOM     18  C   UNL     1      -4.860  -2.567  -2.234  0.00  0.00    -0.059 C 
ATOM     19  N   UNL     1      -4.692  -1.571  -3.300  0.00  0.00    +0.384 N 
ATOM     20  C   UNL     1      -5.163  -0.259  -2.837  0.00  0.00    -0.059 C 
ATOM     21  C   UNL     1      -4.284   0.220  -1.683  0.00  0.00    +0.088 C 
ATOM     22  H   UNL     1      -3.716  -1.508  -3.549  0.00  0.00    -0.081 HD
BRANCH  19  23
ATOM     23  C   UNL     1      -5.469  -1.981  -4.477  0.00  0.00    -0.052 C 
BRANCH  23  24
ATOM     24  C   UNL     1      -5.202  -1.026  -5.613  0.00  0.00    -0.053 C 
ATOM     25  C   UNL     1      -4.784  -1.483  -6.767  0.00  0.00    +0.002 C 
ENDBRANCH  23  24
ENDBRANCH  19  23
ENDBRANCH   9  16
BRANCH  11  26
ATOM     26  S   UNL     1      -7.762  -0.092   2.884  0.00  0.00    -0.077 S 
BRANCH  26  27
ATOM     27  C   UNL     1      -7.712   0.338   4.646  0.00  0.00    +0.173 C 
BRANCH  27  28
ATOM     28  C   UNL     1      -9.117   0.416   5.184  0.00  0.00    +0.224 C 
ATOM     29  O   UNL     1     -10.060   0.204   4.451  0.00  0.00    -0.275 OA
ATOM     30  N   UNL     1      -9.327   0.723   6.479  0.00  0.00    -0.311 N 
ATOM     31  H   UNL     1      -8.573   0.893   7.066  0.00  0.00    +0.149 HD
BRANCH  30  32
ATOM     32  C   UNL     1     -10.693   0.800   7.002  0.00  0.00    +0.139 C 
BRANCH  32  33
ATOM     33  C   UNL     1     -10.652   1.157   8.466  0.00  0.00    -0.030 A 
ATOM     34  C   UNL     1     -10.584   0.158   9.419  0.00  0.00    +0.005 A 
ATOM     35  C   UNL     1     -10.546   0.485  10.762  0.00  0.00    +0.000 A 
ATOM     36  C   UNL     1     -10.575   1.812  11.151  0.00  0.00    +0.000 A 
ATOM     37  C   UNL     1     -10.642   2.810  10.197  0.00  0.00    +0.000 A 
ATOM     38  C   UNL     1     -10.675   2.483   8.855  0.00  0.00    +0.005 A 
ENDBRANCH  32  33
ENDBRANCH  30  32
ENDBRANCH  27  28
ENDBRANCH  26  27
ENDBRANCH  11  26
TORSDOF 8
