REMARK  Name = ZINC00315041
REMARK  6 active torsions:
REMARK  status: ('A' for Active; 'I' for Inactive)
REMARK    1  A    between atoms: C_1  and  C_2
REMARK    2  A    between atoms: C_5  and  N_8
REMARK    3  A    between atoms: N_8  and  C_9
REMARK    4  A    between atoms: C_12  and  C_25
REMARK    5  A    between atoms: C_18  and  C_21
REMARK    6  A    between atoms: C_22  and  C_24
REMARK                            x       y       z     vdW  Elec       q    Type
REMARK                         _______ _______ _______ _____ _____    ______ ____
ROOT
ATOM      1  C   UNL     1       3.419  -0.460  -0.856  0.00  0.00    +0.104 C 
ATOM      2  C   UNL     1       3.518  -1.635   0.117  0.00  0.00    +0.049 C 
ATOM      3  C   UNL     1       2.458  -2.679  -0.259  0.00  0.00    +0.081 C 
ATOM      4  N   UNL     1       1.137  -2.060  -0.086  0.00  0.00    -0.268 N 
ATOM      5  C   UNL     1       0.930  -0.760  -0.566  0.00  0.00    +0.041 A 
ATOM      6  C   UNL     1       2.000   0.038  -0.940  0.00  0.00    -0.006 A 
ATOM      7  C   UNL     1       1.767   1.321  -1.405  0.00  0.00    +0.010 A 
ATOM      8  C   UNL     1       0.476   1.804  -1.499  0.00  0.00    -0.050 A 
ATOM      9  C   UNL     1      -0.592   1.009  -1.128  0.00  0.00    +0.005 A 
ATOM     10  C   UNL     1      -0.368  -0.271  -0.661  0.00  0.00    +0.024 A 
ATOM     11  C   UNL     1       0.231   3.201  -2.008  0.00  0.00    +0.044 C 
ATOM     12  C   UNL     1       0.140  -2.732   0.525  0.00  0.00    +0.217 C 
ATOM     13  O   UNL     1       0.188  -3.940   0.613  0.00  0.00    -0.276 OA
ATOM     14  C   UNL     1      -1.034  -1.980   1.099  0.00  0.00    +0.109 C 
ATOM     15  C   UNL     1       2.583  -3.898   0.658  0.00  0.00    +0.028 C 
ENDROOT
BRANCH   1  16
ATOM     16  N   UNL     1       4.285   0.626  -0.391  0.00  0.00    -0.337 N 
ATOM     17  H   UNL     1       4.512   0.697   0.550  0.00  0.00    +0.147 HD
BRANCH  16  22
ATOM     18  C   UNL     1       6.314   4.416  -4.089  0.00  0.00    +0.044 C 
ATOM     19  C   UNL     1       5.774   3.409  -3.106  0.00  0.00    -0.050 A 
ATOM     20  C   UNL     1       6.098   3.512  -1.766  0.00  0.00    +0.005 A 
ATOM     21  C   UNL     1       5.606   2.591  -0.863  0.00  0.00    +0.023 A 
ATOM     22  C   UNL     1       4.785   1.560  -1.302  0.00  0.00    +0.028 A 
ATOM     23  C   UNL     1       4.465   1.457  -2.650  0.00  0.00    +0.023 A 
ATOM     24  C   UNL     1       4.957   2.385  -3.547  0.00  0.00    +0.005 A 
ENDBRANCH  16  22
ENDBRANCH   1  16
TORSDOF 2
