REMARK  Name = ZINC64871262
REMARK  8 active torsions:
REMARK  status: ('A' for Active; 'I' for Inactive)
REMARK    1  A    between atoms: C_1  and  C_2
REMARK    2  A    between atoms: C_2  and  O_3
REMARK    3  A    between atoms: O_3  and  C_4
REMARK    4  A    between atoms: C_7  and  C_10
REMARK    5  A    between atoms: C_13  and  C_17
REMARK    6  A    between atoms: N_27  and  C_30
REMARK    7  A    between atoms: C_30  and  C_31
REMARK    8  A    between atoms: C_31  and  C_32
REMARK                            x       y       z     vdW  Elec       q    Type
REMARK                         _______ _______ _______ _____ _____    ______ ____
ROOT
ATOM      1  C   UNL     1       4.363  -7.794   1.983  0.00  0.00    -0.000 A 
ATOM      2  C   UNL     1       5.178  -6.673   2.017  0.00  0.00    +0.008 A 
ATOM      3  C   UNL     1       6.541  -6.805   2.182  0.00  0.00    +0.016 A 
ATOM      4  C   UNL     1       7.096  -8.075   2.315  0.00  0.00    +0.063 A 
ATOM      5  C   UNL     1       6.269  -9.211   2.281  0.00  0.00    +0.056 A 
ATOM      6  C   UNL     1       4.900  -9.059   2.120  0.00  0.00    +0.034 A 
ATOM      7  N   UNL     1       6.849 -10.464   2.417  0.00  0.00    -0.307 N 
ATOM      8  H   UNL     1       6.291 -11.257   2.395  0.00  0.00    +0.170 HD
ATOM      9  C   UNL     1       8.178 -10.590   2.578  0.00  0.00    +0.330 A 
ATOM     10  O   UNL     1       8.647 -11.705   2.693  0.00  0.00    -0.246 OA
ATOM     11  N   UNL     1       9.009  -9.536   2.617  0.00  0.00    -0.260 N 
ATOM     12  C   UNL     1       8.546  -8.273   2.494  0.00  0.00    +0.264 A 
ATOM     13  O   UNL     1       9.305  -7.324   2.531  0.00  0.00    -0.267 OA
ENDROOT
BRANCH   1  16
ATOM     14  C   UNL     1       1.232  -6.846   0.336  0.00  0.00    +0.180 C 
ATOM     15  N   UNL     1       2.582  -6.524   0.854  0.00  0.00    -0.265 NA
ATOM     16  C   UNL     1       2.876  -7.631   1.802  0.00  0.00    +0.242 C 
ATOM     17  O   UNL     1       2.308  -8.789   1.149  0.00  0.00    -0.274 OA
ATOM     18  N   UNL     1       1.059  -8.301   0.533  0.00  0.00    -0.177 NA
ATOM     19  H   UNL     1       3.260  -6.499   0.107  0.00  0.00    +0.127 HD
ATOM     20  H   UNL     1       0.264  -8.494   1.124  0.00  0.00    +0.156 HD
BRANCH  14  24
ATOM     21  C   UNL     1       0.980  -5.882  -3.820  0.00  0.00    +0.121 A 
ATOM     22  C   UNL     1       0.236  -6.934  -3.304  0.00  0.00    +0.046 A 
ATOM     23  C   UNL     1       0.320  -7.244  -1.961  0.00  0.00    +0.010 A 
ATOM     24  C   UNL     1       1.143  -6.507  -1.130  0.00  0.00    -0.014 A 
ATOM     25  C   UNL     1       1.885  -5.458  -1.641  0.00  0.00    +0.010 A 
ATOM     26  C   UNL     1       1.810  -5.148  -2.986  0.00  0.00    +0.046 A 
BRANCH  21  27
ATOM     27  O   UNL     1       0.900  -5.576  -5.142  0.00  0.00    -0.492 OA
BRANCH  27  29
ATOM     28  C   UNL     1       0.068  -5.883  -7.390  0.00  0.00    +0.048 C 
ATOM     29  C   UNL     1       0.025  -6.374  -5.941  0.00  0.00    +0.225 C 
ENDBRANCH  27  29
ENDBRANCH  21  27
ENDBRANCH  14  24
ENDBRANCH   1  16
BRANCH  11  30
ATOM     30  C   UNL     1      10.445  -9.760   2.796  0.00  0.00    +0.134 C 
BRANCH  30  31
ATOM     31  C   UNL     1      11.112  -9.916   1.428  0.00  0.00    +0.057 C 
BRANCH  31  32
ATOM     32  C   UNL     1      12.589 -10.147   1.612  0.00  0.00    -0.046 A 
ATOM     33  C   UNL     1      13.456  -9.071   1.660  0.00  0.00    +0.004 A 
ATOM     34  C   UNL     1      14.812  -9.283   1.829  0.00  0.00    +0.000 A 
ATOM     35  C   UNL     1      15.301 -10.570   1.950  0.00  0.00    +0.000 A 
ATOM     36  C   UNL     1      14.434 -11.646   1.904  0.00  0.00    +0.000 A 
ATOM     37  C   UNL     1      13.078 -11.434   1.739  0.00  0.00    +0.004 A 
ENDBRANCH  31  32
ENDBRANCH  30  31
ENDBRANCH  11  30
TORSDOF 7
