REMARK  Name = ZINC36161518
REMARK  11 active torsions:
REMARK  status: ('A' for Active; 'I' for Inactive)
REMARK    1  A    between atoms: C_1  and  C_2
REMARK    2  A    between atoms: C_15  and  C_17
REMARK    3  A    between atoms: C_17  and  N_18
REMARK    4  A    between atoms: N_18  and  C_19
REMARK    5  A    between atoms: N_18  and  C_28
REMARK    6  A    between atoms: C_19  and  C_20
REMARK    7  A    between atoms: C_20  and  C_22
REMARK    8  A    between atoms: C_20  and  O_27
REMARK    9  A    between atoms: C_22  and  O_23
REMARK   10  A    between atoms: O_23  and  C_24
REMARK   11  A    between atoms: C_24  and  C_25
REMARK                            x       y       z     vdW  Elec       q    Type
REMARK                         _______ _______ _______ _____ _____    ______ ____
ROOT
ATOM      1  C   UNL     1      -0.539  -8.029   2.598  0.00  0.00    -0.003 C 
ENDROOT
BRANCH   1  15
ATOM      2  C   UNL     1      -3.599   0.932   5.678  0.00  0.00    +0.008 C 
ATOM      3  C   UNL     1      -3.064  -0.269   4.896  0.00  0.00    -0.009 C 
ATOM      4  C   UNL     1      -4.235  -1.107   4.374  0.00  0.00    +0.008 C 
ATOM      5  C   UNL     1      -3.723  -2.159   3.391  0.00  0.00    +0.037 C 
ATOM      6  C   UNL     1      -2.599  -2.950   4.055  0.00  0.00    -0.023 A 
ATOM      7  C   UNL     1      -1.955  -2.453   5.137  0.00  0.00    -0.004 A 
ATOM      8  S   UNL     1      -0.750  -3.684   5.566  0.00  0.00    -0.073 S 
ATOM      9  C   UNL     1      -1.111  -4.858   4.299  0.00  0.00    +0.116 A 
ATOM     10  C   UNL     1      -2.164  -4.251   3.579  0.00  0.00    +0.075 A 
ATOM     11  C   UNL     1      -2.691  -4.978   2.459  0.00  0.00    +0.260 A 
ATOM     12  O   UNL     1      -3.599  -4.542   1.773  0.00  0.00    -0.267 OA
ATOM     13  N   UNL     1      -2.115  -6.178   2.214  0.00  0.00    -0.312 N 
ATOM     14  H   UNL     1      -2.441  -6.703   1.466  0.00  0.00    +0.170 HD
ATOM     15  C   UNL     1      -1.105  -6.681   2.964  0.00  0.00    +0.094 A 
ATOM     16  N   UNL     1      -0.596  -6.046   3.997  0.00  0.00    -0.229 NA
ATOM     17  C   UNL     1      -2.204  -1.143   5.820  0.00  0.00    +0.046 C 
ENDBRANCH   1  15
BRANCH   1  18
ATOM     18  N   UNL     1       0.649  -8.300   3.418  0.00  0.00    +0.388 N 
ATOM     19  H   UNL     1       0.510  -7.927   4.345  0.00  0.00    -0.081 HD
BRANCH  18  20
ATOM     20  C   UNL     1       1.822  -7.662   2.805  0.00  0.00    -0.068 C 
ATOM     21  C   UNL     1       1.547  -6.170   2.608  0.00  0.00    -0.015 C 
ATOM     22  C   UNL     1       2.769  -5.506   1.970  0.00  0.00    -0.002 C 
ATOM     23  C   UNL     1       3.052  -6.156   0.614  0.00  0.00    -0.000 C 
ATOM     24  C   UNL     1       3.328  -7.648   0.811  0.00  0.00    -0.002 C 
ATOM     25  C   UNL     1       2.106  -8.312   1.449  0.00  0.00    -0.015 C 
ENDBRANCH  18  20
BRANCH  18  26
ATOM     26  C   UNL     1       0.867  -9.750   3.500  0.00  0.00    -0.044 C 
BRANCH  26  27
ATOM     27  C   UNL     1       1.982 -10.042   4.506  0.00  0.00    +0.124 C 
BRANCH  27  28
ATOM     28  O   UNL     1       3.234  -9.609   3.969  0.00  0.00    -0.391 OA
ATOM     29  H   UNL     1       3.449  -9.998   3.110  0.00  0.00    +0.210 HD
ENDBRANCH  27  28
BRANCH  27  30
ATOM     30  C   UNL     1       2.039 -11.546   4.782  0.00  0.00    +0.189 C 
BRANCH  30  31
ATOM     31  O   UNL     1       3.001 -11.806   5.806  0.00  0.00    -0.373 OA
BRANCH  31  32
ATOM     32  C   UNL     1       3.132 -13.189   6.142  0.00  0.00    +0.186 C 
BRANCH  32  33
ATOM     33  C   UNL     1       4.167 -13.346   7.227  0.00  0.00    -0.007 C 
ATOM     34  C   UNL     1       3.929 -14.127   8.251  0.00  0.00    +0.006 C 
ENDBRANCH  32  33
ENDBRANCH  31  32
ENDBRANCH  30  31
ENDBRANCH  27  30
ENDBRANCH  26  27
ENDBRANCH  18  26
ENDBRANCH   1  18
TORSDOF 10
