REMARK  Name = ZINC21158748
REMARK  6 active torsions:
REMARK  status: ('A' for Active; 'I' for Inactive)
REMARK    1  A    between atoms: C_1  and  C_2
REMARK    2  A    between atoms: C_2  and  C_4
REMARK    3  A    between atoms: C_2  and  N_14
REMARK    4  A    between atoms: C_15  and  C_17
REMARK    5  A    between atoms: N_31  and  C_32
REMARK    6  A    between atoms: C_32  and  C_33
REMARK                            x       y       z     vdW  Elec       q    Type
REMARK                         _______ _______ _______ _____ _____    ______ ____
ROOT
ATOM      1  C   UNL     1      -5.752  -0.086   2.398  0.00  0.00    +0.078 C 
ATOM      2  C   UNL     1      -5.296   0.778   3.577  0.00  0.00    +0.032 C 
ATOM      3  C   UNL     1      -6.522   1.245   4.365  0.00  0.00    +0.108 C 
ATOM      4  N   UNL     1      -7.269   0.077   4.849  0.00  0.00    -0.302 N 
ATOM      5  C   UNL     1      -7.758  -0.742   3.733  0.00  0.00    +0.108 C 
ATOM      6  C   UNL     1      -6.568  -1.269   2.926  0.00  0.00    +0.032 C 
ATOM      7  C   UNL     1      -8.307   0.461   5.672  0.00  0.00    +0.177 A 
ATOM      8  N   UNL     1      -9.574   0.452   5.339  0.00  0.00    -0.327 N 
ATOM      9  C   UNL     1     -10.324   0.888   6.385  0.00  0.00    +0.065 A 
ATOM     10  C   UNL     1     -11.697   1.071   6.571  0.00  0.00    +0.028 A 
ATOM     11  C   UNL     1     -12.166   1.546   7.776  0.00  0.00    +0.002 A 
ATOM     12  C   UNL     1     -11.286   1.844   8.806  0.00  0.00    +0.002 A 
ATOM     13  C   UNL     1      -9.928   1.669   8.637  0.00  0.00    +0.028 A 
ATOM     14  C   UNL     1      -9.438   1.192   7.431  0.00  0.00    +0.068 A 
ATOM     15  N   UNL     1      -8.168   0.912   6.953  0.00  0.00    -0.309 N 
ATOM     16  H   UNL     1      -9.876   0.121   4.334  0.00  0.00    +0.169 HD
ENDROOT
BRANCH   1  18
ATOM     17  N   UNL     1      -3.676   0.269   1.100  0.00  0.00    -0.309 N 
ATOM     18  C   UNL     1      -4.546  -0.599   1.654  0.00  0.00    +0.217 C 
ATOM     19  O   UNL     1      -4.358  -1.793   1.553  0.00  0.00    -0.275 OA
ATOM     20  H   UNL     1      -3.847   1.352   1.192  0.00  0.00    +0.149 HD
BRANCH  17  22
ATOM     21  C   UNL     1      -2.891  -0.538  -1.071  0.00  0.00    +0.033 C 
ATOM     22  C   UNL     1      -2.504  -0.230   0.377  0.00  0.00    +0.100 C 
BRANCH  22  23
ATOM     23  C   UNL     1      -1.420   0.817   0.395  0.00  0.00    -0.024 A 
ATOM     24  C   UNL     1      -1.746   2.151   0.234  0.00  0.00    +0.009 A 
ATOM     25  C   UNL     1      -0.754   3.113   0.245  0.00  0.00    +0.050 A 
ATOM     26  C   UNL     1       0.571   2.744   0.424  0.00  0.00    +0.162 A 
ATOM     27  C   UNL     1       0.898   1.403   0.589  0.00  0.00    +0.162 A 
ATOM     28  C   UNL     1      -0.102   0.442   0.572  0.00  0.00    +0.055 A 
ATOM     29  O   UNL     1       2.191   1.019   0.767  0.00  0.00    -0.485 OA
ATOM     30  C   UNL     1       3.200   1.967   0.404  0.00  0.00    +0.270 C 
ATOM     31  C   UNL     1       2.806   3.333   0.982  0.00  0.00    +0.270 C 
ATOM     32  O   UNL     1       1.536   3.703   0.432  0.00  0.00    -0.485 OA
ENDBRANCH  22  23
ENDBRANCH  17  22
ENDBRANCH   1  18
BRANCH  15  33
ATOM     33  C   UNL     1      -6.909   1.072   7.685  0.00  0.00    +0.163 C 
BRANCH  33  34
ATOM     34  C   UNL     1      -6.520  -0.243   8.309  0.00  0.00    +0.007 A 
ATOM     35  C   UNL     1      -5.673  -1.104   7.637  0.00  0.00    +0.008 A 
ATOM     36  C   UNL     1      -5.316  -2.310   8.209  0.00  0.00    +0.000 A 
ATOM     37  C   UNL     1      -5.806  -2.658   9.455  0.00  0.00    +0.003 A 
ATOM     38  C   UNL     1      -6.652  -1.799  10.129  0.00  0.00    +0.039 A 
ATOM     39  C   UNL     1      -7.007  -0.588   9.559  0.00  0.00    +0.128 A 
ATOM     40  F   UNL     1      -7.831   0.255  10.219  0.00  0.00    -0.205 F 
ENDBRANCH  33  34
ENDBRANCH  15  33
TORSDOF 5
