REMARK  Name = ZINC35938673
REMARK  7 active torsions:
REMARK  status: ('A' for Active; 'I' for Inactive)
REMARK    1  A    between atoms: C_1  and  C_2
REMARK    2  A    between atoms: C_5  and  C_8
REMARK    3  A    between atoms: N_17  and  C_18
REMARK    4  A    between atoms: C_18  and  C_19
REMARK    5  A    between atoms: C_19  and  C_20
REMARK    6  A    between atoms: C_26  and  C_29
REMARK    7  A    between atoms: C_30  and  C_32
REMARK                            x       y       z     vdW  Elec       q    Type
REMARK                         _______ _______ _______ _____ _____    ______ ____
ROOT
ATOM      1  C   UNL     1      -3.103  -4.868   1.880  0.00  0.00    +0.077 C 
ENDROOT
BRANCH   1   2
ATOM      2  C   UNL     1      -4.527  -4.467   1.593  0.00  0.00    +0.214 C 
ATOM      3  O   UNL     1      -4.802  -3.915   0.549  0.00  0.00    -0.276 OA
ATOM      4  N   UNL     1      -5.494  -4.723   2.496  0.00  0.00    -0.298 N 
ATOM      5  C   UNL     1      -5.174  -5.385   3.768  0.00  0.00    +0.127 C 
ATOM      6  C   UNL     1      -6.057  -6.631   3.907  0.00  0.00    +0.127 C 
ATOM      7  N   UNL     1      -7.451  -6.251   3.638  0.00  0.00    -0.292 N 
ATOM      8  C   UNL     1      -7.771  -5.588   2.366  0.00  0.00    +0.091 C 
ATOM      9  C   UNL     1      -6.887  -4.337   2.229  0.00  0.00    +0.130 C 
ATOM     10  C   UNL     1      -7.500  -6.547   1.204  0.00  0.00    +0.029 C 
ATOM     11  C   UNL     1      -8.418  -6.506   4.541  0.00  0.00    +0.248 C 
ATOM     12  O   UNL     1      -9.547  -6.096   4.354  0.00  0.00    -0.270 OA
BRANCH  11  13
ATOM     13  C   UNL     1      -8.106  -7.285   5.757  0.00  0.00    +0.055 A 
ATOM     14  C   UNL     1      -7.509  -8.543   5.652  0.00  0.00    +0.014 A 
ATOM     15  C   UNL     1      -7.220  -9.264   6.791  0.00  0.00    +0.001 A 
ATOM     16  C   UNL     1      -7.521  -8.745   8.038  0.00  0.00    +0.001 A 
ATOM     17  C   UNL     1      -8.113  -7.500   8.152  0.00  0.00    +0.021 A 
ATOM     18  C   UNL     1      -8.403  -6.764   7.019  0.00  0.00    +0.053 A 
ATOM     19 CL   UNL     1      -9.139  -5.198   7.163  0.00  0.00    -0.083 Cl
ENDBRANCH  11  13
ENDBRANCH   1   2
BRANCH   1  20
ATOM     20  C   UNL     1      -2.212  -4.467   0.703  0.00  0.00    -0.068 C 
BRANCH  20  29
ATOM     21  C   UNL     1       0.043  -4.364  -0.094  0.00  0.00    -0.006 C 
ATOM     22  C   UNL     1       1.464  -4.862   0.151  0.00  0.00    -0.047 A 
ATOM     23  C   UNL     1       2.599  -4.293  -0.422  0.00  0.00    +0.010 A 
ATOM     24  C   UNL     1       3.824  -4.799  -0.146  0.00  0.00    +0.045 A 
ATOM     25  S   UNL     1       3.426  -6.141   0.966  0.00  0.00    -0.101 S 
ATOM     26  C   UNL     1       1.669  -5.927   0.976  0.00  0.00    -0.010 A 
ATOM     27  C   UNL     1       0.618  -6.704   1.699  0.00  0.00    +0.024 C 
ATOM     28  C   UNL     1      -0.742  -6.321   1.090  0.00  0.00    -0.072 C 
ATOM     29  N   UNL     1      -0.824  -4.857   0.983  0.00  0.00    +0.388 N 
ATOM     30  H   UNL     1      -0.534  -4.446   1.857  0.00  0.00    -0.080 HD
BRANCH  21  35
ATOM     31  C   UNL     1      -0.012   1.414  -0.132  0.00  0.00    +0.044 C 
ATOM     32  C   UNL     1       0.003  -0.093  -0.122  0.00  0.00    -0.050 A 
ATOM     33  C   UNL     1      -0.003  -0.792  -1.314  0.00  0.00    +0.003 A 
ATOM     34  C   UNL     1       0.010  -2.174  -1.305  0.00  0.00    +0.002 A 
ATOM     35  C   UNL     1       0.030  -2.858  -0.104  0.00  0.00    -0.057 A 
ATOM     36  C   UNL     1       0.036  -2.159   1.089  0.00  0.00    +0.002 A 
ATOM     37  C   UNL     1       0.027  -0.776   1.080  0.00  0.00    +0.003 A 
ENDBRANCH  21  35
ENDBRANCH  20  29
ENDBRANCH   1  20
TORSDOF 5
