REMARK  Name = ZINC62595561
REMARK  7 active torsions:
REMARK  status: ('A' for Active; 'I' for Inactive)
REMARK    1  A    between atoms: C_2  and  N_18
REMARK    2  A    between atoms: C_5  and  O_8
REMARK    3  A    between atoms: O_8  and  C_9
REMARK    4  A    between atoms: C_9  and  C_10
REMARK    5  A    between atoms: C_10  and  CA_11
REMARK    6  A    between atoms: CA_11  and  C_13
REMARK    7  A    between atoms: CA_11  and  N_16
REMARK                            x       y       z     vdW  Elec       q    Type
REMARK                         _______ _______ _______ _____ _____    ______ ____
ROOT
ATOM      1  C   UNL     1      -0.017   1.378   0.010  0.00  0.00    +0.051 A 
ATOM      2  C   UNL     1       1.170   2.087   0.002  0.00  0.00    +0.129 A 
ATOM      3  C   UNL     1       2.379   1.416  -0.013  0.00  0.00    +0.051 A 
ATOM      4  C   UNL     1       2.404   0.034  -0.021  0.00  0.00    +0.063 A 
ATOM      5  C   UNL     1       1.214  -0.680  -0.013  0.00  0.00    +0.148 A 
ATOM      6  C   UNL     1       0.002  -0.004   0.002  0.00  0.00    +0.063 A 
ATOM      7 BR   UNL     1      -1.622  -0.973   0.013  0.00  0.00    -0.046 Br
ATOM      8 BR   UNL     1       4.058  -0.883  -0.044  0.00  0.00    -0.046 Br
ENDROOT
BRANCH   2   9
ATOM      9  N   UNL     1       1.147   3.567   0.010  0.00  0.00    +0.056 N 
ATOM     10  O   UNL     1       0.091   4.155   0.023  0.00  0.00    -0.126 OA
ATOM     11  O   UNL     1       2.184   4.188   0.004  0.00  0.00    -0.126 OA
ENDBRANCH   2   9
BRANCH   5  12
ATOM     12  O   UNL     1       1.235  -2.039  -0.022  0.00  0.00    -0.490 OA
BRANCH  12  13
ATOM     13  C   UNL     1       1.259  -2.696   1.247  0.00  0.00    +0.228 C 
BRANCH  13  14
ATOM     14  C   UNL     1       1.280  -4.211   1.038  0.00  0.00    +0.036 C 
BRANCH  14  15
ATOM     15  CA  UNL     1       1.305  -4.914   2.396  0.00  0.00    +0.043 C 
BRANCH  15  16
ATOM     16  N   UNL     1       2.563  -4.599   3.087  0.00  0.00    +0.387 N 
ATOM     17  H1  UNL     1       3.342  -4.917   2.530  0.00  0.00    -0.089 HD
ATOM     18  H2  UNL     1       2.631  -3.602   3.223  0.00  0.00    -0.089 HD
ATOM     19  H3  UNL     1       2.579  -5.062   3.983  0.00  0.00    -0.089 HD
ENDBRANCH  15  16
BRANCH  15  20
ATOM     20  C   UNL     1       1.203  -6.404   2.193  0.00  0.00    +0.342 C 
ATOM     21  O   UNL     1       2.214  -7.071   2.058  0.00  0.00    -0.248 OA
ATOM     22  OXT UNL     1       0.109  -6.941   2.164  0.00  0.00    -0.248 OA
ENDBRANCH  15  20
ENDBRANCH  14  15
ENDBRANCH  13  14
ENDBRANCH  12  13
ENDBRANCH   5  12
TORSDOF 7
