REMARK  Name = ZINC16400060
REMARK  6 active torsions:
REMARK  status: ('A' for Active; 'I' for Inactive)
REMARK    1  A    between atoms: C_6  and  C_7
REMARK    2  A    between atoms: C_7  and  N_15
REMARK    3  A    between atoms: C_8  and  C_9
REMARK    4  A    between atoms: C_10  and  C_11
REMARK    5  A    between atoms: C_10  and  C_13
REMARK    6  A    between atoms: N_18  and  C_21
REMARK                            x       y       z     vdW  Elec       q    Type
REMARK                         _______ _______ _______ _____ _____    ______ ____
ROOT
ATOM      1  C   UNL     1       1.182   3.550   0.024  0.00  0.00    +0.037 C 
ATOM      2  C   UNL     1       0.926   2.823   1.173  0.00  0.00    +0.025 C 
ENDROOT
BRANCH   1   8
ATOM      3  C   UNL     1      -1.038   2.929  -0.916  0.00  0.00    +0.011 A 
ATOM      4  C   UNL     1      -1.994   3.026  -1.905  0.00  0.00    +0.020 A 
ATOM      5  C   UNL     1      -1.773   3.833  -3.010  0.00  0.00    +0.041 A 
ATOM      6  C   UNL     1      -0.592   4.547  -3.129  0.00  0.00    +0.020 A 
ATOM      7  C   UNL     1       0.372   4.460  -2.147  0.00  0.00    +0.011 A 
ATOM      8  C   UNL     1       0.156   3.648  -1.030  0.00  0.00    -0.004 A 
ATOM      9 CL   UNL     1      -2.981   3.948  -4.251  0.00  0.00    -0.084 Cl
ENDBRANCH   1   8
BRANCH   1  10
ATOM     10  N   UNL     1       2.393   4.180  -0.135  0.00  0.00    -0.326 N 
ATOM     11  C   UNL     1       3.633   3.405  -0.289  0.00  0.00    +0.124 C 
ATOM     12  C   UNL     1       4.372   3.920  -1.534  0.00  0.00    +0.124 C 
ATOM     13  N   UNL     1       4.559   5.372  -1.421  0.00  0.00    -0.327 N 
ATOM     14  C   UNL     1       3.269   6.075  -1.395  0.00  0.00    +0.124 C 
ATOM     15  C   UNL     1       2.484   5.648  -0.150  0.00  0.00    +0.124 C 
BRANCH  13  16
ATOM     16  C   UNL     1       5.371   5.855  -2.450  0.00  0.00    +0.031 A 
ATOM     17  C   UNL     1       4.910   6.867  -3.284  0.00  0.00    +0.024 A 
ATOM     18  C   UNL     1       5.717   7.346  -4.297  0.00  0.00    +0.023 A 
ATOM     19  C   UNL     1       6.979   6.812  -4.490  0.00  0.00    +0.059 A 
ATOM     20  C   UNL     1       7.439   5.800  -3.665  0.00  0.00    +0.061 A 
ATOM     21  C   UNL     1       6.637   5.320  -2.646  0.00  0.00    +0.044 A 
ATOM     22 CL   UNL     1       9.022   5.133  -3.911  0.00  0.00    -0.082 Cl
ATOM     23 CL   UNL     1       7.987   7.413  -5.769  0.00  0.00    -0.082 Cl
ENDBRANCH  13  16
ENDBRANCH   1  10
BRANCH   2  24
ATOM     24  C   UNL     1       1.840   2.837   2.223  0.00  0.00    +0.032 C 
ATOM     25  C   UNL     1       1.538   2.187   3.417  0.00  0.00    +0.128 C 
BRANCH  25  26
ATOM     26  C   UNL     1       0.287   1.506   3.566  0.00  0.00    +0.110 C 
ATOM     27  N   UNL     1      -0.705   0.966   3.683  0.00  0.00    -0.190 NA
ENDBRANCH  25  26
BRANCH  25  28
ATOM     28  C   UNL     1       2.478   2.201   4.498  0.00  0.00    +0.110 C 
ATOM     29  N   UNL     1       3.224   2.212   5.354  0.00  0.00    -0.190 NA
ENDBRANCH  25  28
ENDBRANCH   2  24
TORSDOF 6
