REMARK  Name = ZINC35665045
REMARK  11 active torsions:
REMARK  status: ('A' for Active; 'I' for Inactive)
REMARK    1  A    between atoms: C_1  and  C_2
REMARK    2  A    between atoms: C_2  and  O_3
REMARK    3  A    between atoms: O_3  and  C_4
REMARK    4  A    between atoms: C_4  and  C_6
REMARK    5  A    between atoms: C_7  and  C_24
REMARK    6  A    between atoms: N_8  and  C_21
REMARK    7  A    between atoms: C_12  and  C_14
REMARK    8  A    between atoms: C_21  and  C_22
REMARK    9  A    between atoms: C_24  and  N_25
REMARK   10  A    between atoms: C_29  and  C_32
REMARK   11  A    between atoms: C_33  and  C_35
REMARK                            x       y       z     vdW  Elec       q    Type
REMARK                         _______ _______ _______ _____ _____    ______ ____
ROOT
ATOM      1  C   UNL     1       1.679  -2.869  -4.735  0.00  0.00    +0.080 C 
ATOM      2  C   UNL     1       1.858  -4.207  -4.700  0.00  0.00    +0.041 C 
ATOM      3  N   UNL     1       2.243  -4.896  -5.814  0.00  0.00    -0.254 N 
ATOM      4  C   UNL     1       2.469  -4.320  -7.002  0.00  0.00    +0.307 C 
ATOM      5  O   UNL     1       2.808  -5.018  -7.938  0.00  0.00    -0.252 OA
ATOM      6  N   UNL     1       2.331  -2.994  -7.194  0.00  0.00    -0.288 N 
ATOM      7  C   UNL     1       1.913  -2.160  -6.054  0.00  0.00    +0.145 C 
ATOM      8  H   UNL     1       2.500  -2.597  -8.063  0.00  0.00    +0.151 HD
ENDROOT
BRANCH   7   9
ATOM      9  C   UNL     1       2.974  -1.113  -5.837  0.00  0.00    -0.004 A 
ATOM     10  C   UNL     1       4.300  -1.406  -6.099  0.00  0.00    +0.007 A 
ATOM     11  C   UNL     1       5.273  -0.446  -5.900  0.00  0.00    +0.000 A 
ATOM     12  C   UNL     1       4.922   0.809  -5.438  0.00  0.00    +0.001 A 
ATOM     13  C   UNL     1       3.598   1.104  -5.175  0.00  0.00    +0.020 A 
ATOM     14  C   UNL     1       2.622   0.145  -5.380  0.00  0.00    +0.046 A 
ATOM     15 CL   UNL     1       0.958   0.516  -5.056  0.00  0.00    -0.083 Cl
ENDBRANCH   7   9
BRANCH   1  16
ATOM     16  C   UNL     1       1.280  -2.154  -3.582  0.00  0.00    +0.339 C 
ATOM     17  O   UNL     1       0.123  -1.799  -3.455  0.00  0.00    -0.245 OA
BRANCH  16  18
ATOM     18  O   UNL     1       2.183  -1.865  -2.621  0.00  0.00    -0.462 OA
BRANCH  18  20
ATOM     19  C   UNL     1       2.864  -0.883  -0.521  0.00  0.00    +0.048 C 
ATOM     20  C   UNL     1       1.690  -1.239  -1.435  0.00  0.00    +0.229 C 
ENDBRANCH  18  20
ENDBRANCH  16  18
ENDBRANCH   1  16
BRANCH   3  21
ATOM     21  C   UNL     1       2.419  -6.346  -5.704  0.00  0.00    +0.141 C 
BRANCH  21  22
ATOM     22  C   UNL     1       1.116  -7.035  -6.018  0.00  0.00    -0.015 C 
ATOM     23  C   UNL     1       1.068  -7.952  -6.952  0.00  0.00    +0.005 C 
ENDBRANCH  21  22
ENDBRANCH   3  21
BRANCH   2  24
ATOM     24  C   UNL     1       1.631  -4.951  -3.410  0.00  0.00    +0.136 C 
BRANCH  24  25
ATOM     25  N   UNL     1       0.467  -5.836  -3.554  0.00  0.00    -0.294 NA
ATOM     26  C   UNL     1      -0.765  -5.059  -3.739  0.00  0.00    +0.104 C 
ATOM     27  C   UNL     1      -1.921  -6.011  -4.065  0.00  0.00    +0.123 C 
ATOM     28  N   UNL     1      -1.987  -7.041  -3.017  0.00  0.00    -0.296 N 
ATOM     29  C   UNL     1      -0.755  -7.770  -2.679  0.00  0.00    +0.087 C 
ATOM     30  C   UNL     1       0.355  -6.749  -2.408  0.00  0.00    +0.107 C 
ATOM     31  C   UNL     1      -0.989  -8.624  -1.432  0.00  0.00    +0.029 C 
ATOM     32  C   UNL     1      -3.146  -7.312  -2.385  0.00  0.00    +0.219 C 
ATOM     33  O   UNL     1      -3.162  -8.088  -1.453  0.00  0.00    -0.275 OA
BRANCH  32  34
ATOM     34  C   UNL     1      -4.423  -6.649  -2.835  0.00  0.00    +0.075 C 
ATOM     35  C   UNL     1      -4.457  -5.184  -2.351  0.00  0.00    +0.013 C 
ATOM     36  C   UNL     1      -5.942  -4.941  -1.984  0.00  0.00    +0.001 C 
ATOM     37  C   UNL     1      -6.363  -6.289  -1.348  0.00  0.00    +0.001 C 
ATOM     38  C   UNL     1      -5.635  -7.351  -2.197  0.00  0.00    +0.013 C 
ENDBRANCH  32  34
ENDBRANCH  24  25
ENDBRANCH   2  24
TORSDOF 9
