REMARK  Name = ZINC22924904
REMARK  10 active torsions:
REMARK  status: ('A' for Active; 'I' for Inactive)
REMARK    1  A    between atoms: C_6  and  C_7
REMARK    2  A    between atoms: C_7  and  C_8
REMARK    3  A    between atoms: C_7  and  O_15
REMARK    4  A    between atoms: O_15  and  C_16
REMARK    5  A    between atoms: C_16  and  C_17
REMARK    6  A    between atoms: C_17  and  C_19
REMARK    7  A    between atoms: C_17  and  O_36
REMARK    8  A    between atoms: C_19  and  N_20
REMARK    9  A    between atoms: N_23  and  C_26
REMARK   10  A    between atoms: C_26  and  C_27
REMARK                            x       y       z     vdW  Elec       q    Type
REMARK                         _______ _______ _______ _____ _____    ______ ____
ROOT
ATOM      1  C   UNL     1      -1.381  -0.535   0.386  0.00  0.00    +0.154 C 
ENDROOT
BRANCH   1   2
ATOM      2  O   UNL     1      -2.304  -0.266  -0.671  0.00  0.00    -0.388 OA
ATOM      3  H   UNL     1      -2.495   0.771  -0.984  0.00  0.00    +0.210 HD
ENDBRANCH   1   2
BRANCH   1   4
ATOM      4  C   UNL     1      -1.300  -2.045   0.621  0.00  0.00    +0.193 C 
BRANCH   4   5
ATOM      5  O   UNL     1      -2.562  -2.522   1.091  0.00  0.00    -0.365 OA
BRANCH   5   6
ATOM      6  C   UNL     1      -2.595  -3.928   1.343  0.00  0.00    +0.178 C 
BRANCH   6  12
ATOM      7  C   UNL     1      -2.633  -3.353   3.779  0.00  0.00    +0.008 A 
ATOM      8  C   UNL     1      -2.271  -3.597   5.090  0.00  0.00    +0.020 A 
ATOM      9  C   UNL     1      -1.458  -4.675   5.393  0.00  0.00    +0.041 A 
ATOM     10  C   UNL     1      -1.014  -5.511   4.384  0.00  0.00    +0.020 A 
ATOM     11  C   UNL     1      -1.383  -5.269   3.074  0.00  0.00    +0.008 A 
ATOM     12  C   UNL     1      -2.194  -4.191   2.772  0.00  0.00    -0.014 A 
ATOM     13 CL   UNL     1      -0.997  -4.980   7.039  0.00  0.00    -0.084 Cl
ENDBRANCH   6  12
BRANCH   6  14
ATOM     14  C   UNL     1      -3.990  -4.448   1.109  0.00  0.00    -0.014 A 
ATOM     15  C   UNL     1      -5.082  -3.663   1.427  0.00  0.00    +0.008 A 
ATOM     16  C   UNL     1      -6.362  -4.137   1.207  0.00  0.00    +0.020 A 
ATOM     17  C   UNL     1      -6.549  -5.402   0.679  0.00  0.00    +0.041 A 
ATOM     18  C   UNL     1      -5.456  -6.189   0.366  0.00  0.00    +0.020 A 
ATOM     19  C   UNL     1      -4.177  -5.712   0.581  0.00  0.00    +0.008 A 
ATOM     20 CL   UNL     1      -8.156  -6.000   0.408  0.00  0.00    -0.084 Cl
ENDBRANCH   6  14
ENDBRANCH   5   6
ENDBRANCH   4   5
ENDBRANCH   1   4
BRANCH   1  21
ATOM     21  C   UNL     1       0.002  -0.004   0.002  0.00  0.00    +0.117 C 
BRANCH  21  22
ATOM     22  N   UNL     1      -0.061   1.454  -0.161  0.00  0.00    -0.303 NA
ATOM     23  C   UNL     1       1.071   1.945  -0.959  0.00  0.00    +0.066 C 
ATOM     24  C   UNL     1       0.926   3.453  -1.173  0.00  0.00    -0.063 C 
ATOM     25  N   UNL     1       0.873   4.128   0.132  0.00  0.00    +0.384 N 
ATOM     26  C   UNL     1      -0.259   3.637   0.930  0.00  0.00    -0.063 C 
ATOM     27  C   UNL     1      -0.114   2.129   1.143  0.00  0.00    +0.066 C 
ATOM     28  H   UNL     1       1.800   3.889   0.675  0.00  0.00    -0.081 HD
BRANCH  25  29
ATOM     29  C   UNL     1       0.810   5.586  -0.032  0.00  0.00    -0.043 C 
BRANCH  29  30
ATOM     30  C   UNL     1       1.834   6.023  -1.048  0.00  0.00    -0.060 A 
ATOM     31  C   UNL     1       3.110   6.361  -0.639  0.00  0.00    +0.005 A 
ATOM     32  C   UNL     1       4.054   6.757  -1.568  0.00  0.00    +0.050 A 
ATOM     33  C   UNL     1       3.719   6.827  -2.910  0.00  0.00    +0.166 A 
ATOM     34  C   UNL     1       2.432   6.492  -3.321  0.00  0.00    +0.166 A 
ATOM     35  C   UNL     1       1.492   6.090  -2.385  0.00  0.00    +0.051 A 
ATOM     36  O   UNL     1       2.354   6.640  -4.676  0.00  0.00    -0.453 OA
ATOM     37  C   UNL     1       3.481   7.460  -5.038  0.00  0.00    +0.466 C 
ATOM     38  O   UNL     1       4.448   7.186  -4.007  0.00  0.00    -0.453 OA
ENDBRANCH  29  30
ENDBRANCH  25  29
ENDBRANCH  21  22
ENDBRANCH   1  21
TORSDOF 10
