REMARK  Name = ZINC33436975
REMARK  13 active torsions:
REMARK  status: ('A' for Active; 'I' for Inactive)
REMARK    1  A    between atoms: C_1  and  C_2
REMARK    2  A    between atoms: C_3  and  C_31
REMARK    3  A    between atoms: C_4  and  C_13
REMARK    4  A    between atoms: C_16  and  N_19
REMARK    5  A    between atoms: C_20  and  C_22
REMARK    6  A    between atoms: C_22  and  C_23
REMARK    7  A    between atoms: C_23  and  C_25
REMARK    8  A    between atoms: C_23  and  C_26
REMARK    9  A    between atoms: C_26  and  C_27
REMARK   10  A    between atoms: C_27  and  C_28
REMARK   11  A    between atoms: C_27  and  C_29
REMARK   12  A    between atoms: C_27  and  C_30
REMARK   13  A    between atoms: N_33  and  C_34
REMARK                            x       y       z     vdW  Elec       q    Type
REMARK                         _______ _______ _______ _____ _____    ______ ____
ROOT
ATOM      1  C   UNL     1      -9.993   3.883  -0.685  0.00  0.00    +0.064 C 
ATOM      2  C   UNL     1      -9.379   2.569  -1.096  0.00  0.00    +0.025 C 
ATOM      3  C   UNL     1      -8.980   2.389  -2.385  0.00  0.00    +0.058 C 
ATOM      4  C   UNL     1      -8.306   1.095  -2.770  0.00  0.00    +0.142 C 
ATOM      5  N   UNL     1      -8.748   0.037  -1.843  0.00  0.00    -0.300 N 
ATOM      6  C   UNL     1      -8.993  -1.290  -2.400  0.00  0.00    +0.109 C 
ATOM      7  C   UNL     1      -8.561  -2.405  -1.459  0.00  0.00    +0.030 C 
ATOM      8  C   UNL     1      -9.393  -2.325  -0.173  0.00  0.00    +0.078 C 
ATOM      9  S   UNL     1      -8.867  -0.856   0.746  0.00  0.00    -0.092 S 
ATOM     10  C   UNL     1      -8.943   0.352  -0.534  0.00  0.00    +0.135 C 
ATOM     11  N   UNL     1      -9.235   1.605  -0.194  0.00  0.00    -0.341 N 
ATOM     12  H   UNL     1      -9.365   1.871   0.865  0.00  0.00    +0.167 HD
ENDROOT
BRANCH   4  13
ATOM     13  C   UNL     1      -6.810   1.257  -2.676  0.00  0.00    -0.022 A 
ATOM     14  C   UNL     1      -6.066   1.470  -3.821  0.00  0.00    +0.007 A 
ATOM     15  C   UNL     1      -4.695   1.619  -3.738  0.00  0.00    +0.023 A 
ATOM     16  C   UNL     1      -4.065   1.554  -2.502  0.00  0.00    +0.033 A 
ATOM     17  C   UNL     1      -4.815   1.334  -1.354  0.00  0.00    +0.023 A 
ATOM     18  C   UNL     1      -6.186   1.192  -1.444  0.00  0.00    +0.007 A 
BRANCH  16  19
ATOM     19  N   UNL     1      -2.676   1.703  -2.415  0.00  0.00    -0.285 N 
ATOM     20  C   UNL     1      -2.133   2.339  -1.358  0.00  0.00    +0.217 C 
ATOM     21  O   UNL     1      -2.838   2.707  -0.443  0.00  0.00    -0.275 OA
ATOM     22  H   UNL     1      -2.029   1.302  -3.208  0.00  0.00    +0.155 HD
BRANCH  20  23
ATOM     23  C   UNL     1      -0.648   2.593  -1.314  0.00  0.00    +0.099 C 
BRANCH  23  24
ATOM     24  C   UNL     1      -0.294   3.325  -0.018  0.00  0.00    -0.005 C 
ATOM     25  C   UNL     1      -0.942   4.711  -0.021  0.00  0.00    +0.008 C 
BRANCH  24  26
ATOM     26  C   UNL     1       1.226   3.472   0.086  0.00  0.00    +0.010 C 
BRANCH  26  27
ATOM     27  C   UNL     1       1.624   3.629   1.555  0.00  0.00    -0.037 C 
ATOM     28  C   UNL     1       1.300   2.340   2.312  0.00  0.00    +0.010 C 
ATOM     29  C   UNL     1       3.124   3.914   1.649  0.00  0.00    +0.010 C 
ATOM     30  C   UNL     1       0.844   4.792   2.173  0.00  0.00    +0.010 C 
ENDBRANCH  26  27
ENDBRANCH  24  26
ENDBRANCH  23  24
ENDBRANCH  20  23
ENDBRANCH  16  19
ENDBRANCH   4  13
BRANCH   3  31
ATOM     31  C   UNL     1      -9.194   3.395  -3.345  0.00  0.00    +0.248 C 
ATOM     32  O   UNL     1      -9.739   4.437  -3.025  0.00  0.00    -0.270 OA
ATOM     33  N   UNL     1      -8.795   3.207  -4.619  0.00  0.00    -0.282 N 
ATOM     34  H   UNL     1      -8.381   2.236  -4.928  0.00  0.00    +0.155 HD
BRANCH  33  35
ATOM     35  C   UNL     1      -8.907   4.247  -5.548  0.00  0.00    +0.034 A 
ATOM     36  C   UNL     1      -9.175   3.963  -6.881  0.00  0.00    +0.023 A 
ATOM     37  C   UNL     1      -9.291   4.992  -7.794  0.00  0.00    +0.002 A 
ATOM     38  C   UNL     1      -9.129   6.303  -7.385  0.00  0.00    +0.000 A 
ATOM     39  C   UNL     1      -8.856   6.589  -6.060  0.00  0.00    +0.002 A 
ATOM     40  C   UNL     1      -8.745   5.564  -5.140  0.00  0.00    +0.023 A 
ENDBRANCH  33  35
ENDBRANCH   3  31
TORSDOF 8
