REMARK  Name = ZINC15676750
REMARK  8 active torsions:
REMARK  status: ('A' for Active; 'I' for Inactive)
REMARK    1  A    between atoms: C_1  and  C_2
REMARK    2  A    between atoms: C_2  and  C_3
REMARK    3  A    between atoms: C_6  and  C_9
REMARK    4  A    between atoms: C_15  and  C_26
REMARK    5  A    between atoms: C_15  and  C_27
REMARK    6  A    between atoms: N_16  and  C_19
REMARK    7  A    between atoms: C_22  and  C_25
REMARK    8  A    between atoms: N_29  and  C_30
REMARK                            x       y       z     vdW  Elec       q    Type
REMARK                         _______ _______ _______ _____ _____    ______ ____
ROOT
ATOM      1  C   UNL     1       6.563  -3.981   0.637  0.00  0.00    +0.093 A 
ATOM      2  C   UNL     1       5.218  -3.956   0.210  0.00  0.00    +0.062 A 
ATOM      3  C   UNL     1       4.860  -2.640   0.248  0.00  0.00    +0.125 A 
ATOM      4  N   UNL     1       5.956  -1.932   0.693  0.00  0.00    -0.256 N 
ATOM      5  N   UNL     1       6.923  -2.738   0.899  0.00  0.00    -0.170 NA
ATOM      6  C   UNL     1       5.897  -0.476   0.873  0.00  0.00    +0.179 C 
ATOM      7  C   UNL     1       4.905   0.117  -0.126  0.00  0.00    +0.135 C 
ATOM      8  N   UNL     1       3.642  -0.611  -0.162  0.00  0.00    -0.250 N 
ATOM      9  C   UNL     1       3.601  -1.964  -0.097  0.00  0.00    +0.270 C 
ATOM     10  O   UNL     1       2.579  -2.586  -0.316  0.00  0.00    -0.268 OA
ATOM     11  C   UNL     1       5.532   0.087  -1.522  0.00  0.00    +0.044 C 
ENDROOT
BRANCH   8  12
ATOM     12  C   UNL     1       2.444   0.104  -0.260  0.00  0.00    +0.038 A 
ATOM     13  C   UNL     1       2.226   0.953  -1.337  0.00  0.00    +0.024 A 
ATOM     14  C   UNL     1       1.043   1.659  -1.431  0.00  0.00    +0.005 A 
ATOM     15  C   UNL     1       0.075   1.521  -0.452  0.00  0.00    -0.050 A 
ATOM     16  C   UNL     1       0.289   0.677   0.622  0.00  0.00    +0.005 A 
ATOM     17  C   UNL     1       1.470  -0.032   0.721  0.00  0.00    +0.024 A 
ATOM     18  C   UNL     1      -1.212   2.297  -0.554  0.00  0.00    +0.044 C 
ENDBRANCH   8  12
BRANCH   1  22
ATOM     19  C   UNL     1       9.013  -7.436   1.014  0.00  0.00    -0.048 A 
ATOM     20  C   UNL     1       9.527  -6.190   1.325  0.00  0.00    +0.004 A 
ATOM     21  C   UNL     1       8.736  -5.066   1.204  0.00  0.00    +0.010 A 
ATOM     22  C   UNL     1       7.418  -5.187   0.769  0.00  0.00    +0.002 A 
ATOM     23  C   UNL     1       6.904  -6.445   0.463  0.00  0.00    +0.010 A 
ATOM     24  C   UNL     1       7.705  -7.563   0.581  0.00  0.00    +0.004 A 
BRANCH  19  26
ATOM     25  C   UNL     1       9.739  -9.236   2.558  0.00  0.00    +0.009 C 
ATOM     26  C   UNL     1       9.881  -8.661   1.147  0.00  0.00    +0.032 C 
ENDBRANCH  19  26
ENDBRANCH   1  22
BRANCH   7  27
ATOM     27  C   UNL     1       4.631   1.550   0.251  0.00  0.00    +0.239 C 
ATOM     28  O   UNL     1       5.186   2.450  -0.343  0.00  0.00    -0.273 OA
ATOM     29  N   UNL     1       3.771   1.831   1.250  0.00  0.00    -0.311 N 
ATOM     30  H   UNL     1       3.385   1.112   1.774  0.00  0.00    +0.149 HD
BRANCH  29  31
ATOM     31  C   UNL     1       3.418   3.223   1.543  0.00  0.00    +0.073 C 
ATOM     32  C   UNL     1       4.474   3.814   2.498  0.00  0.00    +0.022 C 
ATOM     33  C   UNL     1       4.424   5.316   2.395  0.00  0.00    +0.002 C 
ATOM     34  C   UNL     1       3.517   5.948   3.468  0.00  0.00    +0.000 C 
ATOM     35  C   UNL     1       2.208   5.164   3.681  0.00  0.00    +0.000 C 
ATOM     36  C   UNL     1       1.598   4.699   2.387  0.00  0.00    +0.002 C 
ATOM     37  C   UNL     1       2.078   3.260   2.108  0.00  0.00    +0.022 C 
ENDBRANCH  29  31
ENDBRANCH   7  27
TORSDOF 5
