REMARK  Name = ZINC09637398
REMARK  11 active torsions:
REMARK  status: ('A' for Active; 'I' for Inactive)
REMARK    1  A    between atoms: C_1  and  C_2
REMARK    2  A    between atoms: C_7  and  C_8
REMARK    3  A    between atoms: C_8  and  O_10
REMARK    4  A    between atoms: O_10  and  C_11
REMARK    5  A    between atoms: C_16  and  C_17
REMARK    6  A    between atoms: N_18  and  N_19
REMARK    7  A    between atoms: C_23  and  C_28
REMARK    8  A    between atoms: N_26  and  N_27
REMARK    9  A    between atoms: C_28  and  C_29
REMARK   10  A    between atoms: C_28  and  C_30
REMARK   11  A    between atoms: C_28  and  C_31
REMARK                            x       y       z     vdW  Elec       q    Type
REMARK                         _______ _______ _______ _____ _____    ______ ____
ROOT
ATOM      1  C   UNL     1       0.800   4.333   0.909  0.00  0.00    +0.142 C 
ATOM      2  N   UNL     1       0.181   3.194   0.974  0.00  0.00    -0.187 NA
ENDROOT
BRANCH   2   3
ATOM      3  N   UNL     1       0.911   2.008   1.131  0.00  0.00    -0.204 N 
ATOM      4  C   UNL     1       0.267   0.801   1.117  0.00  0.00    +0.255 A 
ATOM      5  N   UNL     1      -1.032   0.752   0.878  0.00  0.00    -0.111 NA
ATOM      6  N   UNL     1      -1.679  -0.357   0.849  0.00  0.00    -0.145 NA
ATOM      7  C   UNL     1      -1.081  -1.505   1.068  0.00  0.00    +0.135 A 
ATOM      8  C   UNL     1       0.305  -1.524   1.335  0.00  0.00    +0.294 A 
ATOM      9  O   UNL     1       0.889  -2.574   1.543  0.00  0.00    -0.264 OA
ATOM     10  N   UNL     1       0.968  -0.344   1.355  0.00  0.00    -0.198 N 
ATOM     11  H   UNL     1       1.873   2.043   1.250  0.00  0.00    +0.177 HD
BRANCH   7  12
ATOM     12  C   UNL     1      -1.866  -2.791   1.033  0.00  0.00    +0.012 C 
ATOM     13  C   UNL     1      -3.314  -2.494   0.637  0.00  0.00    +0.017 C 
ATOM     14  C   UNL     1      -1.242  -3.741   0.010  0.00  0.00    +0.017 C 
ATOM     15  C   UNL     1      -1.839  -3.442   2.417  0.00  0.00    +0.017 C 
ENDBRANCH   7  12
BRANCH  10  16
ATOM     16  N   UNL     1       2.309  -0.301   1.609  0.00  0.00    -0.293 N 
ATOM     17  H   UNL     1       2.666   0.638   1.509  0.00  0.00    +0.163 HD
ATOM     18  H   UNL     1       2.516  -0.671   2.525  0.00  0.00    +0.163 HD
ENDBRANCH  10  16
ENDBRANCH   2   3
BRANCH   1  24
ATOM     19  C   UNL     1      -1.372   5.556   0.874  0.00  0.00    +0.141 A 
ATOM     20  C   UNL     1      -2.087   6.742   0.842  0.00  0.00    +0.048 A 
ATOM     21  C   UNL     1      -1.421   7.952   0.793  0.00  0.00    +0.019 A 
ATOM     22  C   UNL     1      -0.036   7.989   0.782  0.00  0.00    +0.019 A 
ATOM     23  C   UNL     1       0.692   6.818   0.819  0.00  0.00    +0.028 A 
ATOM     24  C   UNL     1       0.029   5.589   0.869  0.00  0.00    +0.038 A 
ATOM     25 BR   UNL     1       0.861   9.653   0.715  0.00  0.00    -0.050 Br
BRANCH  19  26
ATOM     26  O   UNL     1      -2.026   4.366   0.917  0.00  0.00    -0.422 OA
BRANCH  26  27
ATOM     27  C   UNL     1      -2.262   3.841   2.135  0.00  0.00    +0.345 C 
ATOM     28  O   UNL     1      -1.841   4.399   3.129  0.00  0.00    -0.245 OA
BRANCH  27  35
ATOM     29  C   UNL     1      -2.540   2.591   4.729  0.00  0.00    +0.044 C 
ATOM     30  C   UNL     1      -3.173   1.974   3.509  0.00  0.00    -0.036 A 
ATOM     31  C   UNL     1      -3.894   0.803   3.620  0.00  0.00    +0.004 A 
ATOM     32  C   UNL     1      -4.477   0.237   2.501  0.00  0.00    +0.000 A 
ATOM     33  C   UNL     1      -4.341   0.839   1.262  0.00  0.00    +0.001 A 
ATOM     34  C   UNL     1      -3.628   2.013   1.137  0.00  0.00    +0.015 A 
ATOM     35  C   UNL     1      -3.032   2.587   2.262  0.00  0.00    +0.062 A 
ENDBRANCH  27  35
ENDBRANCH  26  27
ENDBRANCH  19  26
ENDBRANCH   1  24
TORSDOF 7
