REMARK  Name = ZINC43699743
REMARK  8 active torsions:
REMARK  status: ('A' for Active; 'I' for Inactive)
REMARK    1  A    between atoms: C_2  and  C_16
REMARK    2  A    between atoms: C_5  and  C_6
REMARK    3  A    between atoms: C_6  and  S_7
REMARK    4  A    between atoms: S_7  and  C_8
REMARK    5  A    between atoms: C_12  and  N_14
REMARK    6  A    between atoms: C_17  and  C_18
REMARK    7  A    between atoms: C_18  and  C_19
REMARK    8  A    between atoms: C_19  and  O_20
REMARK                            x       y       z     vdW  Elec       q    Type
REMARK                         _______ _______ _______ _____ _____    ______ ____
ROOT
ATOM      1  S   UNL     1      -1.641  -1.342  -1.699  0.00  0.00    -0.081 S 
ENDROOT
BRANCH   1   2
ATOM      2  C   UNL     1      -2.990  -2.462  -1.524  0.00  0.00    +0.192 A 
ATOM      3  N   UNL     1      -3.392  -2.803  -0.308  0.00  0.00    -0.207 NA
ATOM      4  C   UNL     1      -4.407  -3.646  -0.137  0.00  0.00    +0.122 A 
ATOM      5  C   UNL     1      -5.049  -4.169  -1.256  0.00  0.00    +0.086 A 
ATOM      6  C   UNL     1      -4.600  -3.787  -2.517  0.00  0.00    +0.122 A 
ATOM      7  N   UNL     1      -3.581  -2.936  -2.611  0.00  0.00    -0.207 NA
ATOM      8  N   UNL     1      -4.821  -3.999   1.138  0.00  0.00    -0.343 N 
ATOM      9  H   UNL     1      -4.369  -3.631   1.913  0.00  0.00    +0.144 HD
ATOM     10  H   UNL     1      -5.562  -4.613   1.255  0.00  0.00    +0.144 HD
BRANCH   6  11
ATOM     11  N   UNL     1      -5.208  -4.283  -3.659  0.00  0.00    -0.343 N 
ATOM     12  H   UNL     1      -5.952  -4.900  -3.583  0.00  0.00    +0.144 HD
ATOM     13  H   UNL     1      -4.890  -4.013  -4.535  0.00  0.00    +0.144 HD
ENDBRANCH   6  11
ENDBRANCH   1   2
BRANCH   1  14
ATOM     14  C   UNL     1      -1.159  -0.965   0.008  0.00  0.00    +0.119 C 
BRANCH  14  19
ATOM     15  C   UNL     1      -0.016   1.347   0.009  0.00  0.00    +0.028 A 
ATOM     16  C   UNL     1       1.192   2.040   0.002  0.00  0.00    +0.032 A 
ATOM     17  C   UNL     1       2.356   1.319  -0.013  0.00  0.00    +0.062 A 
ATOM     18  S   UNL     1       1.751  -0.360  -0.017  0.00  0.00    -0.100 S 
ATOM     19  C   UNL     1       0.002  -0.004   0.002  0.00  0.00    +0.001 A 
BRANCH  16  20
ATOM     20  C   UNL     1       1.217   3.472   0.009  0.00  0.00    -0.066 C 
ATOM     21  C   UNL     1       1.237   4.646   0.014  0.00  0.00    -0.095 C 
BRANCH  21  22
ATOM     22  C   UNL     1       1.263   6.117   0.021  0.00  0.00    +0.117 C 
BRANCH  22  23
ATOM     23  C   UNL     1       2.714   6.602   0.010  0.00  0.00    +0.168 C 
BRANCH  23  24
ATOM     24  O   UNL     1       2.738   8.031   0.017  0.00  0.00    -0.394 OA
ATOM     25  H   UNL     1       3.628   8.409   0.011  0.00  0.00    +0.209 HD
ENDBRANCH  23  24
ENDBRANCH  22  23
ENDBRANCH  21  22
ENDBRANCH  16  20
ENDBRANCH  14  19
ENDBRANCH   1  14
TORSDOF 8
