REMARK  Name = ZINC19855326
REMARK  9 active torsions:
REMARK  status: ('A' for Active; 'I' for Inactive)
REMARK    1  A    between atoms: C_1  and  C_2
REMARK    2  A    between atoms: C_3  and  C_28
REMARK    3  A    between atoms: C_4  and  C_21
REMARK    4  A    between atoms: C_10  and  C_15
REMARK    5  A    between atoms: C_28  and  O_30
REMARK    6  A    between atoms: O_30  and  C_31
REMARK    7  A    between atoms: C_31  and  C_32
REMARK    8  A    between atoms: C_32  and  C_33
REMARK    9  A    between atoms: C_32  and  C_34
REMARK                            x       y       z     vdW  Elec       q    Type
REMARK                         _______ _______ _______ _____ _____    ______ ____
ROOT
ATOM      1  C   UNL     1       2.454   0.144  -0.238  0.00  0.00    +0.061 C 
ATOM      2  C   UNL     1       1.176  -0.647  -0.120  0.00  0.00    +0.016 C 
ATOM      3  C   UNL     1       0.003  -0.004   0.009  0.00  0.00    +0.065 C 
ATOM      4  C   UNL     1      -1.289  -0.758   0.132  0.00  0.00    +0.092 C 
ATOM      5  C   UNL     1      -1.128  -2.186  -0.328  0.00  0.00    +0.024 C 
ATOM      6  C   UNL     1       0.098  -2.740  -0.441  0.00  0.00    +0.016 C 
ATOM      7  N   UNL     1       1.219  -2.013  -0.141  0.00  0.00    -0.321 N 
ATOM      8  C   UNL     1       0.267  -4.166  -0.901  0.00  0.00    +0.059 C 
ATOM      9  C   UNL     1      -0.947  -4.992  -0.473  0.00  0.00    +0.032 C 
ATOM     10  C   UNL     1      -2.205  -4.356  -1.075  0.00  0.00    +0.088 C 
ATOM     11  C   UNL     1      -2.287  -2.921  -0.632  0.00  0.00    +0.162 C 
ATOM     12  O   UNL     1      -3.374  -2.388  -0.534  0.00  0.00    -0.292 OA
ATOM     13  H   UNL     1       2.159  -2.537   0.085  0.00  0.00    +0.152 HD
ENDROOT
BRANCH   4  14
ATOM     14  C   UNL     1      -1.732  -0.749   1.572  0.00  0.00    -0.032 A 
ATOM     15  C   UNL     1      -2.948  -0.188   1.917  0.00  0.00    +0.005 A 
ATOM     16  C   UNL     1      -3.356  -0.178   3.237  0.00  0.00    +0.003 A 
ATOM     17  C   UNL     1      -2.550  -0.730   4.214  0.00  0.00    +0.038 A 
ATOM     18  C   UNL     1      -1.332  -1.292   3.870  0.00  0.00    +0.124 A 
ATOM     19  C   UNL     1      -0.927  -1.306   2.546  0.00  0.00    +0.043 A 
ATOM     20  F   UNL     1      -0.543  -1.832   4.825  0.00  0.00    -0.205 F 
ENDBRANCH   4  14
BRANCH   9  21
ATOM     21  C   UNL     1      -0.803  -6.405  -0.978  0.00  0.00    -0.044 A 
ATOM     22  C   UNL     1      -0.706  -6.647  -2.336  0.00  0.00    +0.004 A 
ATOM     23  C   UNL     1      -0.569  -7.942  -2.799  0.00  0.00    +0.000 A 
ATOM     24  C   UNL     1      -0.538  -8.996  -1.905  0.00  0.00    +0.000 A 
ATOM     25  C   UNL     1      -0.641  -8.755  -0.548  0.00  0.00    +0.000 A 
ATOM     26  C   UNL     1      -0.773  -7.459  -0.084  0.00  0.00    +0.004 A 
ENDBRANCH   9  21
BRANCH   3  27
ATOM     27  C   UNL     1      -0.016   1.410   0.024  0.00  0.00    +0.338 C 
ATOM     28  O   UNL     1       1.030   2.032   0.028  0.00  0.00    -0.245 OA
BRANCH  27  29
ATOM     29  O   UNL     1      -1.193   2.070   0.028  0.00  0.00    -0.461 OA
BRANCH  29  30
ATOM     30  C   UNL     1      -1.137   3.497   0.043  0.00  0.00    +0.235 C 
BRANCH  30  31
ATOM     31  C   UNL     1      -2.558   4.064   0.046  0.00  0.00    +0.020 C 
ATOM     32  C   UNL     1      -3.261   3.672   1.347  0.00  0.00    +0.010 C 
ATOM     33  C   UNL     1      -2.500   5.589  -0.064  0.00  0.00    +0.010 C 
ENDBRANCH  30  31
ENDBRANCH  29  30
ENDBRANCH  27  29
ENDBRANCH   3  27
TORSDOF 6
