REMARK  Name = ZINC43096756
REMARK  7 active torsions:
REMARK  status: ('A' for Active; 'I' for Inactive)
REMARK    1  A    between atoms: C_1  and  C_2
REMARK    2  A    between atoms: C_2  and  C_4
REMARK    3  A    between atoms: C_2  and  N_21
REMARK    4  A    between atoms: C_4  and  C_6
REMARK    5  A    between atoms: C_4  and  N_14
REMARK    6  A    between atoms: C_11  and  O_12
REMARK    7  A    between atoms: O_12  and  C_13
REMARK                            x       y       z     vdW  Elec       q    Type
REMARK                         _______ _______ _______ _____ _____    ______ ____
ROOT
ATOM      1  C   UNL     1       0.713  -0.402   1.297  0.00  0.00    +0.076 C 
ENDROOT
BRANCH   1   2
ATOM      2  N   UNL     1       2.048   0.211   1.331  0.00  0.00    -0.287 NA
ATOM      3  C   UNL     1       2.833  -0.296   2.468  0.00  0.00    +0.104 C 
ATOM      4  C   UNL     1       4.292   0.125   2.284  0.00  0.00    +0.119 C 
ATOM      5  N   UNL     1       4.368   1.556   2.004  0.00  0.00    -0.313 N 
ATOM      6  C   UNL     1       3.320   2.271   1.583  0.00  0.00    +0.227 C 
ATOM      7  O   UNL     1       3.479   3.449   1.344  0.00  0.00    -0.274 OA
ATOM      8  C   UNL     1       1.953   1.676   1.394  0.00  0.00    +0.181 C 
ATOM      9  H   UNL     1       5.217   2.008   2.129  0.00  0.00    +0.149 HD
ENDBRANCH   1   2
BRANCH   1  10
ATOM     10  C   UNL     1       0.841  -1.865   0.961  0.00  0.00    +0.010 A 
ATOM     11  C   UNL     1       1.988  -2.337   0.352  0.00  0.00    +0.009 A 
ATOM     12  C   UNL     1       2.105  -3.679   0.043  0.00  0.00    +0.001 A 
ATOM     13  C   UNL     1       1.076  -4.553   0.342  0.00  0.00    +0.004 A 
ATOM     14  C   UNL     1      -0.073  -4.086   0.951  0.00  0.00    +0.046 A 
ATOM     15  C   UNL     1      -0.191  -2.740   1.267  0.00  0.00    +0.125 A 
BRANCH  15  16
ATOM     16  O   UNL     1      -1.318  -2.280   1.871  0.00  0.00    -0.495 OA
ATOM     17  C   UNL     1      -2.339  -3.237   2.157  0.00  0.00    +0.277 C 
ENDBRANCH  15  16
ENDBRANCH   1  10
BRANCH   1  19
ATOM     18  C   UNL     1      -1.557  -0.284   0.260  0.00  0.00    -0.012 C 
ATOM     19  C   UNL     1      -0.140   0.293   0.234  0.00  0.00    -0.056 C 
BRANCH  19  20
ATOM     20  N   UNL     1       0.454   0.074  -1.091  0.00  0.00    +0.381 N 
ATOM     21  H   UNL     1      -0.109   0.533  -1.792  0.00  0.00    -0.090 HD
ATOM     22  H   UNL     1       1.388   0.455  -1.108  0.00  0.00    -0.090 HD
ATOM     23  H   UNL     1       0.491  -0.915  -1.284  0.00  0.00    -0.090 HD
ENDBRANCH  19  20
ENDBRANCH   1  19
TORSDOF 5
