REMARK  Name = ZINC63625748
REMARK  9 active torsions:
REMARK  status: ('A' for Active; 'I' for Inactive)
REMARK    1  A    between atoms: C_1  and  C_2
REMARK    2  A    between atoms: C_3  and  C_30
REMARK    3  A    between atoms: C_4  and  C_29
REMARK    4  A    between atoms: C_6  and  C_8
REMARK    5  A    between atoms: C_13  and  C_16
REMARK    6  A    between atoms: C_16  and  C_17
REMARK    7  A    between atoms: N_19  and  C_20
REMARK    8  A    between atoms: C_20  and  C_22
REMARK    9  A    between atoms: C_20  and  C_23
REMARK                            x       y       z     vdW  Elec       q    Type
REMARK                         _______ _______ _______ _____ _____    ______ ____
ROOT
ATOM      1  C   UNL     1       1.439  -0.673   1.906  0.00  0.00    +0.244 C 
ATOM      2  O   UNL     1       2.406  -1.359   1.649  0.00  0.00    -0.273 OA
ATOM      3  N   UNL     1       1.534   0.310   2.823  0.00  0.00    -0.299 N 
ATOM      4  C   UNL     1       0.346   1.074   3.228  0.00  0.00    +0.108 C 
ATOM      5  C   UNL     1       0.638   2.568   3.053  0.00  0.00    +0.023 C 
ATOM      6  C   UNL     1       1.910   2.929   3.823  0.00  0.00    +0.001 C 
ATOM      7  C   UNL     1       3.092   2.137   3.260  0.00  0.00    +0.023 C 
ATOM      8  C   UNL     1       2.827   0.635   3.441  0.00  0.00    +0.108 C 
ENDROOT
BRANCH   1  14
ATOM      9  C   UNL     1       0.048   1.448  -0.099  0.00  0.00    +0.042 C 
ATOM     10  C   UNL     1       0.032  -0.058  -0.038  0.00  0.00    -0.035 C 
ATOM     11  C   UNL     1      -0.065  -0.901  -1.065  0.00  0.00    -0.028 C 
ATOM     12  C   UNL     1      -0.043  -2.278  -0.569  0.00  0.00    +0.037 C 
ATOM     13  N   UNL     1       0.065  -2.306   0.717  0.00  0.00    -0.271 NA
ATOM     14  C   UNL     1       0.131  -0.921   1.200  0.00  0.00    +0.217 C 
ATOM     15  C   UNL     1      -0.134  -3.501  -1.445  0.00  0.00    +0.065 C 
ATOM     16  C   UNL     1      -0.181  -0.499  -2.513  0.00  0.00    +0.045 C 
ENDBRANCH   1  14
BRANCH   6  17
ATOM     17  C   UNL     1       2.185   4.427   3.680  0.00  0.00    +0.099 C 
BRANCH  17  18
ATOM     18  C   UNL     1       3.365   4.806   4.537  0.00  0.00    +0.214 C 
ATOM     19  O   UNL     1       3.931   3.960   5.197  0.00  0.00    -0.276 OA
ATOM     20  N   UNL     1       3.792   6.083   4.569  0.00  0.00    -0.309 N 
ATOM     21  H   UNL     1       3.340   6.760   4.041  0.00  0.00    +0.149 HD
BRANCH  20  22
ATOM     22  C   UNL     1       4.940   6.451   5.402  0.00  0.00    +0.100 C 
ATOM     23  C   UNL     1       4.466   6.728   6.830  0.00  0.00    +0.033 C 
BRANCH  22  24
ATOM     24  C   UNL     1       5.592   7.689   4.841  0.00  0.00    -0.027 A 
ATOM     25  C   UNL     1       4.812   8.719   4.351  0.00  0.00    +0.005 A 
ATOM     26  C   UNL     1       5.410   9.854   3.836  0.00  0.00    +0.000 A 
ATOM     27  C   UNL     1       6.788   9.959   3.812  0.00  0.00    +0.000 A 
ATOM     28  C   UNL     1       7.568   8.928   4.302  0.00  0.00    +0.000 A 
ATOM     29  C   UNL     1       6.970   7.795   4.821  0.00  0.00    +0.005 A 
ENDBRANCH  22  24
ENDBRANCH  20  22
ENDBRANCH  17  18
ENDBRANCH   6  17
TORSDOF 5
