REMARK  Name = ZINC20322152
REMARK  9 active torsions:
REMARK  status: ('A' for Active; 'I' for Inactive)
REMARK    1  A    between atoms: C_1  and  C_2
REMARK    2  A    between atoms: C_5  and  C_40
REMARK    3  A    between atoms: N_8  and  C_10
REMARK    4  A    between atoms: C_10  and  C_11
REMARK    5  A    between atoms: C_11  and  N_12
REMARK    6  A    between atoms: N_12  and  C_13
REMARK    7  A    between atoms: C_15  and  N_30
REMARK    8  A    between atoms: C_32  and  C_39
REMARK    9  A    between atoms: C_35  and  C_38
REMARK                            x       y       z     vdW  Elec       q    Type
REMARK                         _______ _______ _______ _____ _____    ______ ____
ROOT
ATOM      1  C   UNL     1       5.116  -2.237   3.472  0.00  0.00    +0.041 A 
ATOM      2  C   UNL     1       5.742  -1.499   2.463  0.00  0.00    +0.049 A 
ATOM      3  C   UNL     1       7.083  -1.175   2.454  0.00  0.00    +0.061 A 
ATOM      4  C   UNL     1       7.937  -1.621   3.566  0.00  0.00    +0.136 A 
ATOM      5  C   UNL     1       7.264  -2.388   4.606  0.00  0.00    +0.063 A 
ATOM      6  C   UNL     1       5.854  -2.698   4.573  0.00  0.00    +0.056 A 
ATOM      7  C   UNL     1       5.328  -3.447   5.651  0.00  0.00    +0.196 C 
ATOM      8  O   UNL     1       4.146  -3.750   5.686  0.00  0.00    -0.287 OA
ATOM      9  C   UNL     1       6.247  -3.856   6.734  0.00  0.00    +0.033 A 
ATOM     10  C   UNL     1       5.749  -4.599   7.810  0.00  0.00    +0.012 A 
ATOM     11  C   UNL     1       6.589  -4.987   8.828  0.00  0.00    +0.001 A 
ATOM     12  C   UNL     1       7.936  -4.649   8.803  0.00  0.00    +0.001 A 
ATOM     13  C   UNL     1       8.453  -3.919   7.757  0.00  0.00    +0.012 A 
ATOM     14  C   UNL     1       7.620  -3.514   6.711  0.00  0.00    +0.031 A 
ATOM     15  C   UNL     1       8.155  -2.747   5.584  0.00  0.00    +0.176 A 
ATOM     16  O   UNL     1       9.335  -2.239   5.195  0.00  0.00    -0.353 OA
ATOM     17  N   UNL     1       9.183  -1.552   3.954  0.00  0.00    -0.076 NA
ENDROOT
BRANCH   3  18
ATOM     18  N   UNL     1       7.618  -0.443   1.415  0.00  0.00    -0.328 N 
ATOM     19  C   UNL     1       8.156  -1.115   0.225  0.00  0.00    +0.108 C 
ATOM     20  C   UNL     1       7.486  -0.525  -1.020  0.00  0.00    +0.003 C 
ATOM     21  C   UNL     1       7.668   0.994  -1.021  0.00  0.00    +0.009 C 
ATOM     22  C   UNL     1       6.995   1.590   0.218  0.00  0.00    +0.003 C 
ATOM     23  C   UNL     1       7.654   1.025   1.474  0.00  0.00    +0.108 C 
ATOM     24  C   UNL     1       7.147   3.112   0.199  0.00  0.00    +0.009 C 
ATOM     25  C   UNL     1       8.130  -1.118  -2.276  0.00  0.00    +0.009 C 
ENDBRANCH   3  18
BRANCH   1  26
ATOM     26  N   UNL     1       3.766  -2.508   3.387  0.00  0.00    -0.345 N 
ATOM     27  H   UNL     1       3.329  -3.017   4.088  0.00  0.00    +0.146 HD
BRANCH  26  28
ATOM     28  C   UNL     1       2.993  -2.028   2.239  0.00  0.00    +0.083 C 
BRANCH  28  29
ATOM     29  C   UNL     1       1.534  -2.461   2.390  0.00  0.00    -0.060 C 
BRANCH  29  35
ATOM     30  C   UNL     1      -0.019   1.526   0.010  0.00  0.00    +0.005 C 
ATOM     31  C   UNL     1       0.002  -0.004   0.002  0.00  0.00    -0.031 C 
ATOM     32  C   UNL     1      -1.434  -0.535   0.015  0.00  0.00    +0.003 C 
ATOM     33  C   UNL     1      -1.402  -2.064   0.086  0.00  0.00    -0.031 C 
ATOM     34  C   UNL     1      -0.613  -2.496   1.324  0.00  0.00    -0.076 C 
ATOM     35  N   UNL     1       0.758  -1.980   1.239  0.00  0.00    +0.381 N 
ATOM     36  C   UNL     1       0.740  -0.512   1.242  0.00  0.00    -0.076 C 
ATOM     37  C   UNL     1      -2.832  -2.602   0.177  0.00  0.00    +0.005 C 
ATOM     38  H   UNL     1       1.188  -2.307   0.386  0.00  0.00    -0.082 HD
ENDBRANCH  29  35
ENDBRANCH  28  29
ENDBRANCH  26  28
ENDBRANCH   1  26
TORSDOF 5
