REMARK  Name = ZINC22828775
REMARK  10 active torsions:
REMARK  status: ('A' for Active; 'I' for Inactive)
REMARK    1  A    between atoms: C_1  and  C_2
REMARK    2  A    between atoms: C_2  and  O_3
REMARK    3  A    between atoms: O_3  and  C_4
REMARK    4  A    between atoms: C_4  and  C_6
REMARK    5  A    between atoms: C_9  and  O_32
REMARK    6  A    between atoms: N_13  and  C_25
REMARK    7  A    between atoms: C_14  and  C_15
REMARK    8  A    between atoms: C_15  and  N_16
REMARK    9  A    between atoms: N_19  and  C_22
REMARK   10  A    between atoms: C_22  and  C_23
REMARK                            x       y       z     vdW  Elec       q    Type
REMARK                         _______ _______ _______ _____ _____    ______ ____
ROOT
ATOM      1  C   UNL     1      -1.799   1.345  -4.298  0.00  0.00    +0.086 A 
ATOM      2  C   UNL     1      -2.015   2.333  -5.372  0.00  0.00    +0.018 A 
ATOM      3  C   UNL     1      -2.956   2.462  -6.391  0.00  0.00    +0.057 A 
ATOM      4  C   UNL     1      -2.876   3.531  -7.263  0.00  0.00    +0.131 A 
ATOM      5  C   UNL     1      -1.861   4.475  -7.123  0.00  0.00    +0.061 A 
ATOM      6  C   UNL     1      -0.927   4.354  -6.118  0.00  0.00    +0.045 A 
ATOM      7  C   UNL     1      -0.992   3.283  -5.232  0.00  0.00    +0.052 A 
ATOM      8  N   UNL     1      -0.219   2.903  -4.152  0.00  0.00    -0.342 N 
ATOM      9  C   UNL     1      -0.701   1.763  -3.604  0.00  0.00    +0.018 A 
ATOM     10 BR   UNL     1      -1.765   5.933  -8.323  0.00  0.00    -0.046 Br
ENDROOT
BRANCH   8  11
ATOM     11  C   UNL     1       0.957   3.631  -3.669  0.00  0.00    +0.087 C 
ATOM     12  C   UNL     1       0.548   5.048  -3.262  0.00  0.00    +0.025 C 
ATOM     13  C   UNL     1       1.775   5.808  -2.756  0.00  0.00    +0.002 C 
ATOM     14  C   UNL     1       2.824   5.880  -3.868  0.00  0.00    +0.000 C 
ATOM     15  C   UNL     1       3.233   4.463  -4.275  0.00  0.00    +0.002 C 
ATOM     16  C   UNL     1       2.005   3.703  -4.780  0.00  0.00    +0.025 C 
ENDBRANCH   8  11
BRANCH   1  17
ATOM     17  C   UNL     1      -2.607   0.151  -4.028  0.00  0.00    +0.341 C 
ATOM     18  O   UNL     1      -3.560   0.219  -3.276  0.00  0.00    -0.245 OA
BRANCH  17  19
ATOM     19  O   UNL     1      -2.293  -1.023  -4.613  0.00  0.00    -0.461 OA
BRANCH  19  21
ATOM     20  C   UNL     1      -2.628  -3.394  -5.051  0.00  0.00    +0.048 C 
ATOM     21  C   UNL     1      -3.136  -2.162  -4.300  0.00  0.00    +0.229 C 
ENDBRANCH  19  21
ENDBRANCH  17  19
ENDBRANCH   1  17
BRANCH   4  22
ATOM     22  O   UNL     1      -3.792   3.663  -8.260  0.00  0.00    -0.506 OA
ATOM     23  H   UNL     1      -3.730   4.514  -8.955  0.00  0.00    +0.292 HD
ENDBRANCH   4  22
BRANCH   9  24
ATOM     24  C   UNL     1      -0.109   1.057  -2.412  0.00  0.00    -0.023 C 
BRANCH  24  25
ATOM     25  N   UNL     1      -0.724   1.573  -1.182  0.00  0.00    +0.385 N 
ATOM     26  C   UNL     1      -0.013   1.086   0.008  0.00  0.00    -0.063 C 
ATOM     27  C   UNL     1      -0.730   1.580   1.267  0.00  0.00    +0.067 C 
ATOM     28  N   UNL     1      -0.783   3.048   1.252  0.00  0.00    -0.293 NA
ATOM     29  C   UNL     1      -1.495   3.536   0.062  0.00  0.00    +0.067 C 
ATOM     30  C   UNL     1      -0.777   3.042  -1.196  0.00  0.00    -0.063 C 
ATOM     31  H   UNL     1      -1.757   1.196  -1.138  0.00  0.00    -0.081 HD
BRANCH  28  32
ATOM     32  C   UNL     1      -1.399   3.565   2.482  0.00  0.00    +0.203 C 
BRANCH  32  33
ATOM     33  C   UNL     1      -0.821   2.875   3.647  0.00  0.00    +0.078 C 
ATOM     34  N   UNL     1      -0.375   2.343   4.546  0.00  0.00    -0.195 NA
ENDBRANCH  32  33
ENDBRANCH  28  32
ENDBRANCH  24  25
ENDBRANCH   9  24
TORSDOF 9
