REMARK  Name = ZINC04718026
REMARK  5 active torsions:
REMARK  status: ('A' for Active; 'I' for Inactive)
REMARK    1  A    between atoms: C_10  and  N_20
REMARK    2  A    between atoms: C_12  and  N_16
REMARK    3  A    between atoms: N_16  and  C_17
REMARK    4  A    between atoms: C_17  and  C_18
REMARK    5  A    between atoms: C_18  and  O_19
REMARK                            x       y       z     vdW  Elec       q    Type
REMARK                         _______ _______ _______ _____ _____    ______ ____
ROOT
ATOM      1  C   UNL     1       8.276  -3.614   0.628  0.00  0.00    +0.001 A 
ATOM      2  C   UNL     1       7.640  -3.204  -0.536  0.00  0.00    +0.001 A 
ATOM      3  C   UNL     1       6.463  -2.495  -0.480  0.00  0.00    +0.012 A 
ATOM      4  C   UNL     1       5.889  -2.179   0.757  0.00  0.00    +0.033 A 
ATOM      5  C   UNL     1       6.541  -2.598   1.943  0.00  0.00    +0.031 A 
ATOM      6  C   UNL     1       7.737  -3.317   1.858  0.00  0.00    +0.012 A 
ATOM      7  C   UNL     1       5.954  -2.274   3.242  0.00  0.00    +0.176 A 
ATOM      8  C   UNL     1       4.779  -1.567   3.201  0.00  0.00    +0.063 A 
ATOM      9  C   UNL     1       4.059  -1.109   2.044  0.00  0.00    +0.056 A 
ATOM     10  C   UNL     1       2.869  -0.401   2.279  0.00  0.00    +0.043 A 
ATOM     11  C   UNL     1       2.443  -0.169   3.592  0.00  0.00    +0.049 A 
ATOM     12  C   UNL     1       3.106  -0.599   4.725  0.00  0.00    +0.059 A 
ATOM     13  C   UNL     1       4.360  -1.348   4.580  0.00  0.00    +0.135 A 
ATOM     14  N   UNL     1       5.305  -1.930   5.263  0.00  0.00    -0.076 NA
ATOM     15  O   UNL     1       6.173  -2.434   4.552  0.00  0.00    -0.353 OA
ATOM     16  C   UNL     1       4.621  -1.417   0.785  0.00  0.00    +0.196 C 
ATOM     17  O   UNL     1       4.077  -1.065  -0.250  0.00  0.00    -0.287 OA
ENDROOT
BRANCH  10  18
ATOM     18  N   UNL     1       2.125   0.070   1.217  0.00  0.00    -0.325 N 
ATOM     19  C   UNL     1       0.772  -0.505   1.227  0.00  0.00    +0.133 C 
ATOM     20  C   UNL     1       0.002  -0.004   0.002  0.00  0.00    +0.178 C 
ATOM     21  O   UNL     1      -0.017   1.426   0.010  0.00  0.00    -0.377 OA
ATOM     22  C   UNL     1       1.284   2.019   0.001  0.00  0.00    +0.178 C 
ATOM     23  C   UNL     1       2.067   1.539   1.225  0.00  0.00    +0.133 C 
ENDBRANCH  10  18
BRANCH  12  24
ATOM     24  N   UNL     1       2.598  -0.322   5.978  0.00  0.00    -0.340 N 
ATOM     25  H   UNL     1       3.071  -0.623   6.770  0.00  0.00    +0.146 HD
BRANCH  24  26
ATOM     26  C   UNL     1       1.346   0.426   6.112  0.00  0.00    +0.129 C 
BRANCH  26  27
ATOM     27  C   UNL     1       1.009   0.594   7.595  0.00  0.00    +0.174 C 
BRANCH  27  28
ATOM     28  O   UNL     1       2.004   1.408   8.220  0.00  0.00    -0.393 OA
ATOM     29  H   UNL     1       1.854   1.557   9.163  0.00  0.00    +0.209 HD
ENDBRANCH  27  28
ENDBRANCH  26  27
ENDBRANCH  24  26
ENDBRANCH  12  24
TORSDOF 5
