REMARK  Name = ZINC39409726
REMARK  5 active torsions:
REMARK  status: ('A' for Active; 'I' for Inactive)
REMARK    1  A    between atoms: C_1  and  C_2
REMARK    2  A    between atoms: C_12  and  S_14
REMARK    3  A    between atoms: S_14  and  C_15
REMARK    4  A    between atoms: C_18  and  C_28
REMARK    5  A    between atoms: N_20  and  C_21
REMARK                            x       y       z     vdW  Elec       q    Type
REMARK                         _______ _______ _______ _____ _____    ______ ____
ROOT
ATOM      1  C   UNL     1       1.429  -1.292   3.706  0.00  0.00    +0.181 C 
ATOM      2  N   UNL     1       0.430  -2.051   4.007  0.00  0.00    -0.162 NA
ATOM      3  N   UNL     1       0.460  -2.427   5.356  0.00  0.00    -0.241 N 
ATOM      4  C   UNL     1       1.657  -1.792   5.933  0.00  0.00    +0.219 C 
ATOM      5  N   UNL     1       2.254  -1.066   4.799  0.00  0.00    -0.254 N 
ATOM      6  H   UNL     1      -0.180  -2.991   5.817  0.00  0.00    +0.171 HD
ENDROOT
BRANCH   5   7
ATOM      7  C   UNL     1       3.422  -0.297   4.820  0.00  0.00    +0.038 A 
ATOM      8  C   UNL     1       4.646  -0.899   5.083  0.00  0.00    +0.026 A 
ATOM      9  C   UNL     1       5.798  -0.138   5.103  0.00  0.00    +0.040 A 
ATOM     10  C   UNL     1       5.734   1.224   4.861  0.00  0.00    +0.124 A 
ATOM     11  C   UNL     1       4.515   1.826   4.599  0.00  0.00    +0.040 A 
ATOM     12  C   UNL     1       3.361   1.068   4.572  0.00  0.00    +0.026 A 
ATOM     13  F   UNL     1       6.862   1.967   4.882  0.00  0.00    -0.205 F 
ENDBRANCH   5   7
BRANCH   4  14
ATOM     14  C   UNL     1       1.272  -0.841   7.036  0.00  0.00    +0.030 A 
ATOM     15  C   UNL     1       0.231  -0.914   7.901  0.00  0.00    +0.015 A 
ATOM     16  C   UNL     1       0.072   0.085   8.844  0.00  0.00    +0.008 A 
ATOM     17  C   UNL     1       0.961   1.107   8.875  0.00  0.00    +0.045 A 
ATOM     18  S   UNL     1       2.073   0.670   7.548  0.00  0.00    -0.098 S 
ENDBRANCH   4  14
BRANCH   1  19
ATOM     19  S   UNL     1       1.716  -0.628   2.099  0.00  0.00    -0.071 S 
BRANCH  19  31
ATOM     20  C   UNL     1       0.412   0.861  -0.454  0.00  0.00    +0.041 C 
ATOM     21  C   UNL     1       0.422  -0.634  -0.267  0.00  0.00    -0.042 C 
ATOM     22  C   UNL     1       0.519  -1.478  -1.329  0.00  0.00    +0.000 A 
ATOM     23  C   UNL     1       0.616  -0.956  -2.694  0.00  0.00    +0.059 A 
ATOM     24  C   UNL     1       0.710  -1.826  -3.733  0.00  0.00    +0.167 A 
ATOM     25  C   UNL     1       0.717  -3.222  -3.519  0.00  0.00    +0.168 A 
ATOM     26  C   UNL     1       0.628  -3.763  -2.254  0.00  0.00    +0.073 A 
ATOM     27  C   UNL     1       0.527  -2.939  -1.126  0.00  0.00    +0.044 A 
ATOM     28  N   UNL     1       0.441  -3.483   0.090  0.00  0.00    -0.284 N 
ATOM     29  C   UNL     1       0.342  -2.767   1.196  0.00  0.00    +0.235 C 
ATOM     30  O   UNL     1       0.267  -3.319   2.277  0.00  0.00    -0.274 OA
ATOM     31  C   UNL     1       0.330  -1.257   1.112  0.00  0.00    +0.166 C 
ATOM     32  O   UNL     1       0.821  -3.837  -4.733  0.00  0.00    -0.453 OA
ATOM     33  C   UNL     1       0.458  -2.841  -5.706  0.00  0.00    +0.466 C 
ATOM     34  O   UNL     1       0.809  -1.596  -5.077  0.00  0.00    -0.453 OA
ATOM     35  H   UNL     1       0.450  -4.450   0.165  0.00  0.00    +0.155 HD
ENDBRANCH  19  31
ENDBRANCH   1  19
TORSDOF 4
