REMARK  Name = ZINC49194057
REMARK  7 active torsions:
REMARK  status: ('A' for Active; 'I' for Inactive)
REMARK    1  A    between atoms: C_1  and  C_2
REMARK    2  A    between atoms: C_5  and  C_7
REMARK    3  A    between atoms: C_7  and  C_9
REMARK    4  A    between atoms: C_7  and  N_10
REMARK    5  A    between atoms: N_10  and  C_11
REMARK    6  A    between atoms: C_14  and  C_18
REMARK    7  A    between atoms: C_16  and  N_17
REMARK                            x       y       z     vdW  Elec       q    Type
REMARK                         _______ _______ _______ _____ _____    ______ ____
ROOT
ATOM      1  C   UNL     1       3.517  -4.009  -1.501  0.00  0.00    +0.049 A 
ATOM      2  C   UNL     1       3.147  -5.324  -1.244  0.00  0.00    +0.025 A 
ATOM      3  C   UNL     1       3.842  -6.364  -1.822  0.00  0.00    +0.015 A 
ATOM      4  C   UNL     1       4.922  -6.099  -2.669  0.00  0.00    +0.038 A 
ATOM      5  C   UNL     1       5.296  -4.777  -2.929  0.00  0.00    +0.037 A 
ATOM      6  C   UNL     1       4.592  -3.737  -2.352  0.00  0.00    +0.046 A 
ENDROOT
BRANCH   4   7
ATOM      7  C   UNL     1       5.666  -7.212  -3.287  0.00  0.00    +0.242 C 
ATOM      8  O   UNL     1       6.606  -6.981  -4.024  0.00  0.00    -0.270 OA
ATOM      9  N   UNL     1       5.305  -8.486  -3.036  0.00  0.00    -0.325 N 
ATOM     10  H   UNL     1       4.556  -8.671  -2.448  0.00  0.00    +0.145 HD
ATOM     11  H   UNL     1       5.795  -9.218  -3.442  0.00  0.00    +0.145 HD
ENDBRANCH   4   7
BRANCH   6  12
ATOM     12  N   UNL     1       4.960  -2.411  -2.614  0.00  0.00    -0.357 N 
ATOM     13  H   UNL     1       4.468  -1.682  -2.206  0.00  0.00    +0.142 HD
ATOM     14  H   UNL     1       5.706  -2.223  -3.204  0.00  0.00    +0.142 HD
ENDBRANCH   6  12
BRANCH   1  15
ATOM     15  N   UNL     1       2.811  -2.961  -0.914  0.00  0.00    -0.333 N 
ATOM     16  H   UNL     1       3.066  -2.043  -1.096  0.00  0.00    +0.147 HD
BRANCH  15  17
ATOM     17  C   UNL     1       1.684  -3.245  -0.023  0.00  0.00    +0.133 C 
ATOM     18  C   UNL     1       2.205  -3.494   1.394  0.00  0.00    +0.036 C 
BRANCH  17  23
ATOM     19  C   UNL     1      -0.018   1.503   0.010  0.00  0.00    +0.086 C 
ATOM     20  C   UNL     1       0.002  -0.004   0.002  0.00  0.00    +0.102 A 
ATOM     21  C   UNL     1      -1.078  -0.805   0.003  0.00  0.00    +0.045 A 
ATOM     22  C   UNL     1      -0.601  -2.136  -0.007  0.00  0.00    +0.047 A 
ATOM     23  C   UNL     1       0.742  -2.069  -0.013  0.00  0.00    +0.125 A 
ATOM     24  O   UNL     1       1.102  -0.775  -0.013  0.00  0.00    -0.463 OA
ENDBRANCH  17  23
ENDBRANCH  15  17
ENDBRANCH   1  15
TORSDOF 5
