REMARK  Name = ZINC16010120
REMARK  3 active torsions:
REMARK  status: ('A' for Active; 'I' for Inactive)
REMARK    1  A    between atoms: C_8  and  C_25
REMARK    2  A    between atoms: C_10  and  C_18
REMARK    3  A    between atoms: C_25  and  C_27
REMARK                            x       y       z     vdW  Elec       q    Type
REMARK                         _______ _______ _______ _____ _____    ______ ____
ROOT
ATOM      1  C   UNL     1       2.699  -3.567   2.437  0.00  0.00    +0.000 A 
ATOM      2  C   UNL     1       2.472  -4.246   3.620  0.00  0.00    +0.002 A 
ATOM      3  C   UNL     1       1.189  -4.583   3.995  0.00  0.00    +0.023 A 
ATOM      4  C   UNL     1       0.109  -4.243   3.184  0.00  0.00    +0.039 A 
ATOM      5  C   UNL     1       0.348  -3.560   1.995  0.00  0.00    +0.004 A 
ATOM      6  C   UNL     1       1.632  -3.225   1.625  0.00  0.00    +0.008 A 
ATOM      7  C   UNL     1      -0.999  -3.347   1.367  0.00  0.00    +0.137 C 
ATOM      8  C   UNL     1      -1.295  -1.845   1.172  0.00  0.00    +0.103 C 
ATOM      9  C   UNL     1      -2.393  -1.901   0.072  0.00  0.00    +0.050 C 
ATOM     10  C   UNL     1      -1.951  -3.099  -0.798  0.00  0.00    +0.077 C 
ATOM     11  N   UNL     1      -1.080  -3.946   0.025  0.00  0.00    -0.271 NA
ATOM     12  C   UNL     1       0.287  -4.179  -0.502  0.00  0.00    +0.155 C 
ATOM     13  S   UNL     1       0.058  -3.813  -2.297  0.00  0.00    -0.144 S 
ATOM     14  C   UNL     1      -1.287  -2.563  -2.087  0.00  0.00    +0.090 C 
ATOM     15  C   UNL     1      -1.980  -3.972   2.318  0.00  0.00    +0.243 C 
ATOM     16  O   UNL     1      -3.185  -4.020   2.189  0.00  0.00    -0.273 OA
ATOM     17  N   UNL     1      -1.260  -4.469   3.344  0.00  0.00    -0.283 N 
ATOM     18  H   UNL     1      -1.630  -4.999   4.233  0.00  0.00    +0.155 HD
ENDROOT
BRANCH   9  19
ATOM     19  C   UNL     1      -2.404  -0.630  -0.736  0.00  0.00    -0.041 A 
ATOM     20  C   UNL     1      -1.489   0.370  -0.465  0.00  0.00    +0.004 A 
ATOM     21  C   UNL     1      -1.499   1.537  -1.205  0.00  0.00    +0.002 A 
ATOM     22  C   UNL     1      -2.424   1.705  -2.219  0.00  0.00    +0.020 A 
ATOM     23  C   UNL     1      -3.341   0.705  -2.491  0.00  0.00    +0.041 A 
ATOM     24  C   UNL     1      -3.330  -0.463  -1.749  0.00  0.00    +0.024 A 
ATOM     25 CL   UNL     1      -4.503   0.915  -3.763  0.00  0.00    -0.084 Cl
ENDBRANCH   9  19
BRANCH   8  26
ATOM     26  C   UNL     1      -1.826  -1.224   2.438  0.00  0.00    +0.170 C 
ATOM     27  O   UNL     1      -2.987  -1.383   2.751  0.00  0.00    -0.292 OA
BRANCH  26  28
ATOM     28  C   UNL     1      -0.938  -0.426   3.293  0.00  0.00    +0.021 A 
ATOM     29  C   UNL     1       0.367  -0.139   2.875  0.00  0.00    +0.015 A 
ATOM     30  C   UNL     1       1.196   0.614   3.677  0.00  0.00    +0.050 A 
ATOM     31  C   UNL     1       0.746   1.080   4.906  0.00  0.00    +0.166 A 
ATOM     32  C   UNL     1      -0.552   0.793   5.332  0.00  0.00    +0.167 A 
ATOM     33  C   UNL     1      -1.391   0.044   4.532  0.00  0.00    +0.061 A 
ATOM     34  O   UNL     1      -0.743   1.361   6.559  0.00  0.00    -0.453 OA
ATOM     35  C   UNL     1       0.305   2.338   6.696  0.00  0.00    +0.466 C 
ATOM     36  O   UNL     1       1.363   1.825   5.866  0.00  0.00    -0.453 OA
ENDBRANCH  26  28
ENDBRANCH   8  26
TORSDOF 3
