REMARK  Name = ZINC04222191
REMARK  8 active torsions:
REMARK  status: ('A' for Active; 'I' for Inactive)
REMARK    1  A    between atoms: C_1  and  S_2
REMARK    2  A    between atoms: S_2  and  C_3
REMARK    3  A    between atoms: C_6  and  C_9
REMARK    4  A    between atoms: C_20  and  N_28
REMARK    5  A    between atoms: C_29  and  C_31
REMARK    6  A    between atoms: C_31  and  C_32
REMARK    7  A    between atoms: C_32  and  C_33
REMARK    8  A    between atoms: C_33  and  N_60
REMARK                            x       y       z     vdW  Elec       q    Type
REMARK                         _______ _______ _______ _____ _____    ______ ____
ROOT
ATOM      1  C   UNL     1       0.002  -0.004   0.002  0.00  0.00    -0.017 A 
ATOM      2  C   UNL     1      -0.017   1.393   0.010  0.00  0.00    +0.010 A 
ATOM      3  C   UNL     1       1.163   2.095   0.002  0.00  0.00    +0.024 A 
ATOM      4  C   UNL     1       2.397   1.433  -0.010  0.00  0.00    +0.046 A 
ATOM      5  C   UNL     1       2.424   0.039  -0.038  0.00  0.00    +0.059 A 
ATOM      6  C   UNL     1       1.215  -0.674  -0.024  0.00  0.00    +0.023 A 
ATOM      7  C   UNL     1       3.662  -0.749  -0.091  0.00  0.00    +0.249 C 
ATOM      8  O   UNL     1       3.679  -1.745  -0.788  0.00  0.00    -0.270 OA
ATOM      9  N   UNL     1       4.781  -0.430   0.591  0.00  0.00    -0.286 N 
ATOM     10  C   UNL     1       5.989  -1.211   0.325  0.00  0.00    +0.111 C 
ATOM     11  C   UNL     1       6.901  -1.254   1.538  0.00  0.00    +0.041 C 
ATOM     12  C   UNL     1       7.149   0.182   2.018  0.00  0.00    +0.077 C 
ATOM     13  C   UNL     1       5.832   0.745   2.546  0.00  0.00    +0.054 C 
ATOM     14  C   UNL     1       4.736   0.686   1.514  0.00  0.00    +0.164 C 
ATOM     15  C   UNL     1       4.612   1.974   0.755  0.00  0.00    +0.238 C 
ATOM     16  O   UNL     1       5.509   2.789   0.807  0.00  0.00    -0.273 OA
ATOM     17  N   UNL     1       3.527   2.232   0.024  0.00  0.00    -0.283 N 
ATOM     18  H   UNL     1       3.530   3.035  -0.520  0.00  0.00    +0.155 HD
ENDROOT
BRANCH   1  22
ATOM     19  C   UNL     1      -3.647  -2.191   0.060  0.00  0.00    +0.008 A 
ATOM     20  C   UNL     1      -3.670  -0.800   0.068  0.00  0.00    +0.015 A 
ATOM     21  C   UNL     1      -2.489  -0.090   0.049  0.00  0.00    +0.009 A 
ATOM     22  C   UNL     1      -1.270  -0.766   0.022  0.00  0.00    -0.018 A 
ATOM     23  C   UNL     1      -1.249  -2.160   0.009  0.00  0.00    +0.009 A 
ATOM     24  C   UNL     1      -2.432  -2.867   0.034  0.00  0.00    +0.015 A 
BRANCH  19  26
ATOM     25  C   UNL     1      -4.630  -4.832   0.064  0.00  0.00    +0.090 C 
ATOM     26  S   UNL     1      -5.158  -3.096   0.084  0.00  0.00    -0.129 S 
ENDBRANCH  19  26
ENDBRANCH   1  22
BRANCH  12  27
ATOM     27  N   UNL     1       8.149   0.179   3.088  0.00  0.00    -0.312 N 
ATOM     28  C   UNL     1       9.462   0.218   2.783  0.00  0.00    +0.213 C 
ATOM     29  O   UNL     1       9.814   0.256   1.623  0.00  0.00    -0.276 OA
ATOM     30  H   UNL     1       7.868   0.150   4.015  0.00  0.00    +0.149 HD
BRANCH  28  31
ATOM     31  C   UNL     1      10.491   0.216   3.883  0.00  0.00    +0.094 C 
BRANCH  31  32
ATOM     32  C   UNL     1      11.893   0.265   3.271  0.00  0.00    -0.010 C 
BRANCH  32  33
ATOM     33  C   UNL     1      12.938   0.262   4.388  0.00  0.00    -0.086 C 
BRANCH  33  36
ATOM     34  H   UNL     1      14.385   1.109   3.193  0.00  0.00    -0.090 HD
ATOM     35  H   UNL     1      14.992   0.309   4.518  0.00  0.00    -0.090 HD
ATOM     36  N   UNL     1      14.283   0.288   3.787  0.00  0.00    +0.378 N 
ATOM     37  H   UNL     1      14.414  -0.556   3.217  0.00  0.00    -0.090 HD
ENDBRANCH  33  36
ENDBRANCH  32  33
ENDBRANCH  31  32
ENDBRANCH  28  31
ENDBRANCH  12  27
TORSDOF 7
