REMARK  Name = ZINC36548561
REMARK  6 active torsions:
REMARK  status: ('A' for Active; 'I' for Inactive)
REMARK    1  A    between atoms: C_5  and  N_7
REMARK    2  A    between atoms: N_7  and  C_8
REMARK    3  A    between atoms: C_8  and  C_10
REMARK    4  A    between atoms: C_8  and  C_19
REMARK    5  A    between atoms: N_21  and  C_22
REMARK    6  A    between atoms: C_28  and  C_30
REMARK                            x       y       z     vdW  Elec       q    Type
REMARK                         _______ _______ _______ _____ _____    ______ ____
ROOT
ATOM      1  C   UNL     1       1.346  -2.799  -1.294  0.00  0.00    +0.197 C 
ENDROOT
BRANCH   1   2
ATOM      2  C   UNL     1       2.627  -2.408  -1.984  0.00  0.00    -0.014 A 
ATOM      3  C   UNL     1       2.583  -1.723  -3.184  0.00  0.00    +0.010 A 
ATOM      4  C   UNL     1       3.756  -1.361  -3.820  0.00  0.00    +0.050 A 
ATOM      5  C   UNL     1       4.979  -1.686  -3.256  0.00  0.00    +0.166 A 
ATOM      6  C   UNL     1       5.024  -2.376  -2.048  0.00  0.00    +0.167 A 
ATOM      7  C   UNL     1       3.844  -2.730  -1.413  0.00  0.00    +0.055 A 
ATOM      8  O   UNL     1       6.330  -2.574  -1.706  0.00  0.00    -0.453 OA
ATOM      9  C   UNL     1       7.081  -2.359  -2.916  0.00  0.00    +0.466 C 
ATOM     10  O   UNL     1       6.258  -1.451  -3.672  0.00  0.00    -0.453 OA
ENDBRANCH   1   2
BRANCH   1  11
ATOM     11  C   UNL     1       0.175  -2.468  -2.184  0.00  0.00    +0.239 C 
ATOM     12  O   UNL     1      -0.676  -1.693  -1.803  0.00  0.00    -0.273 OA
ATOM     13  N   UNL     1       0.074  -3.034  -3.403  0.00  0.00    -0.311 N 
ATOM     14  H   UNL     1       0.755  -3.654  -3.708  0.00  0.00    +0.149 HD
BRANCH  13  15
ATOM     15  C   UNL     1      -1.063  -2.712  -4.268  0.00  0.00    +0.073 C 
ATOM     16  C   UNL     1      -2.246  -3.616  -3.912  0.00  0.00    +0.022 C 
ATOM     17  C   UNL     1      -3.434  -3.280  -4.816  0.00  0.00    +0.002 C 
ATOM     18  C   UNL     1      -3.043  -3.504  -6.278  0.00  0.00    +0.000 C 
ATOM     19  C   UNL     1      -1.861  -2.600  -6.633  0.00  0.00    +0.002 C 
ATOM     20  C   UNL     1      -0.672  -2.936  -5.730  0.00  0.00    +0.022 C 
ENDBRANCH  13  15
ENDBRANCH   1  11
BRANCH   1  21
ATOM     21  N   UNL     1       1.225  -2.062  -0.034  0.00  0.00    -0.252 N 
ATOM     22  C   UNL     1       1.211  -0.714  -0.040  0.00  0.00    +0.241 C 
ATOM     23  O   UNL     1       1.299  -0.112  -1.089  0.00  0.00    -0.273 OA
BRANCH  21  28
ATOM     24  C   UNL     1       2.149  -3.646   3.154  0.00  0.00    +0.002 A 
ATOM     25  C   UNL     1       0.923  -4.133   3.570  0.00  0.00    +0.002 A 
ATOM     26  C   UNL     1      -0.203  -3.935   2.792  0.00  0.00    +0.022 A 
ATOM     27  C   UNL     1      -0.107  -3.248   1.597  0.00  0.00    +0.062 A 
ATOM     28  C   UNL     1       1.123  -2.757   1.177  0.00  0.00    +0.056 A 
ATOM     29  C   UNL     1       2.252  -2.959   1.960  0.00  0.00    +0.025 A 
ATOM     30 CL   UNL     1      -1.521  -3.001   0.621  0.00  0.00    -0.082 Cl
ENDBRANCH  21  28
BRANCH  22  31
ATOM     31  C   UNL     1       1.087   0.044   1.256  0.00  0.00    +0.160 C 
ATOM     32  C   UNL     1      -0.392   0.107   1.699  0.00  0.00    +0.041 C 
ATOM     33  C   UNL     1      -0.844   1.457   1.096  0.00  0.00    +0.098 C 
ATOM     34  C   UNL     1       0.435   2.255   0.971  0.00  0.00    +0.214 C 
ATOM     35  O   UNL     1       0.492   3.455   0.806  0.00  0.00    -0.276 OA
ATOM     36  N   UNL     1       1.502   1.439   1.070  0.00  0.00    -0.304 N 
ATOM     37  H   UNL     1       2.425   1.735   1.025  0.00  0.00    +0.149 HD
ENDBRANCH  22  31
ENDBRANCH   1  21
TORSDOF 6
