REMARK  Name = ZINC12330018
REMARK  2 active torsions:
REMARK  status: ('A' for Active; 'I' for Inactive)
REMARK    1  A    between atoms: C_12  and  C_14
REMARK    2  A    between atoms: C_23  and  C_25
REMARK                            x       y       z     vdW  Elec       q    Type
REMARK                         _______ _______ _______ _____ _____    ______ ____
ROOT
ATOM      1  C   UNL     1      -5.517   6.152  -2.775  0.00  0.00    +0.082 C 
ATOM      2  C   UNL     1      -7.011   6.118  -2.446  0.00  0.00    +0.021 C 
ATOM      3  C   UNL     1      -6.478   7.111  -3.478  0.00  0.00    -0.015 C 
ATOM      4  C   UNL     1      -6.798   6.845  -4.952  0.00  0.00    +0.026 C 
ATOM      5  C   UNL     1      -8.117   7.542  -5.304  0.00  0.00    +0.108 C 
ATOM      6  N   UNL     1      -8.040   8.945  -4.877  0.00  0.00    -0.297 N 
ATOM      7  C   UNL     1      -7.753   9.252  -3.470  0.00  0.00    +0.108 C 
ATOM      8  C   UNL     1      -6.426   8.590  -3.081  0.00  0.00    +0.026 C 
ATOM      9  C   UNL     1      -8.231   9.940  -5.766  0.00  0.00    +0.247 C 
ATOM     10  O   UNL     1      -8.071  11.096  -5.428  0.00  0.00    -0.270 OA
ENDROOT
BRANCH   1  22
ATOM     11  C   UNL     1       1.679   9.325  -5.089  0.00  0.00    +0.005 A 
ATOM     12  C   UNL     1       1.836  10.557  -4.468  0.00  0.00    +0.018 A 
ATOM     13  C   UNL     1       1.093  10.845  -3.341  0.00  0.00    +0.084 A 
ATOM     14  C   UNL     1       0.062   8.782  -3.413  0.00  0.00    +0.099 A 
ATOM     15  C   UNL     1       0.774   8.427  -4.554  0.00  0.00    +0.042 A 
ATOM     16  N   UNL     1      -0.847   7.886  -2.861  0.00  0.00    -0.314 N 
ATOM     17  C   UNL     1      -1.842   7.467  -3.857  0.00  0.00    +0.125 C 
ATOM     18  C   UNL     1      -2.711   6.350  -3.267  0.00  0.00    +0.126 C 
ATOM     19  N   UNL     1      -3.268   6.818  -1.989  0.00  0.00    -0.298 N 
ATOM     20  C   UNL     1      -2.345   7.380  -0.992  0.00  0.00    +0.126 C 
ATOM     21  C   UNL     1      -1.491   8.456  -1.671  0.00  0.00    +0.125 C 
ATOM     22  C   UNL     1      -4.590   6.732  -1.738  0.00  0.00    +0.219 C 
ATOM     23  O   UNL     1      -5.032   7.122  -0.678  0.00  0.00    -0.275 OA
ATOM     24  N   UNL     1       0.198   9.985  -2.785  0.00  0.00    -0.350 N 
ATOM     25  H   UNL     1      -0.341  10.226  -1.945  0.00  0.00    +0.166 HD
ENDBRANCH   1  22
BRANCH   9  26
ATOM     26  C   UNL     1      -8.635   9.624  -7.151  0.00  0.00    +0.038 A 
ATOM     27  C   UNL     1      -8.050  10.311  -8.225  0.00  0.00    +0.015 A 
ATOM     28  C   UNL     1      -8.408  10.026  -9.509  0.00  0.00    +0.027 A 
ATOM     29  C   UNL     1      -9.372   9.055  -9.771  0.00  0.00    +0.047 A 
ATOM     30  C   UNL     1      -9.972   8.361  -8.700  0.00  0.00    +0.004 A 
ATOM     31  C   UNL     1      -9.599   8.650  -7.389  0.00  0.00    +0.023 A 
ATOM     32  C   UNL     1     -10.919   7.431  -9.309  0.00  0.00    -0.019 A 
ATOM     33  C   UNL     1     -10.846   7.601 -10.643  0.00  0.00    +0.020 A 
ATOM     34  N   UNL     1      -9.926   8.570 -10.932  0.00  0.00    -0.358 N 
ATOM     35  H   UNL     1      -9.698   8.871 -11.825  0.00  0.00    +0.166 HD
ATOM     36  C   UNL     1     -11.675   6.816 -11.634  0.00  0.00    +0.053 C 
ATOM     37  C   UNL     1     -12.235   5.578 -10.926  0.00  0.00    +0.006 C 
ATOM     38  C   UNL     1     -12.904   5.998  -9.614  0.00  0.00    +0.005 C 
ATOM     39  C   UNL     1     -11.829   6.448  -8.618  0.00  0.00    +0.037 C 
ENDBRANCH   9  26
TORSDOF 2
