REMARK  Name = ZINC39670088
REMARK  6 active torsions:
REMARK  status: ('A' for Active; 'I' for Inactive)
REMARK    1  A    between atoms: C_1  and  C_2
REMARK    2  A    between atoms: C_7  and  C_11
REMARK    3  A    between atoms: C_11  and  N_12
REMARK    4  A    between atoms: C_13  and  C_15
REMARK    5  A    between atoms: C_26  and  C_28
REMARK    6  A    between atoms: C_28  and  C_29
REMARK                            x       y       z     vdW  Elec       q    Type
REMARK                         _______ _______ _______ _____ _____    ______ ____
ROOT
ATOM      1  C   UNL     1       3.154  -7.368   3.688  0.00  0.00    +0.100 C 
ATOM      2  C   UNL     1       3.956  -7.708   2.412  0.00  0.00    +0.121 C 
ATOM      3  N   UNL     1       4.848  -8.820   2.815  0.00  0.00    -0.300 N 
ATOM      4  C   UNL     1       4.011  -9.662   3.702  0.00  0.00    +0.115 C 
ATOM      5  C   UNL     1       3.192  -8.653   4.532  0.00  0.00    -0.004 C 
ATOM      6  C   UNL     1       3.879  -8.388   5.868  0.00  0.00    -0.010 C 
ATOM      7  C   UNL     1       3.854  -9.665   6.712  0.00  0.00    -0.082 C 
ATOM      8  N   UNL     1       2.463 -10.083   6.929  0.00  0.00    +0.379 N 
ATOM      9  C   UNL     1       1.838 -10.426   5.646  0.00  0.00    -0.082 C 
ATOM     10  C   UNL     1       1.778  -9.181   4.756  0.00  0.00    -0.010 C 
ATOM     11  C   UNL     1       6.132  -9.020   2.457  0.00  0.00    +0.220 C 
ATOM     12  O   UNL     1       6.734  -9.987   2.874  0.00  0.00    -0.275 OA
ATOM     13  H   UNL     1       2.447 -10.889   7.535  0.00  0.00    -0.086 HD
ATOM     14  H   UNL     1       1.950  -9.330   7.361  0.00  0.00    -0.086 HD
ENDROOT
BRANCH   1  16
ATOM     15  N   UNL     1       1.034  -6.169   4.120  0.00  0.00    -0.309 N 
ATOM     16  C   UNL     1       1.732  -7.014   3.335  0.00  0.00    +0.219 C 
ATOM     17  O   UNL     1       1.216  -7.489   2.346  0.00  0.00    -0.275 OA
ATOM     18  H   UNL     1       1.446  -5.789   4.911  0.00  0.00    +0.149 HD
BRANCH  15  19
ATOM     19  C   UNL     1      -0.348  -5.825   3.777  0.00  0.00    +0.159 C 
BRANCH  19  26
ATOM     20  C   UNL     1      -3.378  -2.420   9.615  0.00  0.00    +0.044 C 
ATOM     21  C   UNL     1      -2.712  -2.654   8.283  0.00  0.00    -0.046 A 
ATOM     22  C   UNL     1      -2.363  -1.566   7.467  0.00  0.00    +0.021 A 
ATOM     23  C   UNL     1      -1.766  -1.772   6.275  0.00  0.00    +0.093 A 
ATOM     24  N   UNL     1      -1.494  -3.039   5.844  0.00  0.00    -0.308 N 
ATOM     25  C   UNL     1      -0.912  -3.524   4.705  0.00  0.00    +0.115 A 
ATOM     26  C   UNL     1      -0.898  -4.871   4.806  0.00  0.00    +0.051 A 
ATOM     27  N   UNL     1      -1.454  -5.217   5.970  0.00  0.00    -0.342 N 
ATOM     28  C   UNL     1      -1.824  -4.121   6.618  0.00  0.00    +0.116 A 
ATOM     29  C   UNL     1      -2.442  -3.921   7.869  0.00  0.00    +0.048 A 
ATOM     30  H   UNL     1      -1.569  -6.125   6.290  0.00  0.00    +0.167 HD
ENDBRANCH  19  26
ENDBRANCH  15  19
ENDBRANCH   1  16
BRANCH  11  31
ATOM     31  C   UNL     1       6.819  -8.043   1.538  0.00  0.00    +0.131 C 
BRANCH  31  32
ATOM     32  C   UNL     1       8.237  -8.493   1.296  0.00  0.00    -0.039 A 
ATOM     33  C   UNL     1       9.250  -8.069   2.136  0.00  0.00    +0.005 A 
ATOM     34  C   UNL     1      10.550  -8.481   1.914  0.00  0.00    +0.020 A 
ATOM     35  C   UNL     1      10.838  -9.319   0.852  0.00  0.00    +0.041 A 
ATOM     36  C   UNL     1       9.825  -9.743   0.012  0.00  0.00    +0.020 A 
ATOM     37  C   UNL     1       8.524  -9.335   0.238  0.00  0.00    +0.005 A 
ATOM     38 CL   UNL     1      12.472  -9.837   0.573  0.00  0.00    -0.084 Cl
ENDBRANCH  31  32
ENDBRANCH  11  31
TORSDOF 5
