REMARK  Name = ZINC66820849
REMARK  7 active torsions:
REMARK  status: ('A' for Active; 'I' for Inactive)
REMARK    1  A    between atoms: C_1  and  C_2
REMARK    2  A    between atoms: C_3  and  C_17
REMARK    3  A    between atoms: N_6  and  C_7
REMARK    4  A    between atoms: C_10  and  O_13
REMARK    5  A    between atoms: O_13  and  C_14
REMARK    6  A    between atoms: C_14  and  C_15
REMARK    7  A    between atoms: C_14  and  C_16
REMARK                            x       y       z     vdW  Elec       q    Type
REMARK                         _______ _______ _______ _____ _____    ______ ____
ROOT
ATOM      1  C   UNL     1      -1.085   2.430   1.179  0.00  0.00    +0.068 C 
ATOM      2  C   UNL     1      -0.846   0.998   0.777  0.00  0.00    +0.074 A 
ATOM      3  C   UNL     1      -0.872   0.492  -0.492  0.00  0.00    +0.171 A 
ATOM      4  N   UNL     1      -0.609  -0.825  -0.431  0.00  0.00    -0.124 NA
ATOM      5  N   UNL     1      -0.421  -1.171   0.795  0.00  0.00    -0.060 NA
ATOM      6  N   UNL     1      -0.558  -0.032   1.602  0.00  0.00    -0.216 N 
ENDROOT
BRANCH   3   7
ATOM      7  C   UNL     1      -1.143   1.261  -1.721  0.00  0.00    +0.273 C 
ATOM      8  O   UNL     1      -1.483   2.426  -1.647  0.00  0.00    -0.268 OA
ATOM      9  N   UNL     1      -1.014   0.672  -2.926  0.00  0.00    -0.264 N 
ATOM     10  C   UNL     1      -0.469  -0.688  -3.039  0.00  0.00    +0.114 C 
ATOM     11  C   UNL     1       0.534  -0.695  -4.200  0.00  0.00    +0.026 C 
ATOM     12  C   UNL     1      -0.209  -0.378  -5.498  0.00  0.00    +0.059 C 
ATOM     13  C   UNL     1      -1.030   0.876  -5.344  0.00  0.00    +0.063 A 
ATOM     14  C   UNL     1      -1.403   1.343  -4.092  0.00  0.00    +0.058 A 
ATOM     15  C   UNL     1      -2.171   2.500  -3.990  0.00  0.00    +0.027 A 
ATOM     16  C   UNL     1      -2.541   3.149  -5.157  0.00  0.00    +0.022 A 
ATOM     17  C   UNL     1      -2.136   2.627  -6.371  0.00  0.00    +0.111 A 
ATOM     18  N   UNL     1      -1.401   1.532  -6.431  0.00  0.00    -0.258 NA
ENDBRANCH   3   7
BRANCH   6  19
ATOM     19  C   UNL     1      -0.424   0.025   2.998  0.00  0.00    +0.068 A 
ATOM     20  C   UNL     1       0.118   1.154   3.597  0.00  0.00    +0.031 A 
ATOM     21  C   UNL     1       0.250   1.210   4.970  0.00  0.00    +0.048 A 
ATOM     22  C   UNL     1      -0.160   0.139   5.751  0.00  0.00    +0.121 A 
ATOM     23  C   UNL     1      -0.702  -0.989   5.152  0.00  0.00    +0.048 A 
ATOM     24  C   UNL     1      -0.839  -1.044   3.780  0.00  0.00    +0.031 A 
BRANCH  22  25
ATOM     25  O   UNL     1      -0.030   0.194   7.103  0.00  0.00    -0.489 OA
BRANCH  25  26
ATOM     26  C   UNL     1       0.644   1.333   7.644  0.00  0.00    +0.167 C 
ATOM     27  C   UNL     1      -0.352   2.482   7.814  0.00  0.00    +0.051 C 
ATOM     28  C   UNL     1       1.244   0.972   9.004  0.00  0.00    +0.051 C 
ENDBRANCH  25  26
ENDBRANCH  22  25
ENDBRANCH   6  19
TORSDOF 4
