REMARK  Name = ZINC39608898
REMARK  8 active torsions:
REMARK  status: ('A' for Active; 'I' for Inactive)
REMARK    1  A    between atoms: C_4  and  C_7
REMARK    2  A    between atoms: C_7  and  C_8
REMARK    3  A    between atoms: C_8  and  C_9
REMARK    4  A    between atoms: C_13  and  C_22
REMARK    5  A    between atoms: N_24  and  C_25
REMARK    6  A    between atoms: C_30  and  O_32
REMARK    7  A    between atoms: O_32  and  C_33
REMARK    8  A    between atoms: C_33  and  C_34
REMARK                            x       y       z     vdW  Elec       q    Type
REMARK                         _______ _______ _______ _____ _____    ______ ____
ROOT
ATOM      1  C   UNL     1       5.311  -1.471   1.515  0.00  0.00    +0.216 C 
ATOM      2  O   UNL     1       5.769  -1.688   0.413  0.00  0.00    -0.276 OA
ATOM      3  N   UNL     1       5.972  -1.886   2.614  0.00  0.00    -0.300 N 
ATOM      4  C   UNL     1       5.572  -1.721   4.031  0.00  0.00    +0.121 C 
ATOM      5  C   UNL     1       5.966  -3.055   4.705  0.00  0.00    +0.100 C 
ATOM      6  C   UNL     1       7.078  -3.632   3.813  0.00  0.00    -0.004 C 
ATOM      7  C   UNL     1       7.261  -2.616   2.676  0.00  0.00    +0.115 C 
ATOM      8  C   UNL     1       6.651  -4.981   3.242  0.00  0.00    -0.010 C 
ATOM      9  C   UNL     1       7.794  -5.561   2.405  0.00  0.00    -0.082 C 
ATOM     10  N   UNL     1       8.987  -5.718   3.245  0.00  0.00    +0.379 N 
ATOM     11  C   UNL     1       9.446  -4.406   3.715  0.00  0.00    -0.082 C 
ATOM     12  C   UNL     1       8.372  -3.776   4.607  0.00  0.00    -0.010 C 
ATOM     13  H   UNL     1       8.763  -6.299   4.040  0.00  0.00    -0.086 HD
ATOM     14  H   UNL     1       9.720  -6.157   2.708  0.00  0.00    -0.086 HD
ENDROOT
BRANCH   5  15
ATOM     15  C   UNL     1       4.786  -3.990   4.748  0.00  0.00    +0.218 C 
ATOM     16  O   UNL     1       3.937  -3.935   3.883  0.00  0.00    -0.275 OA
ATOM     17  N   UNL     1       4.672  -4.887   5.747  0.00  0.00    -0.310 N 
ATOM     18  H   UNL     1       5.351  -4.931   6.439  0.00  0.00    +0.149 HD
BRANCH  17  19
ATOM     19  C   UNL     1       3.525  -5.797   5.788  0.00  0.00    +0.102 C 
ATOM     20  C   UNL     1       2.350  -5.129   6.524  0.00  0.00    +0.025 C 
ATOM     21  C   UNL     1       2.036  -6.015   7.748  0.00  0.00    +0.004 C 
ATOM     22  C   UNL     1       2.583  -7.410   7.357  0.00  0.00    +0.033 C 
ATOM     23  C   UNL     1       3.884  -7.065   6.589  0.00  0.00    +0.139 C 
BRANCH  23  24
ATOM     24  O   UNL     1       4.242  -8.130   5.705  0.00  0.00    -0.370 OA
BRANCH  24  25
ATOM     25  C   UNL     1       5.186  -9.050   6.256  0.00  0.00    +0.195 C 
BRANCH  25  26
ATOM     26  C   UNL     1       5.489 -10.125   5.244  0.00  0.00    -0.022 A 
ATOM     27  C   UNL     1       4.727 -11.277   5.210  0.00  0.00    +0.006 A 
ATOM     28  C   UNL     1       5.005 -12.263   4.282  0.00  0.00    +0.000 A 
ATOM     29  C   UNL     1       6.045 -12.096   3.387  0.00  0.00    +0.000 A 
ATOM     30  C   UNL     1       6.807 -10.943   3.420  0.00  0.00    +0.000 A 
ATOM     31  C   UNL     1       6.526  -9.955   4.345  0.00  0.00    +0.006 A 
ENDBRANCH  25  26
ENDBRANCH  24  25
ENDBRANCH  23  24
ENDBRANCH  17  19
ENDBRANCH   5  15
BRANCH   1  32
ATOM     32  C   UNL     1       4.002  -0.737   1.656  0.00  0.00    +0.100 C 
BRANCH  32  33
ATOM     33  C   UNL     1       3.464  -0.382   0.268  0.00  0.00    +0.044 C 
BRANCH  33  37
ATOM     34  C   UNL     1      -0.246   1.698   0.666  0.00  0.00    +0.000 A 
ATOM     35  C   UNL     1       0.943   2.403   0.642  0.00  0.00    +0.000 A 
ATOM     36  C   UNL     1       2.143   1.730   0.513  0.00  0.00    +0.003 A 
ATOM     37  C   UNL     1       2.155   0.352   0.409  0.00  0.00    -0.047 A 
ATOM     38  C   UNL     1       0.967  -0.354   0.434  0.00  0.00    +0.003 A 
ATOM     39  C   UNL     1      -0.234   0.319   0.561  0.00  0.00    +0.000 A 
ENDBRANCH  33  37
ENDBRANCH  32  33
ENDBRANCH   1  32
TORSDOF 8
