REMARK  Name = ZINC22503938
REMARK  4 active torsions:
REMARK  status: ('A' for Active; 'I' for Inactive)
REMARK    1  A    between atoms: C_3  and  S_6
REMARK    2  A    between atoms: S_6  and  N_9
REMARK    3  A    between atoms: C_16  and  N_19
REMARK    4  A    between atoms: N_22  and  C_23
REMARK                            x       y       z     vdW  Elec       q    Type
REMARK                         _______ _______ _______ _____ _____    ______ ____
ROOT
ATOM      1  N   UNL     1      -5.850  -5.177  -0.180  0.00  0.00    -0.202 N 
ATOM      2  C   UNL     1      -5.796  -6.645  -0.202  0.00  0.00    +0.132 C 
ATOM      3  C   UNL     1      -4.526  -7.078   0.542  0.00  0.00    +0.025 C 
ATOM      4  C   UNL     1      -3.307  -6.553  -0.215  0.00  0.00    +0.038 C 
ATOM      5  C   UNL     1      -3.448  -5.077  -0.483  0.00  0.00    -0.025 A 
ATOM      6  C   UNL     1      -4.686  -4.453  -0.463  0.00  0.00    +0.056 A 
ATOM      7  C   UNL     1      -4.784  -3.091  -0.721  0.00  0.00    +0.048 A 
ATOM      8  C   UNL     1      -3.642  -2.354  -0.996  0.00  0.00    +0.037 A 
ATOM      9  C   UNL     1      -2.404  -2.983  -1.018  0.00  0.00    +0.024 A 
ATOM     10  C   UNL     1      -2.310  -4.336  -0.758  0.00  0.00    +0.007 A 
ENDROOT
BRANCH   8  11
ATOM     11  N   UNL     1      -3.738  -0.983  -1.257  0.00  0.00    -0.269 N 
ATOM     12  C   UNL     1      -2.764  -0.148  -0.842  0.00  0.00    +0.308 C 
ATOM     13  O   UNL     1      -1.760  -0.597  -0.323  0.00  0.00    -0.252 OA
ATOM     14  N   UNL     1      -2.903   1.183  -1.003  0.00  0.00    -0.269 N 
ATOM     15  H   UNL     1      -4.608  -0.585  -1.801  0.00  0.00    +0.156 HD
ATOM     16  H   UNL     1      -3.849   1.595  -1.383  0.00  0.00    +0.156 HD
BRANCH  14  17
ATOM     17  C   UNL     1      -1.842   2.041  -0.686  0.00  0.00    +0.038 A 
ATOM     18  C   UNL     1      -0.531   1.605  -0.824  0.00  0.00    +0.027 A 
ATOM     19  C   UNL     1       0.516   2.452  -0.517  0.00  0.00    +0.051 A 
ATOM     20  C   UNL     1       0.262   3.737  -0.066  0.00  0.00    +0.166 A 
ATOM     21  C   UNL     1      -1.052   4.176   0.079  0.00  0.00    +0.168 A 
ATOM     22  C   UNL     1      -2.101   3.325  -0.228  0.00  0.00    +0.073 A 
ATOM     23  O   UNL     1      -1.035   5.463   0.532  0.00  0.00    -0.453 OA
ATOM     24  C   UNL     1       0.297   5.944   0.275  0.00  0.00    +0.466 C 
ATOM     25  O   UNL     1       1.102   4.751   0.298  0.00  0.00    -0.453 OA
ENDBRANCH  14  17
ENDBRANCH   8  11
BRANCH   1  26
ATOM     26  S   UNL     1      -7.264  -4.392   0.173  0.00  0.00    +0.081 S 
ATOM     27  O   UNL     1      -8.130  -5.357   0.754  0.00  0.00    -0.149 OA
ATOM     28  O   UNL     1      -6.906  -3.190   0.841  0.00  0.00    -0.149 OA
BRANCH  26  31
ATOM     29  C   UNL     1      -9.312  -4.029  -3.313  0.00  0.00    +0.010 A 
ATOM     30  C   UNL     1      -8.866  -4.604  -2.138  0.00  0.00    +0.036 A 
ATOM     31  C   UNL     1      -7.994  -3.918  -1.359  0.00  0.00    +0.146 A 
ATOM     32  S   UNL     1      -7.784  -2.405  -2.284  0.00  0.00    -0.077 S 
ATOM     33  C   UNL     1      -8.865  -2.795  -3.651  0.00  0.00    +0.047 A 
ENDBRANCH  26  31
ENDBRANCH   1  26
TORSDOF 4
