REMARK  Name = ZINC12447092
REMARK  6 active torsions:
REMARK  status: ('A' for Active; 'I' for Inactive)
REMARK    1  A    between atoms: C_1  and  C_2
REMARK    2  A    between atoms: C_5  and  N_9
REMARK    3  A    between atoms: C_6  and  C_8
REMARK    4  A    between atoms: C_10  and  C_12
REMARK    5  A    between atoms: C_12  and  C_13
REMARK    6  A    between atoms: N_19  and  C_20
REMARK                            x       y       z     vdW  Elec       q    Type
REMARK                         _______ _______ _______ _____ _____    ______ ____
ROOT
ATOM      1  C   UNL     1      -0.236  -6.847  -2.628  0.00  0.00    +0.149 C 
ATOM      2  C   UNL     1      -0.362  -8.361  -2.674  0.00  0.00    +0.232 C 
ATOM      3  O   UNL     1      -1.302  -8.945  -2.177  0.00  0.00    -0.274 OA
ATOM      4  N   UNL     1       0.616  -9.003  -3.289  0.00  0.00    -0.264 N 
ATOM      5  C   UNL     1       1.690  -8.345  -3.857  0.00  0.00    +0.157 C 
ATOM      6  N   UNL     1       2.708  -8.860  -4.486  0.00  0.00    -0.260 NA
ATOM      7  S   UNL     1       1.353  -6.620  -3.528  0.00  0.00    -0.077 S 
ATOM      8  H   UNL     1       0.580  -9.970  -3.343  0.00  0.00    +0.157 HD
ENDROOT
BRANCH   6   9
ATOM      9  C   UNL     1       2.807 -10.312  -4.655  0.00  0.00    +0.108 C 
ATOM     10  C   UNL     1       4.087 -10.818  -3.988  0.00  0.00    +0.027 C 
ATOM     11  C   UNL     1       4.190 -12.334  -4.165  0.00  0.00    +0.002 C 
ATOM     12  C   UNL     1       4.223 -12.672  -5.657  0.00  0.00    +0.000 C 
ATOM     13  C   UNL     1       2.943 -12.166  -6.324  0.00  0.00    +0.002 C 
ATOM     14  C   UNL     1       2.840 -10.650  -6.147  0.00  0.00    +0.027 C 
ENDBRANCH   6   9
BRANCH   1  15
ATOM     15  C   UNL     1      -0.134  -6.343  -1.187  0.00  0.00    +0.120 C 
BRANCH  15  17
ATOM     16  N   UNL     1       0.059  -4.170  -0.021  0.00  0.00    -0.285 N 
ATOM     17  C   UNL     1      -0.040  -4.839  -1.187  0.00  0.00    +0.219 C 
ATOM     18  O   UNL     1      -0.054  -4.230  -2.236  0.00  0.00    -0.275 OA
ATOM     19  H   UNL     1       0.135  -4.658   0.814  0.00  0.00    +0.155 HD
BRANCH  16  24
ATOM     20  C   UNL     1       0.025   1.503   0.005  0.00  0.00    +0.044 C 
ATOM     21  C   UNL     1       0.034  -0.004  -0.002  0.00  0.00    -0.050 A 
ATOM     22  C   UNL     1       0.632  -0.685  -1.046  0.00  0.00    +0.005 A 
ATOM     23  C   UNL     1       0.641  -2.066  -1.055  0.00  0.00    +0.024 A 
ATOM     24  C   UNL     1       0.051  -2.771  -0.014  0.00  0.00    +0.036 A 
ATOM     25  C   UNL     1      -0.548  -2.083   1.033  0.00  0.00    -0.029 A 
ATOM     26  C   UNL     1      -0.550  -0.702   1.039  0.00  0.00    +0.008 A 
ATOM     27  C   UNL     1      -1.190  -2.843   2.165  0.00  0.00    +0.045 C 
ENDBRANCH  16  24
ENDBRANCH  15  17
ENDBRANCH   1  15
TORSDOF 4
