REMARK  Name = ZINC34734952
REMARK  8 active torsions:
REMARK  status: ('A' for Active; 'I' for Inactive)
REMARK    1  A    between atoms: C_1  and  C_2
REMARK    2  A    between atoms: C_2  and  C_3
REMARK    3  A    between atoms: C_3  and  C_4
REMARK    4  A    between atoms: C_4  and  N_5
REMARK    5  A    between atoms: N_18  and  C_21
REMARK    6  A    between atoms: C_21  and  C_22
REMARK    7  A    between atoms: C_27  and  C_29
REMARK    8  A    between atoms: C_27  and  C_30
REMARK                            x       y       z     vdW  Elec       q    Type
REMARK                         _______ _______ _______ _____ _____    ______ ____
ROOT
ATOM      1  N   UNL     1       1.421  -2.614  -2.434  0.00  0.00    -0.280 N 
ATOM      2  C   UNL     1       0.697  -2.933  -3.523  0.00  0.00    +0.264 A 
ATOM      3  O   UNL     1      -0.521  -2.929  -3.477  0.00  0.00    -0.267 OA
ATOM      4  C   UNL     1       1.376  -3.276  -4.735  0.00  0.00    +0.076 A 
ATOM      5  C   UNL     1       0.801  -3.652  -6.024  0.00  0.00    -0.018 A 
ATOM      6  C   UNL     1       1.664  -3.932  -7.025  0.00  0.00    +0.021 A 
ATOM      7  S   UNL     1       3.272  -3.713  -6.318  0.00  0.00    -0.071 S 
ATOM      8  C   UNL     1       2.780  -3.247  -4.677  0.00  0.00    +0.118 A 
ATOM      9  N   UNL     1       3.435  -2.923  -3.568  0.00  0.00    -0.208 NA
ATOM     10  C   UNL     1       2.784  -2.607  -2.468  0.00  0.00    +0.202 A 
ATOM     11  N   UNL     1       3.487  -2.270  -1.338  0.00  0.00    -0.304 N 
ATOM     12  C   UNL     1       3.875  -3.294  -0.355  0.00  0.00    +0.089 C 
ATOM     13  C   UNL     1       5.372  -3.145  -0.064  0.00  0.00    -0.059 C 
ATOM     14  N   UNL     1       5.653  -1.766   0.355  0.00  0.00    +0.387 N 
ATOM     15  C   UNL     1       5.372  -0.841  -0.750  0.00  0.00    -0.059 C 
ATOM     16  C   UNL     1       3.880  -0.876  -1.079  0.00  0.00    +0.089 C 
ATOM     17  C   UNL     1       1.302  -4.339  -8.419  0.00  0.00    +0.203 C 
ATOM     18  O   UNL     1      -0.091  -4.690  -8.429  0.00  0.00    -0.368 OA
ATOM     19  C   UNL     1      -0.928  -3.719  -7.795  0.00  0.00    +0.068 C 
ATOM     20  C   UNL     1      -0.702  -3.738  -6.280  0.00  0.00    +0.071 C 
ATOM     21  C   UNL     1      -0.595  -2.329  -8.339  0.00  0.00    +0.041 C 
ATOM     22  C   UNL     1      -2.394  -4.041  -8.093  0.00  0.00    +0.041 C 
ATOM     23  H   UNL     1       5.072  -1.530   1.145  0.00  0.00    -0.081 HD
ENDROOT
BRANCH   1  24
ATOM     24  C   UNL     1       0.731  -2.263  -1.190  0.00  0.00    +0.128 C 
BRANCH  24  25
ATOM     25  C   UNL     1       0.358  -0.779  -1.216  0.00  0.00    +0.021 C 
BRANCH  25  27
ATOM     26  C   UNL     1      -0.736   1.071   0.057  0.00  0.00    +0.004 C 
ATOM     27  C   UNL     1      -0.363  -0.412   0.083  0.00  0.00    -0.002 C 
ENDBRANCH  25  27
ENDBRANCH  24  25
ENDBRANCH   1  24
BRANCH  14  28
ATOM     28  C   UNL     1       7.066  -1.651   0.740  0.00  0.00    +0.018 C 
BRANCH  28  29
ATOM     29  C   UNL     1       7.328  -0.271   1.285  0.00  0.00    +0.194 C 
ATOM     30  O   UNL     1       6.426   0.538   1.347  0.00  0.00    -0.278 OA
ATOM     31  N   UNL     1       8.564   0.065   1.704  0.00  0.00    -0.331 N 
ATOM     32  H   UNL     1       9.286  -0.582   1.654  0.00  0.00    +0.145 HD
ATOM     33  H   UNL     1       8.733   0.953   2.055  0.00  0.00    +0.145 HD
ENDBRANCH  28  29
ENDBRANCH  14  28
TORSDOF 5
