REMARK  Name = ZINC21246261
REMARK  11 active torsions:
REMARK  status: ('A' for Active; 'I' for Inactive)
REMARK    1  A    between atoms: C_1  and  C_2
REMARK    2  A    between atoms: C_2  and  C_3
REMARK    3  A    between atoms: C_2  and  C_4
REMARK    4  A    between atoms: C_4  and  O_5
REMARK    5  A    between atoms: O_5  and  C_6
REMARK    6  A    between atoms: C_9  and  C_12
REMARK    7  A    between atoms: C_17  and  C_27
REMARK    8  A    between atoms: C_30  and  O_35
REMARK    9  A    between atoms: C_32  and  O_33
REMARK   10  A    between atoms: O_33  and  C_34
REMARK   11  A    between atoms: O_35  and  C_36
REMARK                            x       y       z     vdW  Elec       q    Type
REMARK                         _______ _______ _______ _____ _____    ______ ____
ROOT
ATOM      1  C   UNL     1      -2.721   4.656   4.264  0.00  0.00    +0.032 C 
ATOM      2  C   UNL     1      -4.053   4.216   3.659  0.00  0.00    +0.059 C 
ATOM      3  C   UNL     1      -3.842   3.726   2.236  0.00  0.00    +0.017 C 
ATOM      4  C   UNL     1      -2.874   4.250   1.471  0.00  0.00    +0.037 C 
ATOM      5  C   UNL     1      -2.558   3.863   0.045  0.00  0.00    +0.139 C 
ATOM      6  N   UNL     1      -3.557   3.024  -0.580  0.00  0.00    -0.331 N 
ATOM      7  C   UNL     1      -3.812   1.741  -0.104  0.00  0.00    +0.049 A 
ATOM      8  C   UNL     1      -3.529   0.618  -0.867  0.00  0.00    +0.025 A 
ATOM      9  C   UNL     1      -3.751  -0.640  -0.336  0.00  0.00    +0.002 A 
ATOM     10  C   UNL     1      -4.248  -0.782   0.947  0.00  0.00    +0.002 A 
ATOM     11  C   UNL     1      -4.550   0.337   1.706  0.00  0.00    +0.025 A 
ATOM     12  C   UNL     1      -4.351   1.595   1.166  0.00  0.00    +0.052 A 
ATOM     13  N   UNL     1      -4.709   2.760   1.837  0.00  0.00    -0.316 N 
ATOM     14  C   UNL     1      -2.031   5.269   1.983  0.00  0.00    +0.163 C 
ATOM     15  O   UNL     1      -1.175   5.742   1.261  0.00  0.00    -0.292 OA
ATOM     16  C   UNL     1      -2.158   5.780   3.387  0.00  0.00    +0.088 C 
ATOM     17  H   UNL     1      -4.126   3.397  -1.444  0.00  0.00    +0.147 HD
ATOM     18  H   UNL     1      -5.785   2.868   2.040  0.00  0.00    +0.152 HD
ENDROOT
BRANCH   1  22
ATOM     19  C   UNL     1      -3.342   6.093   8.240  0.00  0.00    +0.121 A 
ATOM     20  C   UNL     1      -2.505   5.010   8.016  0.00  0.00    +0.046 A 
ATOM     21  C   UNL     1      -2.306   4.547   6.729  0.00  0.00    +0.007 A 
ATOM     22  C   UNL     1      -2.940   5.163   5.666  0.00  0.00    -0.043 A 
ATOM     23  C   UNL     1      -3.771   6.246   5.886  0.00  0.00    +0.007 A 
ATOM     24  C   UNL     1      -3.977   6.709   7.171  0.00  0.00    +0.046 A 
BRANCH  19  25
ATOM     25  O   UNL     1      -3.540   6.550   9.505  0.00  0.00    -0.492 OA
BRANCH  25  26
ATOM     26  C   UNL     1      -4.415   7.669   9.661  0.00  0.00    +0.232 C 
BRANCH  26  28
ATOM     27  C   UNL     1      -3.148   8.518  11.640  0.00  0.00    +0.010 C 
ATOM     28  C   UNL     1      -4.513   8.037  11.143  0.00  0.00    +0.020 C 
ATOM     29  C   UNL     1      -5.543   9.153  11.324  0.00  0.00    +0.010 C 
ENDBRANCH  26  28
ENDBRANCH  25  26
ENDBRANCH  19  25
ENDBRANCH   1  22
BRANCH   5  30
ATOM     30  C   UNL     1      -1.241   3.131   0.030  0.00  0.00    +0.019 A 
ATOM     31  C   UNL     1      -0.769   2.534   1.183  0.00  0.00    +0.013 A 
ATOM     32  C   UNL     1       0.440   1.866   1.173  0.00  0.00    +0.046 A 
ATOM     33  C   UNL     1       1.180   1.785   0.002  0.00  0.00    +0.124 A 
ATOM     34  C   UNL     1       0.707   2.379  -1.158  0.00  0.00    +0.091 A 
ATOM     35  C   UNL     1      -0.505   3.053  -1.144  0.00  0.00    +0.129 A 
BRANCH  35  36
ATOM     36  O   UNL     1      -0.972   3.636  -2.279  0.00  0.00    -0.495 OA
ATOM     37  C   UNL     1      -0.162   3.516  -3.451  0.00  0.00    +0.277 C 
ENDBRANCH  35  36
BRANCH  33  38
ATOM     38  O   UNL     1       2.368   1.124  -0.008  0.00  0.00    -0.495 OA
ATOM     39  C   UNL     1       2.793   0.537   1.223  0.00  0.00    +0.277 C 
ENDBRANCH  33  38
ENDBRANCH   5  30
TORSDOF 7
