REMARK  Name = ZINC46860825
REMARK  7 active torsions:
REMARK  status: ('A' for Active; 'I' for Inactive)
REMARK    1  A    between atoms: C_1  and  C_2
REMARK    2  A    between atoms: N_8  and  C_9
REMARK    3  A    between atoms: C_9  and  C_10
REMARK    4  A    between atoms: C_10  and  N_11
REMARK    5  A    between atoms: C_12  and  C_14
REMARK    6  A    between atoms: C_15  and  C_16
REMARK    7  A    between atoms: C_19  and  N_22
REMARK                            x       y       z     vdW  Elec       q    Type
REMARK                         _______ _______ _______ _____ _____    ______ ____
ROOT
ATOM      1  C   UNL     1       6.265   0.595   3.630  0.00  0.00    +0.068 C 
ATOM      2  C   UNL     1       7.072   0.369   4.688  0.00  0.00    +0.013 C 
ENDROOT
BRANCH   2   3
ATOM      3  C   UNL     1       8.425   0.942   4.716  0.00  0.00    -0.025 A 
ATOM      4  C   UNL     1       8.877   1.728   3.648  0.00  0.00    +0.010 A 
ATOM      5  C   UNL     1      10.139   2.261   3.678  0.00  0.00    +0.025 A 
ATOM      6  C   UNL     1      10.972   2.022   4.768  0.00  0.00    +0.051 A 
ATOM      7  C   UNL     1      10.527   1.242   5.832  0.00  0.00    +0.025 A 
ATOM      8  C   UNL     1       9.264   0.709   5.813  0.00  0.00    +0.010 A 
BRANCH   6   9
ATOM      9  N   UNL     1      12.253   2.566   4.795  0.00  0.00    -0.207 N 
ATOM     10  C   UNL     1      13.074   2.961   3.636  0.00  0.00    +0.133 C 
ATOM     11  C   UNL     1      14.025   4.114   4.007  0.00  0.00    +0.045 C 
ATOM     12  C   UNL     1      14.644   3.703   5.377  0.00  0.00    +0.190 C 
ATOM     13  S   UNL     1      13.176   2.911   6.151  0.00  0.00    +0.046 S 
ATOM     14  O   UNL     1      12.422   3.860   6.892  0.00  0.00    -0.155 OA
ATOM     15  O   UNL     1      13.521   1.649   6.706  0.00  0.00    -0.155 OA
ENDBRANCH   6   9
ENDBRANCH   2   3
BRANCH   1  17
ATOM     16  N   UNL     1       4.113   0.250   2.546  0.00  0.00    -0.314 N 
ATOM     17  C   UNL     1       4.919   0.025   3.602  0.00  0.00    +0.237 C 
ATOM     18  O   UNL     1       4.526  -0.654   4.533  0.00  0.00    -0.271 OA
ATOM     19  H   UNL     1       4.426   0.791   1.803  0.00  0.00    +0.149 HD
BRANCH  16  20
ATOM     20  C   UNL     1       2.764  -0.321   2.518  0.00  0.00    +0.086 C 
BRANCH  20  21
ATOM     21  C   UNL     1       2.066   0.083   1.218  0.00  0.00    -0.059 C 
BRANCH  21  28
ATOM     22  C   UNL     1      -0.019   1.526   0.010  0.00  0.00    -0.013 C 
ATOM     23  C   UNL     1       0.002  -0.004   0.002  0.00  0.00    -0.072 C 
ATOM     24  C   UNL     1      -1.434  -0.533   0.011  0.00  0.00    -0.016 C 
ATOM     25  C   UNL     1      -1.408  -2.064   0.003  0.00  0.00    -0.003 C 
ATOM     26  C   UNL     1      -0.600  -2.558   1.206  0.00  0.00    -0.019 C 
ATOM     27  C   UNL     1       0.805  -1.954   1.152  0.00  0.00    -0.078 C 
ATOM     28  N   UNL     1       0.713  -0.490   1.191  0.00  0.00    +0.382 N 
ATOM     29  H   UNL     1       0.213  -0.206   2.020  0.00  0.00    -0.081 HD
ENDBRANCH  21  28
ENDBRANCH  20  21
ENDBRANCH  16  20
ENDBRANCH   1  17
TORSDOF 6
