REMARK  Name = ZINC10768656
REMARK  6 active torsions:
REMARK  status: ('A' for Active; 'I' for Inactive)
REMARK    1  A    between atoms: C_1  and  C_2
REMARK    2  A    between atoms: C_9  and  N_14
REMARK    3  A    between atoms: C_10  and  C_11
REMARK    4  A    between atoms: C_15  and  C_17
REMARK    5  A    between atoms: N_22  and  S_24
REMARK    6  A    between atoms: S_24  and  C_27
REMARK                            x       y       z     vdW  Elec       q    Type
REMARK                         _______ _______ _______ _____ _____    ______ ____
ROOT
ATOM      1  N   UNL     1       4.581  -0.758   5.540  0.00  0.00    -0.279 N 
ATOM      2  C   UNL     1       5.075  -0.356   4.352  0.00  0.00    +0.222 C 
ATOM      3  O   UNL     1       6.100  -0.845   3.926  0.00  0.00    -0.275 OA
ATOM      4  H   UNL     1       3.761  -0.367   5.881  0.00  0.00    +0.155 HD
ENDROOT
BRANCH   1  12
ATOM      5  C   UNL     1       8.673  -6.181   9.418  0.00  0.00    +0.008 C 
ATOM      6  C   UNL     1       7.813  -4.951   9.122  0.00  0.00    -0.009 C 
ATOM      7  C   UNL     1       6.350  -5.255   9.458  0.00  0.00    +0.008 C 
ATOM      8  C   UNL     1       5.526  -3.967   9.405  0.00  0.00    +0.037 C 
ATOM      9  C   UNL     1       5.771  -3.283   8.066  0.00  0.00    -0.023 A 
ATOM     10  C   UNL     1       6.847  -3.595   7.312  0.00  0.00    -0.004 A 
ATOM     11  S   UNL     1       6.709  -2.565   5.879  0.00  0.00    -0.077 S 
ATOM     12  C   UNL     1       5.244  -1.729   6.275  0.00  0.00    +0.084 A 
ATOM     13  C   UNL     1       4.899  -2.263   7.508  0.00  0.00    +0.068 A 
ATOM     14  C   UNL     1       7.914  -4.596   7.631  0.00  0.00    +0.046 C 
BRANCH  13  15
ATOM     15  C   UNL     1       3.697  -1.817   8.220  0.00  0.00    +0.244 C 
ATOM     16  O   UNL     1       2.635  -2.382   8.034  0.00  0.00    -0.270 OA
ATOM     17  N   UNL     1       3.769  -0.783   9.081  0.00  0.00    -0.325 N 
ATOM     18  H   UNL     1       4.615  -0.333   9.229  0.00  0.00    +0.145 HD
ATOM     19  H   UNL     1       2.974  -0.488   9.552  0.00  0.00    +0.145 HD
ENDBRANCH  13  15
ENDBRANCH   1  12
BRANCH   2  20
ATOM     20  C   UNL     1       4.354   0.699   3.554  0.00  0.00    +0.091 C 
ATOM     21  C   UNL     1       4.271   1.990   4.371  0.00  0.00    +0.015 C 
ATOM     22  C   UNL     1       3.510   3.052   3.574  0.00  0.00    +0.018 C 
ATOM     23  C   UNL     1       4.271   3.352   2.274  0.00  0.00    +0.109 C 
ATOM     24  N   UNL     1       4.477   2.088   1.552  0.00  0.00    -0.175 NA
ATOM     25  C   UNL     1       5.120   0.970   2.255  0.00  0.00    +0.122 C 
BRANCH  24  26
ATOM     26  S   UNL     1       4.001   1.931  -0.026  0.00  0.00    +0.067 S 
ATOM     27  O   UNL     1       4.799   0.899  -0.590  0.00  0.00    -0.152 OA
ATOM     28  O   UNL     1       3.957   3.243  -0.570  0.00  0.00    -0.152 OA
BRANCH  26  29
ATOM     29  C   UNL     1       2.343   1.336  -0.013  0.00  0.00    +0.144 A 
ATOM     30  C   UNL     1       1.184   2.038   0.002  0.00  0.00    +0.038 A 
ATOM     31  C   UNL     1      -0.016   1.352   0.009  0.00  0.00    +0.030 A 
ATOM     32  C   UNL     1       0.002  -0.004   0.002  0.00  0.00    +0.080 A 
ATOM     33  S   UNL     1       1.754  -0.349  -0.017  0.00  0.00    -0.057 S 
ATOM     34 CL   UNL     1      -1.331  -1.116   0.009  0.00  0.00    -0.076 Cl
ENDBRANCH  26  29
ENDBRANCH  24  26
ENDBRANCH   2  20
TORSDOF 5
