REMARK  Name = ZINC32381293
REMARK  12 active torsions:
REMARK  status: ('A' for Active; 'I' for Inactive)
REMARK    1  A    between atoms: C_1  and  C_2
REMARK    2  A    between atoms: C_2  and  C_3
REMARK    3  A    between atoms: C_2  and  C_4
REMARK    4  A    between atoms: C_2  and  C_5
REMARK    5  A    between atoms: C_5  and  C_6
REMARK    6  A    between atoms: C_6  and  C_8
REMARK    7  A    between atoms: C_6  and  N_14
REMARK    8  A    between atoms: C_15  and  C_17
REMARK    9  A    between atoms: C_20  and  S_22
REMARK   10  A    between atoms: S_22  and  N_25
REMARK   11  A    between atoms: N_25  and  C_26
REMARK   12  A    between atoms: N_25  and  C_27
REMARK                            x       y       z     vdW  Elec       q    Type
REMARK                         _______ _______ _______ _____ _____    ______ ____
ROOT
ATOM      1  N   UNL     1      -2.888   2.830   0.013  0.00  0.00    -0.302 N 
ATOM      2  C   UNL     1      -2.072   1.775   0.207  0.00  0.00    +0.280 C 
ATOM      3  O   UNL     1      -2.534   0.650   0.265  0.00  0.00    -0.267 OA
ATOM      4  H   UNL     1      -2.482   3.852   0.041  0.00  0.00    +0.150 HD
ENDROOT
BRANCH   2   5
ATOM      5  C   UNL     1      -0.627   1.982   0.349  0.00  0.00    +0.192 A 
ATOM      6  C   UNL     1       0.307   1.006   0.549  0.00  0.00    +0.057 A 
ATOM      7  C   UNL     1       1.553   1.649   0.619  0.00  0.00    +0.072 A 
ATOM      8  C   UNL     1       1.327   2.973   0.467  0.00  0.00    +0.259 A 
ATOM      9  O   UNL     1       0.012   3.169   0.307  0.00  0.00    -0.432 OA
BRANCH   8  10
ATOM     10  S   UNL     1       2.559   4.232   0.477  0.00  0.00    +0.094 S 
ATOM     11  O   UNL     1       1.904   5.438   0.846  0.00  0.00    -0.150 OA
ATOM     12  O   UNL     1       3.665   3.713   1.202  0.00  0.00    -0.150 OA
BRANCH  10  13
ATOM     13  N   UNL     1       3.069   4.430  -1.086  0.00  0.00    -0.180 NA
ATOM     14  C   UNL     1       2.398   5.397  -1.959  0.00  0.00    +0.131 C 
ATOM     15  C   UNL     1       4.191   3.639  -1.596  0.00  0.00    +0.131 C 
ENDBRANCH  10  13
ENDBRANCH   8  10
ENDBRANCH   2   5
BRANCH   1  16
ATOM     16  C   UNL     1      -4.316   2.615  -0.236  0.00  0.00    +0.104 C 
BRANCH  16  17
ATOM     17  C   UNL     1      -5.081   3.861   0.128  0.00  0.00    -0.027 A 
ATOM     18  C   UNL     1      -4.920   5.014  -0.619  0.00  0.00    +0.005 A 
ATOM     19  C   UNL     1      -5.626   6.156  -0.288  0.00  0.00    +0.000 A 
ATOM     20  C   UNL     1      -6.486   6.148   0.794  0.00  0.00    +0.000 A 
ATOM     21  C   UNL     1      -6.643   4.997   1.544  0.00  0.00    +0.000 A 
ATOM     22  C   UNL     1      -5.941   3.854   1.210  0.00  0.00    +0.005 A 
ENDBRANCH  16  17
BRANCH  16  23
ATOM     23  C   UNL     1      -4.534   2.296  -1.716  0.00  0.00    +0.033 C 
BRANCH  23  25
ATOM     24  C   UNL     1      -6.928   2.974  -1.496  0.00  0.00    +0.010 C 
ATOM     25  C   UNL     1      -5.982   1.855  -1.935  0.00  0.00    -0.036 C 
ATOM     26  C   UNL     1      -6.204   1.551  -3.418  0.00  0.00    +0.010 C 
ATOM     27  C   UNL     1      -6.262   0.597  -1.109  0.00  0.00    +0.010 C 
ENDBRANCH  23  25
ENDBRANCH  16  23
ENDBRANCH   1  16
TORSDOF 7
