REMARK  Name = ZINC51147496
REMARK  4 active torsions:
REMARK  status: ('A' for Active; 'I' for Inactive)
REMARK    1  A    between atoms: N_8  and  C_12
REMARK    2  A    between atoms: C_12  and  C_13
REMARK    3  A    between atoms: C_14  and  N_18
REMARK    4  A    between atoms: N_18  and  N_19
REMARK                            x       y       z     vdW  Elec       q    Type
REMARK                         _______ _______ _______ _____ _____    ______ ____
ROOT
ATOM      1  C   UNL     1      -0.360   1.050   0.832  0.00  0.00    +0.020 A 
ATOM      2  C   UNL     1       0.732   1.890   0.699  0.00  0.00    +0.007 A 
ATOM      3  C   UNL     1       1.983   1.360   0.482  0.00  0.00    -0.017 A 
ATOM      4  C   UNL     1       2.170  -0.014   0.395  0.00  0.00    +0.042 A 
ATOM      5  C   UNL     1       1.067  -0.854   0.529  0.00  0.00    +0.043 A 
ATOM      6  C   UNL     1      -0.188  -0.321   0.747  0.00  0.00    +0.043 A 
ATOM      7 CL   UNL     1      -1.557  -1.375   0.913  0.00  0.00    -0.083 Cl
ATOM      8  N   UNL     1       3.517  -0.305   0.174  0.00  0.00    -0.265 N 
ATOM      9  C   UNL     1       4.272   0.804   0.105  0.00  0.00    +0.225 C 
ATOM     10  O   UNL     1       5.470   0.850  -0.078  0.00  0.00    -0.275 OA
ATOM     11  C   UNL     1       3.346   1.987   0.299  0.00  0.00    +0.133 C 
ENDROOT
BRANCH   8  12
ATOM     12  C   UNL     1       4.046  -1.663   0.035  0.00  0.00    +0.173 C 
BRANCH  12  13
ATOM     13  C   UNL     1       4.343  -2.229   1.399  0.00  0.00    +0.112 A 
ATOM     14  C   UNL     1       5.582  -2.132   1.966  0.00  0.00    +0.124 A 
ATOM     15  S   UNL     1       5.353  -2.908   3.440  0.00  0.00    +0.053 S 
ATOM     16  N   UNL     1       3.734  -3.309   3.273  0.00  0.00    -0.108 NA
ATOM     17  N   UNL     1       3.423  -2.839   2.112  0.00  0.00    -0.143 NA
BRANCH  14  18
ATOM     18  N   UNL     1       6.736  -1.545   1.455  0.00  0.00    -0.274 N 
ATOM     19  H   UNL     1       6.721  -1.127   0.580  0.00  0.00    +0.167 HD
BRANCH  18  20
ATOM     20  N   UNL     1       7.890  -1.556   2.187  0.00  0.00    -0.256 NA
ATOM     21  H   UNL     1       8.637  -1.095   1.690  0.00  0.00    +0.140 HD
ATOM     22  H   UNL     1       7.747  -1.137   3.094  0.00  0.00    +0.140 HD
ENDBRANCH  18  20
ENDBRANCH  14  18
ENDBRANCH  12  13
ENDBRANCH   8  12
TORSDOF 4
