REMARK  Name = ZINC63161363
REMARK  8 active torsions:
REMARK  status: ('A' for Active; 'I' for Inactive)
REMARK    1  A    between atoms: C_1  and  C_2
REMARK    2  A    between atoms: C_3  and  C_24
REMARK    3  A    between atoms: C_5  and  C_7
REMARK    4  A    between atoms: C_7  and  N_8
REMARK    5  A    between atoms: N_11  and  C_12
REMARK    6  A    between atoms: C_14  and  C_20
REMARK    7  A    between atoms: C_24  and  O_26
REMARK    8  A    between atoms: O_26  and  C_27
REMARK                            x       y       z     vdW  Elec       q    Type
REMARK                         _______ _______ _______ _____ _____    ______ ____
ROOT
ATOM      1  N   UNL     1       1.938  -3.704  -1.403  0.00  0.00    -0.292 N 
ATOM      2  C   UNL     1       2.794  -4.709  -1.675  0.00  0.00    +0.304 C 
ATOM      3  O   UNL     1       3.199  -5.421  -0.777  0.00  0.00    -0.252 OA
ATOM      4  N   UNL     1       3.201  -4.923  -2.941  0.00  0.00    -0.265 N 
ATOM      5  H   UNL     1       1.615  -3.135  -2.120  0.00  0.00    +0.151 HD
ATOM      6  H   UNL     1       2.822  -4.403  -3.667  0.00  0.00    +0.157 HD
ENDROOT
BRANCH   4   7
ATOM      7  C   UNL     1       4.172  -5.899  -3.210  0.00  0.00    +0.100 A 
ATOM      8  C   UNL     1       3.897  -6.934  -4.061  0.00  0.00    +0.042 A 
ATOM      9  C   UNL     1       4.886  -7.895  -4.312  0.00  0.00    +0.073 A 
ATOM     10  C   UNL     1       6.096  -7.793  -3.716  0.00  0.00    +0.098 A 
ATOM     11  N   UNL     1       6.372  -6.766  -2.870  0.00  0.00    -0.327 N 
ATOM     12  H   UNL     1       7.245  -6.710  -2.452  0.00  0.00    +0.168 HD
ATOM     13  C   UNL     1       5.448  -5.821  -2.610  0.00  0.00    +0.270 A 
ATOM     14  O   UNL     1       5.711  -4.901  -1.852  0.00  0.00    -0.266 OA
BRANCH   9  15
ATOM     15  C   UNL     1       4.601  -9.043  -5.246  0.00  0.00    +0.419 C 
ATOM     16  F   UNL     1       5.731  -9.863  -5.337  0.00  0.00    -0.166 F 
ATOM     17  F   UNL     1       3.523  -9.787  -4.755  0.00  0.00    -0.166 F 
ATOM     18  F   UNL     1       4.284  -8.544  -6.514  0.00  0.00    -0.166 F 
ENDBRANCH   9  15
ENDBRANCH   4   7
BRANCH   1  19
ATOM     19  C   UNL     1       1.495  -3.470  -0.026  0.00  0.00    +0.180 C 
BRANCH  19  24
ATOM     20  C   UNL     1      -0.149   1.283   0.319  0.00  0.00    +0.087 C 
ATOM     21  C   UNL     1      -0.165  -0.215   0.157  0.00  0.00    +0.116 A 
ATOM     22  C   UNL     1      -1.274  -0.986  -0.036  0.00  0.00    +0.100 A 
ATOM     23  C   UNL     1      -0.783  -2.369  -0.135  0.00  0.00    +0.061 A 
ATOM     24  C   UNL     1       0.549  -2.297   0.005  0.00  0.00    +0.123 A 
ATOM     25  O   UNL     1       0.906  -1.014   0.173  0.00  0.00    -0.462 OA
BRANCH  22  26
ATOM     26  C   UNL     1      -2.671  -0.530  -0.126  0.00  0.00    +0.342 C 
ATOM     27  O   UNL     1      -2.932   0.653  -0.024  0.00  0.00    -0.245 OA
BRANCH  26  28
ATOM     28  O   UNL     1      -3.661  -1.423  -0.320  0.00  0.00    -0.464 OA
ATOM     29  C   UNL     1      -4.993  -0.910  -0.397  0.00  0.00    +0.280 C 
ENDBRANCH  26  28
ENDBRANCH  22  26
ENDBRANCH  19  24
ENDBRANCH   1  19
TORSDOF 6
