REMARK  Name = ZINC48690312
REMARK  4 active torsions:
REMARK  status: ('A' for Active; 'I' for Inactive)
REMARK    1  A    between atoms: C_1  and  C_2
REMARK    2  A    between atoms: C_8  and  N_10
REMARK    3  A    between atoms: C_11  and  C_13
REMARK    4  A    between atoms: N_15  and  C_16
REMARK                            x       y       z     vdW  Elec       q    Type
REMARK                         _______ _______ _______ _____ _____    ______ ____
ROOT
ATOM      1  C   UNL     1       4.196   0.643   2.377  0.00  0.00    +0.303 C 
ATOM      2  O   UNL     1       4.727   0.937   1.326  0.00  0.00    -0.265 OA
ATOM      3  N   UNL     1       4.875   0.776   3.535  0.00  0.00    -0.278 N 
ATOM      4  H   UNL     1       4.430   0.606   4.380  0.00  0.00    +0.155 HD
ENDROOT
BRANCH   3   5
ATOM      5  C   UNL     1       6.219   1.160   3.517  0.00  0.00    +0.038 A 
ATOM      6  C   UNL     1       6.671   2.063   2.563  0.00  0.00    +0.027 A 
ATOM      7  C   UNL     1       7.999   2.444   2.544  0.00  0.00    +0.051 A 
ATOM      8  C   UNL     1       8.882   1.926   3.475  0.00  0.00    +0.167 A 
ATOM      9  C   UNL     1       8.432   1.019   4.435  0.00  0.00    +0.169 A 
ATOM     10  C   UNL     1       7.102   0.643   4.457  0.00  0.00    +0.073 A 
ATOM     11  O   UNL     1       9.494   0.666   5.225  0.00  0.00    -0.447 OA
ATOM     12  C   UNL     1      10.640   0.978   4.420  0.00  0.00    +0.254 C 
ATOM     13  O   UNL     1      10.224   2.131   3.674  0.00  0.00    -0.448 OA
ATOM     14  C   UNL     1      11.863   1.290   5.288  0.00  0.00    +0.093 C 
ATOM     15  C   UNL     1      12.679  -0.029   5.273  0.00  0.00    +0.008 C 
ATOM     16  C   UNL     1      12.475  -0.545   3.826  0.00  0.00    +0.008 C 
ATOM     17  C   UNL     1      11.009  -0.183   3.497  0.00  0.00    +0.093 C 
ENDBRANCH   3   5
BRANCH   1  19
ATOM     18  N   UNL     1       2.115   0.001   1.232  0.00  0.00    -0.304 N 
ATOM     19  C   UNL     1       2.793   0.134   2.389  0.00  0.00    +0.300 C 
ATOM     20  O   UNL     1       2.262  -0.160   3.440  0.00  0.00    -0.265 OA
ATOM     21  H   UNL     1       2.538   0.235   0.392  0.00  0.00    +0.149 HD
BRANCH  18  28
ATOM     22  C   UNL     1      -0.011   1.536   0.002  0.00  0.00    +0.009 C 
ATOM     23  C   UNL     1       0.002   0.006   0.001  0.00  0.00    +0.006 C 
ATOM     24  C   UNL     1      -1.437  -0.515   0.012  0.00  0.00    +0.005 C 
ATOM     25  C   UNL     1      -1.425  -2.045   0.011  0.00  0.00    +0.000 C 
ATOM     26  C   UNL     1      -0.689  -2.550   1.254  0.00  0.00    +0.002 C 
ATOM     27  C   UNL     1       0.750  -2.029   1.242  0.00  0.00    +0.022 C 
ATOM     28  C   UNL     1       0.737  -0.499   1.243  0.00  0.00    +0.076 C 
ENDBRANCH  18  28
ENDBRANCH   1  19
TORSDOF 3
