REMARK  Name = ZINC16455366
REMARK  8 active torsions:
REMARK  status: ('A' for Active; 'I' for Inactive)
REMARK    1  A    between atoms: C_1  and  C_2
REMARK    2  A    between atoms: C_2  and  C_20
REMARK    3  A    between atoms: N_5  and  C_9
REMARK    4  A    between atoms: C_9  and  C_10
REMARK    5  A    between atoms: N_15  and  C_16
REMARK    6  A    between atoms: C_16  and  C_17
REMARK    7  A    between atoms: C_16  and  C_18
REMARK    8  A    between atoms: C_16  and  C_19
REMARK                            x       y       z     vdW  Elec       q    Type
REMARK                         _______ _______ _______ _____ _____    ______ ____
ROOT
ATOM      1  C   UNL     1      -0.019   1.526   0.010  0.00  0.00    +0.047 C 
ATOM      2  C   UNL     1       0.002  -0.004   0.002  0.00  0.00    +0.135 C 
ATOM      3  C   UNL     1      -1.403  -0.557   0.139  0.00  0.00    +0.251 C 
ATOM      4  O   UNL     1      -2.332  -0.392  -0.621  0.00  0.00    -0.272 OA
ATOM      5  N   UNL     1      -1.403  -1.272   1.282  0.00  0.00    -0.215 N 
ATOM      6  C   UNL     1      -0.206  -1.247   1.879  0.00  0.00    +0.310 C 
ATOM      7  O   UNL     1       0.040  -1.819   2.924  0.00  0.00    -0.252 OA
ATOM      8  N   UNL     1       0.695  -0.520   1.195  0.00  0.00    -0.281 N 
ATOM      9  H   UNL     1       1.621  -0.365   1.440  0.00  0.00    +0.152 HD
ENDROOT
BRANCH   2  10
ATOM     10  C   UNL     1       0.657  -0.517  -1.255  0.00  0.00    -0.015 A 
ATOM     11  C   UNL     1      -0.108  -0.772  -2.378  0.00  0.00    +0.009 A 
ATOM     12  C   UNL     1       0.491  -1.242  -3.531  0.00  0.00    +0.039 A 
ATOM     13  C   UNL     1       1.859  -1.457  -3.561  0.00  0.00    +0.123 A 
ATOM     14  C   UNL     1       2.624  -1.202  -2.436  0.00  0.00    +0.039 A 
ATOM     15  C   UNL     1       2.023  -0.727  -1.285  0.00  0.00    +0.009 A 
ATOM     16  F   UNL     1       2.446  -1.917  -4.688  0.00  0.00    -0.205 F 
ENDBRANCH   2  10
BRANCH   5  17
ATOM     17  C   UNL     1      -2.569  -1.986   1.805  0.00  0.00    +0.214 C 
BRANCH  17  18
ATOM     18  C   UNL     1      -2.585  -3.391   1.260  0.00  0.00    +0.238 C 
ATOM     19  O   UNL     1      -1.708  -3.759   0.508  0.00  0.00    -0.274 OA
ATOM     20  N   UNL     1      -3.573  -4.239   1.608  0.00  0.00    -0.239 N 
ATOM     21  C   UNL     1      -3.587  -5.495   1.120  0.00  0.00    +0.306 C 
ATOM     22  O   UNL     1      -2.708  -5.864   0.366  0.00  0.00    -0.252 OA
ATOM     23  N   UNL     1      -4.575  -6.342   1.468  0.00  0.00    -0.294 N 
ATOM     24  H   UNL     1      -4.275  -3.944   2.209  0.00  0.00    +0.159 HD
ATOM     25  H   UNL     1      -5.277  -6.048   2.069  0.00  0.00    +0.151 HD
BRANCH  23  26
ATOM     26  C   UNL     1      -4.590  -7.708   0.937  0.00  0.00    +0.028 C 
ATOM     27  C   UNL     1      -3.313  -8.434   1.364  0.00  0.00    +0.031 C 
ATOM     28  C   UNL     1      -5.809  -8.454   1.484  0.00  0.00    +0.031 C 
ATOM     29  C   UNL     1      -4.664  -7.661  -0.590  0.00  0.00    +0.031 C 
ENDBRANCH  23  26
ENDBRANCH  17  18
ENDBRANCH   5  17
TORSDOF 4
