REMARK  Name = ZINC35313459
REMARK  9 active torsions:
REMARK  status: ('A' for Active; 'I' for Inactive)
REMARK    1  A    between atoms: C_1  and  C_2
REMARK    2  A    between atoms: C_5  and  C_33
REMARK    3  A    between atoms: C_9  and  C_14
REMARK    4  A    between atoms: C_18  and  O_31
REMARK    5  A    between atoms: C_19  and  O_29
REMARK    6  A    between atoms: N_24  and  S_25
REMARK    7  A    between atoms: S_25  and  C_28
REMARK    8  A    between atoms: O_29  and  C_30
REMARK    9  A    between atoms: O_31  and  C_32
REMARK                            x       y       z     vdW  Elec       q    Type
REMARK                         _______ _______ _______ _____ _____    ______ ____
ROOT
ATOM      1  C   UNL     1       0.048  -0.071   4.974  0.00  0.00    +0.145 C 
ATOM      2  C   UNL     1      -1.281  -0.293   5.653  0.00  0.00    -0.017 A 
ATOM      3  C   UNL     1      -2.387   0.373   5.141  0.00  0.00    +0.055 A 
ATOM      4  C   UNL     1      -3.635   0.204   5.712  0.00  0.00    +0.162 A 
ATOM      5  C   UNL     1      -3.780  -0.642   6.807  0.00  0.00    +0.162 A 
ATOM      6  C   UNL     1      -2.676  -1.299   7.315  0.00  0.00    +0.053 A 
ATOM      7  C   UNL     1      -1.421  -1.122   6.743  0.00  0.00    -0.037 A 
ATOM      8  C   UNL     1      -0.261  -1.851   7.370  0.00  0.00    +0.052 C 
ATOM      9  C   UNL     1       0.908  -1.955   6.392  0.00  0.00    +0.115 C 
ATOM     10  N   UNL     1       1.124  -0.625   5.802  0.00  0.00    -0.169 NA
ENDROOT
BRANCH   1  19
ATOM     11  C   UNL     1      -2.454  -4.138   2.895  0.00  0.00    +0.044 C 
ATOM     12  C   UNL     1      -1.542  -3.582   1.831  0.00  0.00    -0.041 A 
ATOM     13  C   UNL     1      -1.502  -4.156   0.593  0.00  0.00    +0.004 A 
ATOM     14  C   UNL     1      -0.666  -3.652  -0.394  0.00  0.00    +0.005 A 
ATOM     15  C   UNL     1       0.140  -2.562  -0.143  0.00  0.00    -0.026 A 
ATOM     16  C   UNL     1       0.117  -1.961   1.111  0.00  0.00    +0.052 A 
ATOM     17  C   UNL     1      -0.736  -2.472   2.107  0.00  0.00    +0.002 A 
ATOM     18  C   UNL     1      -0.757  -1.829   3.422  0.00  0.00    +0.021 A 
ATOM     19  C   UNL     1       0.045  -0.756   3.632  0.00  0.00    +0.041 A 
ATOM     20  C   UNL     1       0.878  -0.279   2.597  0.00  0.00    +0.254 A 
ATOM     21  O   UNL     1       1.592   0.686   2.807  0.00  0.00    -0.268 OA
ATOM     22  N   UNL     1       0.913  -0.870   1.390  0.00  0.00    -0.322 N 
ATOM     23  H   UNL     1       1.497  -0.516   0.701  0.00  0.00    +0.169 HD
ATOM     24  C   UNL     1       1.044  -2.025  -1.223  0.00  0.00    +0.046 C 
ENDBRANCH   1  19
BRANCH  10  25
ATOM     25  S   UNL     1       2.528   0.214   6.064  0.00  0.00    +0.030 S 
ATOM     26  O   UNL     1       3.502  -0.785   6.331  0.00  0.00    -0.158 OA
ATOM     27  O   UNL     1       2.656   1.068   4.935  0.00  0.00    -0.158 OA
ATOM     28  C   UNL     1       2.213   1.196   7.556  0.00  0.00    +0.215 C 
ENDBRANCH  10  25
BRANCH   5  29
ATOM     29  O   UNL     1      -5.003  -0.821   7.375  0.00  0.00    -0.491 OA
ATOM     30  C   UNL     1      -5.075  -1.704   8.496  0.00  0.00    +0.277 C 
ENDBRANCH   5  29
BRANCH   4  31
ATOM     31  O   UNL     1      -4.713   0.861   5.206  0.00  0.00    -0.491 OA
ATOM     32  C   UNL     1      -4.486   1.712   4.081  0.00  0.00    +0.277 C 
ENDBRANCH   4  31
TORSDOF 4
