REMARK  Name = ZINC35000089
REMARK  8 active torsions:
REMARK  status: ('A' for Active; 'I' for Inactive)
REMARK    1  A    between atoms: C_1  and  C_2
REMARK    2  A    between atoms: N_11  and  C_12
REMARK    3  A    between atoms: C_12  and  C_13
REMARK    4  A    between atoms: C_19  and  C_21
REMARK    5  A    between atoms: C_21  and  C_23
REMARK    6  A    between atoms: C_21  and  N_34
REMARK    7  A    between atoms: C_23  and  C_24
REMARK    8  A    between atoms: C_35  and  C_37
REMARK                            x       y       z     vdW  Elec       q    Type
REMARK                         _______ _______ _______ _____ _____    ______ ____
ROOT
ATOM      1  C   UNL     1       0.598  -4.303  -1.938  0.00  0.00    +0.163 C 
ENDROOT
BRANCH   1  12
ATOM      2  C   UNL     1       0.010   1.527  -0.008  0.00  0.00    +0.030 C 
ATOM      3  C   UNL     1       0.015  -0.003  -0.006  0.00  0.00    +0.092 C 
ATOM      4  C   UNL     1       0.632  -0.518  -1.312  0.00  0.00    +0.130 C 
ATOM      5  N   UNL     1       0.866  -1.963  -1.184  0.00  0.00    -0.297 N 
ATOM      6  C   UNL     1       1.673  -2.453  -0.058  0.00  0.00    +0.127 C 
ATOM      7  C   UNL     1       1.055  -1.938   1.248  0.00  0.00    +0.128 C 
ATOM      8  N   UNL     1       0.818  -0.493   1.123  0.00  0.00    -0.280 N 
ATOM      9  C   UNL     1       1.333   0.368   2.023  0.00  0.00    +0.303 C 
ATOM     10  O   UNL     1       1.048   1.549   1.967  0.00  0.00    -0.253 OA
ATOM     11  N   UNL     1       2.163  -0.080   2.985  0.00  0.00    -0.295 N 
ATOM     12  C   UNL     1       0.350  -2.824  -2.083  0.00  0.00    +0.236 C 
ATOM     13  O   UNL     1      -0.315  -2.408  -3.009  0.00  0.00    -0.274 OA
ATOM     14  H   UNL     1       2.450  -1.006   2.986  0.00  0.00    +0.151 HD
BRANCH  11  15
ATOM     15  C   UNL     1       2.633   0.833   4.030  0.00  0.00    +0.141 C 
BRANCH  15  16
ATOM     16  C   UNL     1       3.542   0.090   4.975  0.00  0.00    -0.030 A 
ATOM     17  C   UNL     1       3.016  -0.546   6.083  0.00  0.00    +0.005 A 
ATOM     18  C   UNL     1       3.849  -1.228   6.950  0.00  0.00    +0.000 A 
ATOM     19  C   UNL     1       5.210  -1.274   6.708  0.00  0.00    +0.000 A 
ATOM     20  C   UNL     1       5.736  -0.638   5.599  0.00  0.00    +0.000 A 
ATOM     21  C   UNL     1       4.902   0.040   4.730  0.00  0.00    +0.005 A 
ENDBRANCH  15  16
ENDBRANCH  11  15
ENDBRANCH   1  12
BRANCH   1  22
ATOM     22  N   UNL     1       0.371  -4.965  -3.226  0.00  0.00    -0.303 N 
ATOM     23  C   UNL     1      -0.838  -4.893  -3.817  0.00  0.00    +0.217 C 
ATOM     24  O   UNL     1      -1.739  -4.282  -3.282  0.00  0.00    -0.275 OA
ATOM     25  H   UNL     1       1.091  -5.454  -3.653  0.00  0.00    +0.149 HD
BRANCH  23  26
ATOM     26  C   UNL     1      -1.071  -5.574  -5.141  0.00  0.00    +0.075 C 
ATOM     27  C   UNL     1      -0.163  -4.952  -6.221  0.00  0.00    +0.013 C 
ATOM     28  C   UNL     1      -1.040  -4.946  -7.498  0.00  0.00    +0.001 C 
ATOM     29  C   UNL     1      -2.444  -4.595  -6.947  0.00  0.00    +0.001 C 
ATOM     30  C   UNL     1      -2.522  -5.346  -5.602  0.00  0.00    +0.013 C 
ENDBRANCH  23  26
ENDBRANCH   1  22
BRANCH   1  31
ATOM     31  C   UNL     1      -0.359  -4.881  -0.893  0.00  0.00    +0.069 C 
BRANCH  31  32
ATOM     32  C   UNL     1      -0.030  -6.333  -0.659  0.00  0.00    -0.020 A 
ATOM     33  C   UNL     1      -0.605  -7.388  -1.257  0.00  0.00    +0.087 A 
ATOM     34  N   UNL     1      -0.047  -8.548  -0.792  0.00  0.00    -0.360 N 
ATOM     35  H   UNL     1      -0.299  -9.441  -1.077  0.00  0.00    +0.165 HD
ATOM     36  C   UNL     1       0.924  -8.260   0.140  0.00  0.00    +0.047 A 
ATOM     37  C   UNL     1       0.982  -6.860   0.260  0.00  0.00    +0.003 A 
ATOM     38  C   UNL     1       1.893  -6.273   1.140  0.00  0.00    +0.010 A 
ATOM     39  C   UNL     1       2.727  -7.063   1.880  0.00  0.00    +0.001 A 
ATOM     40  C   UNL     1       2.677  -8.445   1.762  0.00  0.00    +0.002 A 
ATOM     41  C   UNL     1       1.779  -9.046   0.906  0.00  0.00    +0.026 A 
ENDBRANCH  31  32
ENDBRANCH   1  31
TORSDOF 7
