REMARK  Name = ZINC44545041
REMARK  4 active torsions:
REMARK  status: ('A' for Active; 'I' for Inactive)
REMARK    1  A    between atoms: C_1  and  C_2
REMARK    2  A    between atoms: C_5  and  C_8
REMARK    3  A    between atoms: C_10  and  N_30
REMARK    4  A    between atoms: C_11  and  C_27
REMARK                            x       y       z     vdW  Elec       q    Type
REMARK                         _______ _______ _______ _____ _____    ______ ____
ROOT
ATOM      1  C   UNL     1       0.311  -4.260   0.575  0.00  0.00    +0.023 A 
ATOM      2  C   UNL     1      -0.869  -5.001   0.876  0.00  0.00    +0.039 A 
ATOM      3  C   UNL     1      -2.175  -4.498   1.267  0.00  0.00    +0.054 A 
ATOM      4  C   UNL     1      -3.179  -5.408   1.519  0.00  0.00    +0.097 A 
ATOM      5  S   UNL     1      -2.390  -6.981   1.235  0.00  0.00    -0.062 S 
ATOM      6  C   UNL     1      -0.770  -6.408   0.786  0.00  0.00    +0.112 A 
ATOM      7  N   UNL     1       0.342  -7.026   0.431  0.00  0.00    -0.242 NA
ATOM      8  C   UNL     1       1.434  -6.366   0.142  0.00  0.00    +0.079 A 
ATOM      9  C   UNL     1       1.467  -4.960   0.208  0.00  0.00    +0.116 A 
ATOM     10  N   UNL     1       2.632  -4.302  -0.064  0.00  0.00    -0.152 NA
ATOM     11  N   UNL     1       3.526  -4.801  -0.766  0.00  0.00    -0.179 NA
ATOM     12  C   UNL     1       3.363  -6.129  -1.334  0.00  0.00    +0.163 C 
ATOM     13  C   UNL     1       2.701  -7.048  -0.288  0.00  0.00    +0.093 C 
ATOM     14  C   UNL     1       2.467  -8.385  -0.929  0.00  0.00    -0.015 C 
ATOM     15  C   UNL     1       3.421  -8.866  -1.734  0.00  0.00    -0.004 C 
ATOM     16  C   UNL     1       4.656  -8.092  -1.954  0.00  0.00    -0.002 C 
ATOM     17  C   UNL     1       4.645  -6.772  -1.772  0.00  0.00    +0.002 C 
ENDROOT
BRANCH   1  22
ATOM     18  C   UNL     1       0.317   1.489   0.840  0.00  0.00    +0.044 C 
ATOM     19  C   UNL     1       0.315  -0.016   0.770  0.00  0.00    -0.050 A 
ATOM     20  C   UNL     1       0.392  -0.649  -0.458  0.00  0.00    +0.004 A 
ATOM     21  C   UNL     1       0.391  -2.027  -0.528  0.00  0.00    +0.009 A 
ATOM     22  C   UNL     1       0.313  -2.783   0.643  0.00  0.00    -0.015 A 
ATOM     23  C   UNL     1       0.236  -2.138   1.878  0.00  0.00    +0.009 A 
ATOM     24  C   UNL     1       0.243  -0.759   1.935  0.00  0.00    +0.004 A 
ENDBRANCH   1  22
BRANCH   4  25
ATOM     25  C   UNL     1      -4.517  -5.155   1.911  0.00  0.00    +0.250 C 
ATOM     26  O   UNL     1      -4.900  -4.009   2.064  0.00  0.00    -0.270 OA
ATOM     27  N   UNL     1      -5.365  -6.182   2.115  0.00  0.00    -0.325 N 
ATOM     28  H   UNL     1      -5.061  -7.095   1.993  0.00  0.00    +0.145 HD
ATOM     29  H   UNL     1      -6.281  -6.008   2.383  0.00  0.00    +0.145 HD
ENDBRANCH   4  25
BRANCH   3  30
ATOM     30  N   UNL     1      -2.406  -3.134   1.383  0.00  0.00    -0.356 N 
ATOM     31  H   UNL     1      -1.813  -2.503   0.946  0.00  0.00    +0.142 HD
ATOM     32  H   UNL     1      -3.161  -2.813   1.900  0.00  0.00    +0.142 HD
ENDBRANCH   3  30
TORSDOF 3
