REMARK  Name = ZINC37246131
REMARK  11 active torsions:
REMARK  status: ('A' for Active; 'I' for Inactive)
REMARK    1  A    between atoms: C_1  and  C_2
REMARK    2  A    between atoms: C_2  and  C_4
REMARK    3  A    between atoms: C_2  and  C_9
REMARK    4  A    between atoms: C_4  and  C_5
REMARK    5  A    between atoms: C_5  and  C_6
REMARK    6  A    between atoms: C_15  and  C_44
REMARK    7  A    between atoms: C_16  and  O_35
REMARK    8  A    between atoms: C_27  and  C_34
REMARK    9  A    between atoms: C_30  and  O_33
REMARK   10  A    between atoms: O_35  and  C_36
REMARK   11  A    between atoms: C_36  and  C_38
REMARK                            x       y       z     vdW  Elec       q    Type
REMARK                         _______ _______ _______ _____ _____    ______ ____
ROOT
ATOM      1  C   UNL     1       0.362  -1.302   1.058  0.00  0.00    +0.002 C 
ATOM      2  C   UNL     1       0.248  -2.666   0.318  0.00  0.00    +0.005 C 
ATOM      3  C   UNL     1      -0.812  -3.500   1.093  0.00  0.00    +0.005 C 
ATOM      4  C   UNL     1      -1.545  -2.426   1.915  0.00  0.00    +0.002 C 
ATOM      5  C   UNL     1      -0.363  -1.554   2.388  0.00  0.00    +0.011 C 
ATOM      6  C   UNL     1      -0.858  -0.390   3.191  0.00  0.00    +0.183 C 
ATOM      7  C   UNL     1      -1.722  -0.854   4.375  0.00  0.00    +0.049 C 
ATOM      8  C   UNL     1      -2.020  -2.336   4.393  0.00  0.00    +0.002 C 
ATOM      9  C   UNL     1      -2.416  -2.901   3.036  0.00  0.00    -0.003 C 
ATOM     10  C   UNL     1      -2.458  -4.430   3.129  0.00  0.00    +0.004 C 
ATOM     11  C   UNL     1      -3.505  -4.833   4.174  0.00  0.00    +0.004 C 
ATOM     12  C   UNL     1      -4.156  -3.587   4.764  0.00  0.00    -0.002 C 
ATOM     13  C   UNL     1      -3.122  -2.671   5.413  0.00  0.00    -0.026 C 
ATOM     14  C   UNL     1      -3.816  -1.399   5.893  0.00  0.00    +0.010 C 
ATOM     15  C   UNL     1      -4.919  -1.738   6.894  0.00  0.00    +0.032 C 
ATOM     16  C   UNL     1      -5.929  -2.708   6.288  0.00  0.00    +0.115 C 
ATOM     17  C   UNL     1      -5.232  -3.971   5.779  0.00  0.00    +0.035 C 
ATOM     18  C   UNL     1      -2.454  -3.369   6.602  0.00  0.00    +0.012 C 
ATOM     19  C   UNL     1       0.643  -2.368   3.227  0.00  0.00    +0.015 C 
ENDROOT
BRANCH   1  21
ATOM     20  C   UNL     1       0.603   0.033  -1.030  0.00  0.00    +0.008 C 
ATOM     21  C   UNL     1      -0.261  -0.206   0.209  0.00  0.00    -0.010 C 
BRANCH  21  22
ATOM     22  C   UNL     1      -1.666  -0.632  -0.223  0.00  0.00    +0.015 C 
BRANCH  22  23
ATOM     23  C   UNL     1      -2.145   0.270  -1.361  0.00  0.00    +0.125 C 
BRANCH  23  24
ATOM     24  C   UNL     1      -3.517  -0.167  -1.806  0.00  0.00    +0.356 C 
ATOM     25  O   UNL     1      -4.061  -1.113  -1.262  0.00  0.00    -0.246 OA
ATOM     26  O   UNL     1      -4.082   0.425  -2.709  0.00  0.00    -0.246 OA
ENDBRANCH  23  24
ENDBRANCH  22  23
ENDBRANCH  21  22
ENDBRANCH   1  21
BRANCH  16  27
ATOM     27  O   UNL     1      -6.618  -2.073   5.209  0.00  0.00    -0.392 OA
ATOM     28  H   UNL     1      -7.107  -1.280   5.467  0.00  0.00    +0.210 HD
ENDBRANCH  16  27
BRANCH   6  29
ATOM     29  O   UNL     1      -1.651   0.519   2.414  0.00  0.00    -0.457 OA
BRANCH  29  30
ATOM     30  C   UNL     1      -1.562   1.827   2.724  0.00  0.00    +0.339 C 
ATOM     31  O   UNL     1      -0.752   2.202   3.547  0.00  0.00    -0.245 OA
BRANCH  30  32
ATOM     32  C   UNL     1      -2.449   2.805   2.061  0.00  0.00    +0.059 A 
ATOM     33  C   UNL     1      -3.401   2.373   1.135  0.00  0.00    +0.015 A 
ATOM     34  C   UNL     1      -4.226   3.292   0.519  0.00  0.00    +0.001 A 
ATOM     35  C   UNL     1      -4.112   4.638   0.818  0.00  0.00    +0.000 A 
ATOM     36  C   UNL     1      -3.170   5.072   1.734  0.00  0.00    +0.001 A 
ATOM     37  C   UNL     1      -2.343   4.164   2.362  0.00  0.00    +0.015 A 
ENDBRANCH  30  32
ENDBRANCH  29  30
ENDBRANCH   6  29
TORSDOF 8
