REMARK  Name = ZINC08790430
REMARK  5 active torsions:
REMARK  status: ('A' for Active; 'I' for Inactive)
REMARK    1  A    between atoms: C_2  and  C_3
REMARK    2  A    between atoms: C_3  and  N_4
REMARK    3  A    between atoms: C_5  and  C_7
REMARK    4  A    between atoms: C_12  and  N_13
REMARK    5  A    between atoms: C_29  and  C_34
REMARK                            x       y       z     vdW  Elec       q    Type
REMARK                         _______ _______ _______ _____ _____    ______ ____
ROOT
ATOM      1  N   UNL     1       1.459  -5.923   0.449  0.00  0.00    -0.192 N 
ATOM      2  C   UNL     1       2.192  -5.053  -0.275  0.00  0.00    +0.248 C 
ATOM      3  O   UNL     1       3.368  -5.145  -0.557  0.00  0.00    -0.273 OA
ATOM      4  C   UNL     1       1.244  -3.938  -0.666  0.00  0.00    +0.170 C 
ATOM      5  C   UNL     1       1.716  -2.618  -0.045  0.00  0.00    +0.069 C 
ATOM      6  C   UNL     1       0.537  -1.694   0.121  0.00  0.00    -0.015 A 
ATOM      7  C   UNL     1       0.563  -0.253   0.297  0.00  0.00    +0.003 A 
ATOM      8  C   UNL     1       1.609   0.672   0.356  0.00  0.00    +0.010 A 
ATOM      9  C   UNL     1       1.263   1.989   0.535  0.00  0.00    +0.001 A 
ATOM     10  C   UNL     1      -0.057   2.393   0.654  0.00  0.00    +0.002 A 
ATOM     11  C   UNL     1      -1.111   1.498   0.600  0.00  0.00    +0.026 A 
ATOM     12  C   UNL     1      -0.790   0.154   0.419  0.00  0.00    +0.047 A 
ATOM     13  N   UNL     1      -1.561  -0.968   0.323  0.00  0.00    -0.356 N 
ATOM     14  H   UNL     1      -2.530  -0.986   0.376  0.00  0.00    +0.166 HD
ATOM     15  C   UNL     1      -0.761  -2.064   0.142  0.00  0.00    +0.046 A 
ATOM     16  C   UNL     1      -1.228  -3.497  -0.018  0.00  0.00    +0.155 C 
ATOM     17  N   UNL     1      -0.018  -4.329  -0.000  0.00  0.00    -0.260 N 
ATOM     18  C   UNL     1       0.192  -5.508   0.589  0.00  0.00    +0.317 C 
ATOM     19  O   UNL     1      -0.665  -6.132   1.182  0.00  0.00    -0.252 OA
ENDROOT
BRANCH   1  25
ATOM     20  C   UNL     1       1.906  -8.299   0.245  0.00  0.00    +0.059 A 
ATOM     21  C   UNL     1       2.409  -9.480   0.795  0.00  0.00    +0.015 A 
ATOM     22  C   UNL     1       2.954  -9.471   2.061  0.00  0.00    +0.001 A 
ATOM     23  C   UNL     1       3.004  -8.296   2.792  0.00  0.00    +0.002 A 
ATOM     24  C   UNL     1       2.515  -7.120   2.259  0.00  0.00    +0.025 A 
ATOM     25  C   UNL     1       1.959  -7.111   0.988  0.00  0.00    +0.058 A 
BRANCH  20  27
ATOM     26  N   UNL     1       1.273  -9.445  -1.821  0.00  0.00    -0.308 N 
ATOM     27  C   UNL     1       1.322  -8.301  -1.110  0.00  0.00    +0.246 C 
ATOM     28  O   UNL     1       0.884  -7.271  -1.585  0.00  0.00    -0.270 OA
ATOM     29  H   UNL     1       1.622 -10.267  -1.442  0.00  0.00    +0.149 HD
BRANCH  26  30
ATOM     30  C   UNL     1       0.693  -9.447  -3.166  0.00  0.00    +0.131 C 
BRANCH  30  32
ATOM     31  C   UNL     1      -0.331 -11.421  -4.175  0.00  0.00    +0.005 C 
ATOM     32  C   UNL     1       0.759 -10.839  -3.740  0.00  0.00    -0.016 C 
ENDBRANCH  30  32
ENDBRANCH  26  30
ENDBRANCH  20  27
ENDBRANCH   1  25
BRANCH  16  33
ATOM     33  C   UNL     1      -1.952  -3.665  -1.329  0.00  0.00    -0.021 A 
ATOM     34  C   UNL     1      -1.264  -3.529  -2.521  0.00  0.00    +0.006 A 
ATOM     35  C   UNL     1      -1.927  -3.688  -3.723  0.00  0.00    +0.000 A 
ATOM     36  C   UNL     1      -3.280  -3.971  -3.734  0.00  0.00    +0.000 A 
ATOM     37  C   UNL     1      -3.969  -4.101  -2.543  0.00  0.00    +0.000 A 
ATOM     38  C   UNL     1      -3.305  -3.948  -1.340  0.00  0.00    +0.006 A 
ENDBRANCH  16  33
TORSDOF 5
