REMARK  Name = ZINC12402319
REMARK  7 active torsions:
REMARK  status: ('A' for Active; 'I' for Inactive)
REMARK    1  A    between atoms: C_1  and  C_2
REMARK    2  A    between atoms: C_2  and  C_33
REMARK    3  A    between atoms: C_6  and  C_22
REMARK    4  A    between atoms: C_8  and  C_20
REMARK    5  A    between atoms: C_9  and  N_19
REMARK    6  A    between atoms: N_10  and  C_11
REMARK    7  A    between atoms: C_25  and  N_27
REMARK                            x       y       z     vdW  Elec       q    Type
REMARK                         _______ _______ _______ _____ _____    ______ ____
ROOT
ATOM      1  C   UNL     1      -4.242  -2.293   2.772  0.00  0.00    +0.011 C 
ATOM      2  C   UNL     1      -3.763  -0.991   3.418  0.00  0.00    -0.023 C 
ATOM      3  C   UNL     1      -3.964   0.171   2.443  0.00  0.00    +0.058 C 
ATOM      4  C   UNL     1      -3.145  -0.066   1.198  0.00  0.00    +0.025 C 
ATOM      5  C   UNL     1      -1.979  -0.745   1.251  0.00  0.00    +0.026 C 
ATOM      6  C   UNL     1      -1.155  -0.969   0.008  0.00  0.00    +0.104 C 
ATOM      7  C   UNL     1      -1.976  -0.760  -1.230  0.00  0.00    +0.077 C 
ATOM      8  C   UNL     1      -3.152  -0.081  -1.187  0.00  0.00    +0.107 C 
ATOM      9  N   UNL     1      -3.614   0.423   0.008  0.00  0.00    -0.257 N 
ATOM     10  C   UNL     1      -1.499  -1.266   2.465  0.00  0.00    +0.162 C 
ATOM     11  O   UNL     1      -0.441  -1.864   2.480  0.00  0.00    -0.292 OA
ATOM     12  C   UNL     1      -2.270  -1.098   3.745  0.00  0.00    +0.086 C 
ATOM     13  C   UNL     1      -4.554  -0.733   4.702  0.00  0.00    +0.011 C 
ENDROOT
BRANCH   9  14
ATOM     14  C   UNL     1      -4.573   1.446   0.006  0.00  0.00    +0.075 A 
ATOM     15  C   UNL     1      -4.172   2.775   0.003  0.00  0.00    +0.029 A 
ATOM     16  C   UNL     1      -5.118   3.781  -0.004  0.00  0.00    +0.040 A 
ATOM     17  C   UNL     1      -6.466   3.466   0.003  0.00  0.00    +0.126 A 
ATOM     18  C   UNL     1      -6.870   2.142   0.011  0.00  0.00    +0.078 A 
ATOM     19  C   UNL     1      -5.927   1.131   0.013  0.00  0.00    +0.148 A 
ATOM     20  F   UNL     1      -6.321  -0.162   0.022  0.00  0.00    -0.203 F 
ATOM     21  F   UNL     1      -7.389   4.453   0.002  0.00  0.00    -0.205 F 
ENDBRANCH   9  14
BRANCH   6  22
ATOM     22  C   UNL     1       0.002  -0.004   0.002  0.00  0.00    +0.005 A 
ATOM     23  C   UNL     1       1.332  -0.266  -0.012  0.00  0.00    +0.014 A 
ATOM     24  C   UNL     1       2.223   0.790  -0.015  0.00  0.00    +0.041 A 
ATOM     25  C   UNL     1       1.742   2.057  -0.004  0.00  0.00    +0.164 A 
ATOM     26  S   UNL     1      -0.022   1.781   0.012  0.00  0.00    -0.068 S 
BRANCH  25  27
ATOM     27  N   UNL     1       2.485   3.337  -0.005  0.00  0.00    +0.063 N 
ATOM     28  O   UNL     1       3.703   3.334  -0.017  0.00  0.00    -0.126 OA
ATOM     29  O   UNL     1       1.879   4.393   0.006  0.00  0.00    -0.126 OA
ENDBRANCH  25  27
ENDBRANCH   6  22
BRANCH   8  30
ATOM     30  N   UNL     1      -3.881   0.103  -2.337  0.00  0.00    -0.345 N 
ATOM     31  H   UNL     1      -4.721   0.588  -2.307  0.00  0.00    +0.144 HD
ATOM     32  H   UNL     1      -3.556  -0.252  -3.179  0.00  0.00    +0.144 HD
ENDBRANCH   8  30
BRANCH   7  33
ATOM     33  C   UNL     1      -1.512  -1.285  -2.479  0.00  0.00    +0.099 C 
ATOM     34  N   UNL     1      -1.145  -1.701  -3.470  0.00  0.00    -0.191 NA
ENDBRANCH   7  33
TORSDOF 5
