REMARK  Name = ZINC39609529
REMARK  11 active torsions:
REMARK  status: ('A' for Active; 'I' for Inactive)
REMARK    1  A    between atoms: C_1  and  C_2
REMARK    2  A    between atoms: C_2  and  O_3
REMARK    3  A    between atoms: O_3  and  C_4
REMARK    4  A    between atoms: C_8  and  C_10
REMARK    5  A    between atoms: C_10  and  C_11
REMARK    6  A    between atoms: C_11  and  N_12
REMARK    7  A    between atoms: C_13  and  C_15
REMARK    8  A    between atoms: C_26  and  C_28
REMARK    9  A    between atoms: C_33  and  S_34
REMARK   10  A    between atoms: S_34  and  C_35
REMARK   11  A    between atoms: C_35  and  C_36
REMARK                            x       y       z     vdW  Elec       q    Type
REMARK                         _______ _______ _______ _____ _____    ______ ____
ROOT
ATOM      1  C   UNL     1       6.479  -5.843   5.746  0.00  0.00    +0.100 C 
ATOM      2  C   UNL     1       5.855  -7.197   6.150  0.00  0.00    +0.121 C 
ATOM      3  N   UNL     1       6.693  -8.213   5.470  0.00  0.00    -0.296 N 
ATOM      4  C   UNL     1       8.076  -7.694   5.594  0.00  0.00    +0.115 C 
ATOM      5  C   UNL     1       7.938  -6.172   5.385  0.00  0.00    -0.004 C 
ATOM      6  C   UNL     1       8.893  -5.423   6.309  0.00  0.00    -0.010 C 
ATOM      7  C   UNL     1      10.336  -5.721   5.894  0.00  0.00    -0.082 C 
ATOM      8  N   UNL     1      10.543  -5.303   4.502  0.00  0.00    +0.379 N 
ATOM      9  C   UNL     1       9.687  -6.095   3.610  0.00  0.00    -0.082 C 
ATOM     10  C   UNL     1       8.216  -5.813   3.928  0.00  0.00    -0.010 C 
ATOM     11  C   UNL     1       6.289  -9.353   4.875  0.00  0.00    +0.249 C 
ATOM     12  O   UNL     1       5.102  -9.597   4.771  0.00  0.00    -0.270 OA
ATOM     13  H   UNL     1      10.312  -4.326   4.407  0.00  0.00    -0.086 HD
ATOM     14  H   UNL     1      11.510  -5.444   4.250  0.00  0.00    -0.086 HD
ENDROOT
BRANCH  11  15
ATOM     15  C   UNL     1       7.286 -10.304   4.351  0.00  0.00    +0.069 A 
ATOM     16  C   UNL     1       8.506 -10.492   5.009  0.00  0.00    +0.017 A 
ATOM     17  C   UNL     1       9.408 -11.396   4.476  0.00  0.00    +0.020 A 
ATOM     18  C   UNL     1       9.083 -12.083   3.319  0.00  0.00    +0.112 A 
ATOM     19  N   UNL     1       7.928 -11.892   2.713  0.00  0.00    -0.248 NA
ATOM     20  C   UNL     1       7.025 -11.043   3.183  0.00  0.00    +0.109 A 
BRANCH  20  21
ATOM     21  S   UNL     1       5.495 -10.833   2.336  0.00  0.00    -0.105 S 
BRANCH  21  22
ATOM     22  C   UNL     1       5.614 -11.967   0.925  0.00  0.00    +0.072 C 
ATOM     23  C   UNL     1       4.333 -11.883   0.094  0.00  0.00    +0.015 C 
ENDBRANCH  21  22
ENDBRANCH  20  21
ENDBRANCH  11  15
BRANCH   1  25
ATOM     24  N   UNL     1       5.676  -3.934   4.394  0.00  0.00    -0.315 N 
ATOM     25  C   UNL     1       5.760  -5.269   4.552  0.00  0.00    +0.218 C 
ATOM     26  O   UNL     1       5.257  -6.010   3.734  0.00  0.00    -0.275 OA
ATOM     27  H   UNL     1       6.079  -3.341   5.048  0.00  0.00    +0.149 HD
BRANCH  24  28
ATOM     28  C   UNL     1       4.977  -3.376   3.233  0.00  0.00    +0.109 C 
BRANCH  28  29
ATOM     29  C   UNL     1       5.027  -1.848   3.294  0.00  0.00    +0.054 C 
BRANCH  29  34
ATOM     30  C   UNL     1       4.339  -0.492  -0.166  0.00  0.00    +0.121 A 
ATOM     31  C   UNL     1       2.981  -0.220  -0.088  0.00  0.00    +0.045 A 
ATOM     32  C   UNL     1       2.292  -0.475   1.081  0.00  0.00    +0.004 A 
ATOM     33  C   UNL     1       2.955  -1.002   2.174  0.00  0.00    +0.004 A 
ATOM     34  C   UNL     1       4.308  -1.274   2.100  0.00  0.00    -0.042 A 
ATOM     35  C   UNL     1       5.001  -1.026   0.931  0.00  0.00    +0.049 A 
BRANCH  30  36
ATOM     36  O   UNL     1       5.019  -0.243  -1.315  0.00  0.00    -0.492 OA
BRANCH  36  38
ATOM     37  C   UNL     1       5.202   0.518  -3.602  0.00  0.00    +0.048 C 
ATOM     38  C   UNL     1       4.274   0.307  -2.404  0.00  0.00    +0.225 C 
ENDBRANCH  36  38
ENDBRANCH  30  36
ENDBRANCH  29  34
ENDBRANCH  28  29
ENDBRANCH  24  28
ENDBRANCH   1  25
TORSDOF 9
