REMARK  Name = ZINC09712693
REMARK  8 active torsions:
REMARK  status: ('A' for Active; 'I' for Inactive)
REMARK    1  A    between atoms: C_1  and  S_2
REMARK    2  A    between atoms: S_2  and  C_5
REMARK    3  A    between atoms: C_10  and  C_11
REMARK    4  A    between atoms: C_11  and  N_13
REMARK    5  A    between atoms: N_15  and  C_27
REMARK    6  A    between atoms: C_19  and  S_23
REMARK    7  A    between atoms: S_23  and  N_26
REMARK    8  A    between atoms: C_27  and  C_28
REMARK                            x       y       z     vdW  Elec       q    Type
REMARK                         _______ _______ _______ _____ _____    ______ ____
ROOT
ATOM      1  N   UNL     1      -1.862   4.544   0.043  0.00  0.00    -0.152 NA
ATOM      2  C   UNL     1      -0.936   3.591   0.029  0.00  0.00    +0.167 A 
ATOM      3  N   UNL     1      -1.113   2.242   0.019  0.00  0.00    -0.317 N 
ATOM      4  C   UNL     1      -0.017   1.400   0.010  0.00  0.00    +0.058 A 
ATOM      5  C   UNL     1       0.002  -0.004   0.002  0.00  0.00    +0.029 A 
ATOM      6  C   UNL     1       1.193  -0.691  -0.013  0.00  0.00    +0.030 A 
ATOM      7  C   UNL     1       2.406  -0.024  -0.021  0.00  0.00    +0.106 A 
ATOM      8  C   UNL     1       2.417   1.360  -0.014  0.00  0.00    +0.045 A 
ATOM      9  C   UNL     1       1.227   2.048   0.001  0.00  0.00    +0.041 A 
ATOM     10  S   UNL     1       0.789   3.768   0.014  0.00  0.00    -0.052 S 
ENDROOT
BRANCH   7  11
ATOM     11  S   UNL     1       3.920  -0.926  -0.040  0.00  0.00    +0.056 S 
ATOM     12  O   UNL     1       4.912  -0.067   0.506  0.00  0.00    -0.153 OA
ATOM     13  O   UNL     1       3.635  -2.206   0.508  0.00  0.00    -0.153 OA
BRANCH  11  14
ATOM     14  N   UNL     1       4.325  -1.170  -1.627  0.00  0.00    -0.204 NA
ATOM     15  H   UNL     1       3.752  -0.829  -2.332  0.00  0.00    +0.144 HD
ATOM     16  H   UNL     1       5.135  -1.653  -1.852  0.00  0.00    +0.144 HD
ENDBRANCH  11  14
ENDBRANCH   7  11
BRANCH   1  17
ATOM     17  C   UNL     1      -1.497   5.830   0.046  0.00  0.00    +0.271 C 
ATOM     18  O   UNL     1      -0.316   6.129   0.037  0.00  0.00    -0.268 OA
BRANCH  17  24
ATOM     19  C   UNL     1      -2.153   8.235   0.071  0.00  0.00    +0.100 A 
ATOM     20  C   UNL     1      -3.119   9.220   0.081  0.00  0.00    +0.028 A 
ATOM     21  C   UNL     1      -4.460   8.877   0.091  0.00  0.00    +0.002 A 
ATOM     22  C   UNL     1      -4.840   7.547   0.086  0.00  0.00    +0.001 A 
ATOM     23  C   UNL     1      -3.883   6.553   0.072  0.00  0.00    +0.015 A 
ATOM     24  C   UNL     1      -2.530   6.892   0.061  0.00  0.00    +0.064 A 
BRANCH  19  26
ATOM     25  C   UNL     1       0.199   8.057   1.644  0.00  0.00    +0.200 C 
ATOM     26  S   UNL     1      -0.446   8.673   0.065  0.00  0.00    -0.005 S 
ATOM     27  O   UNL     1       0.113   7.935  -1.013  0.00  0.00    -0.170 OA
ATOM     28  O   UNL     1      -0.436  10.094   0.052  0.00  0.00    -0.170 OA
ENDBRANCH  19  26
ENDBRANCH  17  24
ENDBRANCH   1  17
BRANCH   3  29
ATOM     29  C   UNL     1      -2.466   1.682   0.023  0.00  0.00    +0.151 C 
BRANCH  29  30
ATOM     30  C   UNL     1      -3.398   2.624   0.742  0.00  0.00    -0.013 C 
ATOM     31  C   UNL     1      -4.479   3.059   0.145  0.00  0.00    +0.005 C 
ENDBRANCH  29  30
ENDBRANCH   3  29
TORSDOF 7
