REMARK  Name = ZINC49611723
REMARK  8 active torsions:
REMARK  status: ('A' for Active; 'I' for Inactive)
REMARK    1  A    between atoms: C_4  and  N_7
REMARK    2  A    between atoms: C_8  and  C_29
REMARK    3  A    between atoms: C_11  and  S_12
REMARK    4  A    between atoms: S_12  and  C_13
REMARK    5  A    between atoms: C_13  and  C_14
REMARK    6  A    between atoms: C_14  and  N_16
REMARK    7  A    between atoms: C_19  and  C_22
REMARK    8  A    between atoms: C_29  and  N_30
REMARK                            x       y       z     vdW  Elec       q    Type
REMARK                         _______ _______ _______ _____ _____    ______ ____
ROOT
ATOM      1  N   UNL     1       3.624  -0.653  -0.036  0.00  0.00    -0.276 N 
ATOM      2  C   UNL     1       4.115  -1.449  -1.037  0.00  0.00    +0.122 A 
ATOM      3  N   UNL     1       5.279  -1.886  -0.648  0.00  0.00    -0.135 NA
ATOM      4  N   UNL     1       5.558  -1.426   0.519  0.00  0.00    -0.122 NA
ATOM      5  C   UNL     1       4.580  -0.658   0.942  0.00  0.00    +0.197 A 
ENDROOT
BRANCH   1   9
ATOM      6  C   UNL     1      -0.017   1.379   0.010  0.00  0.00    +0.000 A 
ATOM      7  C   UNL     1       1.170   2.089   0.002  0.00  0.00    +0.002 A 
ATOM      8  C   UNL     1       2.377   1.419  -0.013  0.00  0.00    +0.026 A 
ATOM      9  C   UNL     1       2.399   0.031  -0.021  0.00  0.00    +0.050 A 
ATOM     10  C   UNL     1       1.207  -0.680  -0.013  0.00  0.00    +0.026 A 
ATOM     11  C   UNL     1       0.002  -0.004   0.002  0.00  0.00    +0.002 A 
ENDBRANCH   1   9
BRANCH   5  12
ATOM     12  S   UNL     1       4.512   0.200   2.479  0.00  0.00    -0.076 S 
BRANCH  12  13
ATOM     13  C   UNL     1       6.076  -0.229   3.291  0.00  0.00    +0.175 C 
BRANCH  13  14
ATOM     14  C   UNL     1       6.147   0.449   4.635  0.00  0.00    +0.249 C 
ATOM     15  O   UNL     1       5.229   1.155   5.010  0.00  0.00    -0.273 OA
BRANCH  14  16
ATOM     16  N   UNL     1       7.210   0.276   5.410  0.00  0.00    -0.156 NA
ATOM     17  C   UNL     1       7.273   0.877   6.600  0.00  0.00    +0.163 A 
ATOM     18  N   UNL     1       8.274   0.822   7.519  0.00  0.00    -0.335 N 
ATOM     19  C   UNL     1       8.136   1.520   8.686  0.00  0.00    +0.055 A 
ATOM     20  C   UNL     1       6.994   2.226   8.843  0.00  0.00    +0.074 A 
ATOM     21  S   UNL     1       6.136   1.887   7.317  0.00  0.00    -0.060 S 
ATOM     22  H   UNL     1       9.071   0.297   7.349  0.00  0.00    +0.168 HD
BRANCH  19  23
ATOM     23  C   UNL     1       9.187   1.503   9.727  0.00  0.00    -0.001 A 
ATOM     24  C   UNL     1      10.356   0.768   9.530  0.00  0.00    +0.013 A 
ATOM     25  C   UNL     1      11.333   0.756  10.504  0.00  0.00    +0.039 A 
ATOM     26  C   UNL     1      11.154   1.472  11.677  0.00  0.00    +0.123 A 
ATOM     27  C   UNL     1       9.995   2.204  11.878  0.00  0.00    +0.039 A 
ATOM     28  C   UNL     1       9.014   2.227  10.908  0.00  0.00    +0.013 A 
ATOM     29  F   UNL     1      12.114   1.457  12.627  0.00  0.00    -0.205 F 
ENDBRANCH  19  23
ENDBRANCH  14  16
ENDBRANCH  13  14
ENDBRANCH  12  13
ENDBRANCH   5  12
BRANCH   2  30
ATOM     30  C   UNL     1       3.434  -1.762  -2.345  0.00  0.00    -0.001 C 
BRANCH  30  31
ATOM     31  N   UNL     1       3.819  -0.762  -3.349  0.00  0.00    +0.384 N 
ATOM     32  C   UNL     1       5.254  -0.917  -3.703  0.00  0.00    -0.078 C 
ATOM     33  C   UNL     1       5.351  -0.239  -5.093  0.00  0.00    -0.020 C 
ATOM     34  C   UNL     1       4.018  -0.637  -5.766  0.00  0.00    -0.020 C 
ATOM     35  C   UNL     1       3.068  -0.983  -4.604  0.00  0.00    -0.078 C 
ATOM     36  H   UNL     1       3.645   0.169  -2.999  0.00  0.00    -0.081 HD
ENDBRANCH  30  31
ENDBRANCH   2  30
TORSDOF 8
