REMARK  Name = ZINC59170646
REMARK  7 active torsions:
REMARK  status: ('A' for Active; 'I' for Inactive)
REMARK    1  A    between atoms: C_1  and  C_2
REMARK    2  A    between atoms: C_2  and  C_3
REMARK    3  A    between atoms: C_8  and  N_9
REMARK    4  A    between atoms: C_10  and  C_12
REMARK    5  A    between atoms: N_26  and  C_27
REMARK    6  A    between atoms: C_30  and  S_33
REMARK    7  A    between atoms: S_33  and  N_36
REMARK                            x       y       z     vdW  Elec       q    Type
REMARK                         _______ _______ _______ _____ _____    ______ ____
ROOT
ATOM      1  C   UNL     1       4.896  -0.287   1.144  0.00  0.00    +0.098 A 
ATOM      2  C   UNL     1       6.284  -0.384   1.141  0.00  0.00    +0.030 A 
ATOM      3  C   UNL     1       6.973  -0.101   2.339  0.00  0.00    +0.026 A 
ATOM      4  C   UNL     1       8.431   0.030   2.353  0.00  0.00    -0.007 A 
ATOM      5  C   UNL     1       9.193  -0.138   1.194  0.00  0.00    +0.009 A 
ATOM      6  C   UNL     1      10.550  -0.006   1.252  0.00  0.00    +0.001 A 
ATOM      7  C   UNL     1      11.187   0.293   2.452  0.00  0.00    +0.001 A 
ATOM      8  C   UNL     1      10.473   0.464   3.601  0.00  0.00    +0.008 A 
ATOM      9  C   UNL     1       9.075   0.336   3.576  0.00  0.00    -0.017 A 
ATOM     10  C   UNL     1       8.304   0.507   4.743  0.00  0.00    +0.012 A 
ATOM     11  C   UNL     1       6.954   0.372   4.717  0.00  0.00    +0.047 A 
ATOM     12  C   UNL     1       6.268   0.065   3.539  0.00  0.00    +0.138 A 
ATOM     13  O   UNL     1       4.923  -0.098   3.560  0.00  0.00    -0.439 OA
ATOM     14  C   UNL     1       4.256   0.146   2.401  0.00  0.00    +0.212 A 
ATOM     15  N   UNL     1       3.082   0.742   2.398  0.00  0.00    -0.325 N 
ATOM     16  H   UNL     1       2.676   1.010   1.558  0.00  0.00    +0.169 HD
ENDROOT
BRANCH  15  17
ATOM     17  C   UNL     1       2.434   0.983   3.578  0.00  0.00    +0.042 A 
ATOM     18  C   UNL     1       2.367  -0.011   4.557  0.00  0.00    +0.027 A 
ATOM     19  C   UNL     1       1.713   0.239   5.745  0.00  0.00    +0.030 A 
ATOM     20  C   UNL     1       1.124   1.471   5.968  0.00  0.00    +0.105 A 
ATOM     21  C   UNL     1       1.186   2.460   5.003  0.00  0.00    +0.030 A 
ATOM     22  C   UNL     1       1.842   2.226   3.812  0.00  0.00    +0.027 A 
BRANCH  20  23
ATOM     23  S   UNL     1       0.290   1.782   7.489  0.00  0.00    +0.056 S 
ATOM     24  O   UNL     1      -0.645   2.821   7.235  0.00  0.00    -0.153 OA
ATOM     25  O   UNL     1      -0.099   0.516   8.005  0.00  0.00    -0.153 OA
BRANCH  23  26
ATOM     26  N   UNL     1       1.408   2.399   8.543  0.00  0.00    -0.204 NA
ATOM     27  H   UNL     1       1.131   3.019   9.236  0.00  0.00    +0.144 HD
ATOM     28  H   UNL     1       2.340   2.141   8.468  0.00  0.00    +0.144 HD
ENDBRANCH  23  26
ENDBRANCH  20  23
ENDBRANCH  15  17
BRANCH   1  30
ATOM     29  N   UNL     1       2.757  -0.604   0.011  0.00  0.00    -0.281 N 
ATOM     30  C   UNL     1       4.103  -0.596  -0.056  0.00  0.00    +0.253 C 
ATOM     31  O   UNL     1       4.662  -0.845  -1.107  0.00  0.00    -0.270 OA
ATOM     32  H   UNL     1       2.310  -0.360   0.836  0.00  0.00    +0.155 HD
BRANCH  29  38
ATOM     33  C   UNL     1       0.695  -1.402  -0.960  0.00  0.00    -0.026 A 
ATOM     34  C   UNL     1      -0.049  -1.751  -2.071  0.00  0.00    +0.005 A 
ATOM     35  C   UNL     1       0.511  -1.670  -3.332  0.00  0.00    +0.000 A 
ATOM     36  C   UNL     1       1.817  -1.239  -3.486  0.00  0.00    +0.002 A 
ATOM     37  C   UNL     1       2.565  -0.888  -2.380  0.00  0.00    +0.023 A 
ATOM     38  C   UNL     1       2.003  -0.963  -1.112  0.00  0.00    +0.037 A 
BRANCH  33  40
ATOM     39  C   UNL     1      -0.483  -0.126   0.810  0.00  0.00    +0.009 C 
ATOM     40  C   UNL     1       0.084  -1.491   0.415  0.00  0.00    +0.033 C 
ENDBRANCH  33  40
ENDBRANCH  29  38
ENDBRANCH   1  30
TORSDOF 6
