REMARK  Name = ZINC38971920
REMARK  4 active torsions:
REMARK  status: ('A' for Active; 'I' for Inactive)
REMARK    1  A    between atoms: C_5  and  C_7
REMARK    2  A    between atoms: N_13  and  N_14
REMARK    3  A    between atoms: C_15  and  C_16
REMARK    4  A    between atoms: C_21  and  O_22
REMARK                            x       y       z     vdW  Elec       q    Type
REMARK                         _______ _______ _______ _____ _____    ______ ____
ROOT
ATOM      1  C   UNL     1       1.254  -2.305   0.051  0.00  0.00    +0.280 C 
ATOM      2  N   UNL     1       2.403  -2.639  -0.805  0.00  0.00    -0.188 NA
ATOM      3  N   UNL     1       1.970  -3.082  -1.873  0.00  0.00    -0.219 N 
ATOM      4  C   UNL     1       0.612  -3.124  -1.929  0.00  0.00    +0.174 C 
ATOM      5  S   UNL     1      -0.297  -3.684  -3.267  0.00  0.00    -0.015 S 
ATOM      6  N   UNL     1       0.082  -2.660  -0.772  0.00  0.00    -0.171 N 
ATOM      7  H   UNL     1       2.543  -3.371  -2.600  0.00  0.00    +0.176 HD
ENDROOT
BRANCH   1  12
ATOM      8  C   UNL     1       0.046   1.180   0.825  0.00  0.00    +0.003 A 
ATOM      9  C   UNL     1       1.268   1.822   0.961  0.00  0.00    +0.017 A 
ATOM     10  C   UNL     1       2.432   1.096   0.796  0.00  0.00    +0.083 A 
ATOM     11  N   UNL     1       2.390  -0.191   0.512  0.00  0.00    -0.361 N 
ATOM     12  C   UNL     1       1.247  -0.834   0.376  0.00  0.00    +0.062 A 
ATOM     13  C   UNL     1       0.042  -0.174   0.527  0.00  0.00    +0.025 A 
ATOM     14  H   UNL     1       3.222  -0.677   0.401  0.00  0.00    +0.165 HD
ENDBRANCH   1  12
BRANCH   6  15
ATOM     15  N   UNL     1      -1.272  -2.542  -0.431  0.00  0.00    -0.183 NA
ATOM     16  C   UNL     1      -2.185  -3.004  -1.231  0.00  0.00    +0.142 C 
BRANCH  16  17
ATOM     17  C   UNL     1      -3.607  -2.736  -0.958  0.00  0.00    +0.037 A 
ATOM     18  C   UNL     1      -4.593  -3.236  -1.812  0.00  0.00    +0.028 A 
ATOM     19  C   UNL     1      -5.924  -2.981  -1.550  0.00  0.00    +0.019 A 
ATOM     20  C   UNL     1      -6.286  -2.232  -0.442  0.00  0.00    +0.019 A 
ATOM     21  C   UNL     1      -5.320  -1.732   0.410  0.00  0.00    +0.047 A 
ATOM     22  C   UNL     1      -3.980  -1.982   0.164  0.00  0.00    +0.126 A 
ATOM     23 BR   UNL     1      -7.258  -3.658  -2.707  0.00  0.00    -0.050 Br
BRANCH  22  24
ATOM     24  O   UNL     1      -3.030  -1.496   1.005  0.00  0.00    -0.506 OA
ATOM     25  H   UNL     1      -2.708  -0.616   0.767  0.00  0.00    +0.292 HD
ENDBRANCH  22  24
ENDBRANCH  16  17
ENDBRANCH   6  15
TORSDOF 4
