REMARK  Name = ZINC09506833
REMARK  8 active torsions:
REMARK  status: ('A' for Active; 'I' for Inactive)
REMARK    1  A    between atoms: C_1  and  C_2
REMARK    2  A    between atoms: N_13  and  C_28
REMARK    3  A    between atoms: C_14  and  S_16
REMARK    4  A    between atoms: S_16  and  C_17
REMARK    5  A    between atoms: C_17  and  C_19
REMARK    6  A    between atoms: C_17  and  C_22
REMARK    7  A    between atoms: C_19  and  C_20
REMARK    8  A    between atoms: C_19  and  C_21
REMARK                            x       y       z     vdW  Elec       q    Type
REMARK                         _______ _______ _______ _____ _____    ______ ____
ROOT
ATOM      1  C   UNL     1       1.780   3.569   0.305  0.00  0.00    +0.008 C 
ATOM      2  C   UNL     1       1.704   2.067   0.027  0.00  0.00    -0.009 C 
ATOM      3  C   UNL     1       0.238   1.625  -0.021  0.00  0.00    +0.008 C 
ATOM      4  C   UNL     1       0.156   0.099  -0.050  0.00  0.00    +0.037 C 
ATOM      5  C   UNL     1       1.035  -0.423  -1.183  0.00  0.00    -0.023 A 
ATOM      6  C   UNL     1       2.000   0.358  -1.720  0.00  0.00    -0.004 A 
ATOM      7  S   UNL     1       2.756  -0.636  -2.982  0.00  0.00    -0.073 S 
ATOM      8  C   UNL     1       1.780  -2.094  -2.788  0.00  0.00    +0.117 A 
ATOM      9  C   UNL     1       0.891  -1.758  -1.741  0.00  0.00    +0.076 A 
ATOM     10  C   UNL     1      -0.054  -2.757  -1.338  0.00  0.00    +0.268 A 
ATOM     11  O   UNL     1      -0.861  -2.562  -0.446  0.00  0.00    -0.267 OA
ATOM     12  N   UNL     1       0.004  -3.931  -2.010  0.00  0.00    -0.253 N 
ATOM     13  C   UNL     1       0.899  -4.169  -3.011  0.00  0.00    +0.178 A 
ATOM     14  N   UNL     1       1.786  -3.267  -3.408  0.00  0.00    -0.215 NA
ATOM     15  C   UNL     1       2.354   1.760  -1.330  0.00  0.00    +0.046 C 
ENDROOT
BRANCH  12  16
ATOM     16  C   UNL     1      -0.896  -4.947  -1.660  0.00  0.00    +0.087 A 
ATOM     17  C   UNL     1      -0.553  -5.876  -0.687  0.00  0.00    +0.029 A 
ATOM     18  C   UNL     1      -1.444  -6.874  -0.342  0.00  0.00    +0.002 A 
ATOM     19  C   UNL     1      -2.672  -6.955  -0.971  0.00  0.00    +0.003 A 
ATOM     20  C   UNL     1      -3.017  -6.036  -1.944  0.00  0.00    +0.040 A 
ATOM     21  C   UNL     1      -2.132  -5.031  -2.292  0.00  0.00    +0.147 A 
ATOM     22  F   UNL     1      -2.467  -4.133  -3.243  0.00  0.00    -0.203 F 
ENDBRANCH  12  16
BRANCH  13  23
ATOM     23  S   UNL     1       0.875  -5.740  -3.809  0.00  0.00    -0.074 S 
BRANCH  23  24
ATOM     24  C   UNL     1       2.150  -5.473  -5.066  0.00  0.00    +0.143 C 
BRANCH  24  25
ATOM     25  C   UNL     1       3.496  -5.351  -4.398  0.00  0.00    +0.234 C 
ATOM     26  O   UNL     1       3.684  -5.862  -3.315  0.00  0.00    -0.274 OA
ATOM     27  N   UNL     1       4.490  -4.673  -5.005  0.00  0.00    -0.239 N 
ATOM     28  C   UNL     1       5.694  -4.564  -4.408  0.00  0.00    +0.303 C 
ATOM     29  O   UNL     1       5.882  -5.077  -3.322  0.00  0.00    -0.253 OA
ATOM     30  N   UNL     1       6.688  -3.887  -5.015  0.00  0.00    -0.313 N 
ATOM     31  H   UNL     1       4.340  -4.265  -5.872  0.00  0.00    +0.159 HD
ATOM     32  H   UNL     1       6.538  -3.478  -5.882  0.00  0.00    +0.146 HD
ATOM     33  H   UNL     1       7.554  -3.808  -4.585  0.00  0.00    +0.146 HD
ENDBRANCH  24  25
BRANCH  24  34
ATOM     34  C   UNL     1       2.167  -6.657  -6.035  0.00  0.00    +0.005 C 
ATOM     35  C   UNL     1       0.800  -6.784  -6.710  0.00  0.00    +0.009 C 
ATOM     36  C   UNL     1       3.242  -6.429  -7.099  0.00  0.00    +0.009 C 
ENDBRANCH  24  34
ENDBRANCH  23  24
ENDBRANCH  13  23
TORSDOF 5
