REMARK  Name = ZINC62531850
REMARK  6 active torsions:
REMARK  status: ('A' for Active; 'I' for Inactive)
REMARK    1  A    between atoms: C_1  and  C_2
REMARK    2  A    between atoms: C_2  and  C_3
REMARK    3  A    between atoms: C_9  and  C_18
REMARK    4  A    between atoms: C_10  and  C_17
REMARK    5  A    between atoms: C_11  and  N_16
REMARK    6  A    between atoms: C_12  and  C_15
REMARK                            x       y       z     vdW  Elec       q    Type
REMARK                         _______ _______ _______ _____ _____    ______ ____
ROOT
ATOM      1  C   UNL     1       0.742  -0.511   1.242  0.00  0.00    +0.259 C 
ATOM      2  C   UNL     1       0.654  -2.015   1.298  0.00  0.00    +0.258 C 
ATOM      3  O   UNL     1      -0.237  -2.550   1.923  0.00  0.00    -0.271 OA
ATOM      4  N   UNL     1       1.571  -2.764   0.650  0.00  0.00    -0.279 N 
ATOM      5  C   UNL     1       2.665  -2.130   0.039  0.00  0.00    +0.079 A 
ATOM      6  C   UNL     1       3.494  -2.832  -0.821  0.00  0.00    -0.021 A 
ATOM      7  C   UNL     1       4.560  -2.193  -1.427  0.00  0.00    -0.025 A 
ATOM      8  C   UNL     1       4.800  -0.848  -1.176  0.00  0.00    +0.034 A 
ATOM      9  C   UNL     1       3.973  -0.143  -0.311  0.00  0.00    +0.014 A 
ATOM     10  C   UNL     1       2.910  -0.783   0.301  0.00  0.00    +0.148 A 
ATOM     11  O   UNL     1       2.113  -0.112   1.173  0.00  0.00    -0.477 OA
ATOM     12  C   UNL     1       4.234   1.316  -0.039  0.00  0.00    +0.049 C 
ATOM     13  C   UNL     1       5.462  -2.957  -2.361  0.00  0.00    +0.046 C 
ATOM     14  C   UNL     1       3.235  -4.291  -1.095  0.00  0.00    +0.046 C 
ATOM     15  H   UNL     1       1.476  -3.728   0.607  0.00  0.00    +0.155 HD
ENDROOT
BRANCH   8  16
ATOM     16  N   UNL     1       5.876  -0.203  -1.795  0.00  0.00    -0.357 N 
ATOM     17  H   UNL     1       6.454  -0.696  -2.399  0.00  0.00    +0.142 HD
ATOM     18  H   UNL     1       6.044   0.736  -1.620  0.00  0.00    +0.142 HD
ENDBRANCH   8  16
BRANCH   1  20
ATOM     19  C   UNL     1      -0.019   1.526   0.010  0.00  0.00    +0.008 C 
ATOM     20  C   UNL     1       0.002  -0.004   0.002  0.00  0.00    +0.051 C 
ENDBRANCH   1  20
TORSDOF 2
