REMARK  Name = ZINC02865919
REMARK  10 active torsions:
REMARK  status: ('A' for Active; 'I' for Inactive)
REMARK    1  A    between atoms: C_1  and  C_2
REMARK    2  A    between atoms: C_2  and  O_3
REMARK    3  A    between atoms: O_3  and  C_4
REMARK    4  A    between atoms: C_7  and  C_13
REMARK    5  A    between atoms: C_9  and  N_10
REMARK    6  A    between atoms: N_15  and  C_16
REMARK    7  A    between atoms: C_16  and  N_18
REMARK    8  A    between atoms: N_18  and  C_19
REMARK    9  A    between atoms: C_19  and  C_20
REMARK   10  A    between atoms: C_23  and  C_26
REMARK                            x       y       z     vdW  Elec       q    Type
REMARK                         _______ _______ _______ _____ _____    ______ ____
ROOT
ATOM      1  C   UNL     1       1.254  -6.255  -0.041  0.00  0.00    +0.137 C 
ATOM      2  S   UNL     1      -0.217  -7.131  -0.031  0.00  0.00    -0.018 S 
ENDROOT
BRANCH   1   5
ATOM      3  C   UNL     1       0.060  -4.250  -0.019  0.00  0.00    +0.250 C 
ATOM      4  O   UNL     1      -0.985  -4.872  -0.012  0.00  0.00    -0.270 OA
ATOM      5  N   UNL     1       1.236  -4.907  -0.034  0.00  0.00    -0.264 N 
ATOM      6  H   UNL     1       2.069  -4.411  -0.040  0.00  0.00    +0.157 HD
BRANCH   3  10
ATOM      7  C   UNL     1       0.002  -0.004   0.002  0.00  0.00    +0.151 A 
ATOM      8  C   UNL     1       1.216  -0.681  -0.013  0.00  0.00    +0.049 A 
ATOM      9  C   UNL     1       1.240  -2.057  -0.020  0.00  0.00    +0.017 A 
ATOM     10  C   UNL     1       0.040  -2.775  -0.012  0.00  0.00    +0.039 A 
ATOM     11  C   UNL     1      -1.179  -2.090   0.003  0.00  0.00    +0.049 A 
ATOM     12  C   UNL     1      -1.193  -0.713   0.015  0.00  0.00    +0.168 A 
BRANCH  12  13
ATOM     13  N   UNL     1      -2.483   0.012   0.037  0.00  0.00    +0.060 N 
ATOM     14  O   UNL     1      -3.531  -0.609   0.049  0.00  0.00    -0.126 OA
ATOM     15  O   UNL     1      -2.497   1.230   0.044  0.00  0.00    -0.126 OA
ENDBRANCH  12  13
BRANCH   7  16
ATOM     16  O   UNL     1      -0.016   1.353   0.009  0.00  0.00    -0.490 OA
BRANCH  16  18
ATOM     17  C   UNL     1       1.027   3.533   0.011  0.00  0.00    +0.048 C 
ATOM     18  C   UNL     1       1.248   2.019   0.001  0.00  0.00    +0.226 C 
ENDBRANCH  16  18
ENDBRANCH   7  16
ENDBRANCH   3  10
ENDBRANCH   1   5
BRANCH   1  19
ATOM     19  N   UNL     1       2.430  -6.913  -0.056  0.00  0.00    -0.322 N 
ATOM     20  H   UNL     1       3.264  -6.417  -0.062  0.00  0.00    +0.148 HD
BRANCH  19  21
ATOM     21  C   UNL     1       2.450  -8.378  -0.064  0.00  0.00    +0.138 C 
BRANCH  21  22
ATOM     22  C   UNL     1       3.878  -8.861  -0.080  0.00  0.00    -0.030 A 
ATOM     23  C   UNL     1       4.516  -9.081  -1.287  0.00  0.00    +0.006 A 
ATOM     24  C   UNL     1       5.825  -9.518  -1.309  0.00  0.00    +0.011 A 
ATOM     25  C   UNL     1       6.500  -9.748  -0.110  0.00  0.00    +0.007 A 
ATOM     26  C   UNL     1       5.849  -9.530   1.104  0.00  0.00    +0.011 A 
ATOM     27  C   UNL     1       4.542  -9.088   1.113  0.00  0.00    +0.006 A 
BRANCH  25  28
ATOM     28  C   UNL     1       7.901 -10.223  -0.126  0.00  0.00    +0.109 A 
ATOM     29  N   UNL     1       8.694 -10.487   0.889  0.00  0.00    -0.239 NA
ATOM     30  C   UNL     1       9.959 -10.921   0.726  0.00  0.00    +0.079 A 
ATOM     31  C   UNL     1      10.908 -11.245   1.726  0.00  0.00    +0.029 A 
ATOM     32  C   UNL     1      12.156 -11.667   1.391  0.00  0.00    +0.002 A 
ATOM     33  C   UNL     1      12.550 -11.798   0.066  0.00  0.00    +0.001 A 
ATOM     34  C   UNL     1      11.654 -11.492  -0.941  0.00  0.00    +0.017 A 
ATOM     35  C   UNL     1      10.391 -11.065  -0.614  0.00  0.00    +0.040 A 
ATOM     36  S   UNL     1       8.950 -10.575  -1.530  0.00  0.00    -0.067 S 
ENDBRANCH  25  28
ENDBRANCH  21  22
ENDBRANCH  19  21
ENDBRANCH   1  19
TORSDOF 9
