REMARK  Name = ZINC23991010
REMARK  7 active torsions:
REMARK  status: ('A' for Active; 'I' for Inactive)
REMARK    1  A    between atoms: C_1  and  C_2
REMARK    2  A    between atoms: C_2  and  C_4
REMARK    3  A    between atoms: C_2  and  N_15
REMARK    4  A    between atoms: N_6  and  C_7
REMARK    5  A    between atoms: N_11  and  C_12
REMARK    6  A    between atoms: C_12  and  C_13
REMARK    7  A    between atoms: C_12  and  C_14
REMARK                            x       y       z     vdW  Elec       q    Type
REMARK                         _______ _______ _______ _____ _____    ______ ____
ROOT
ATOM      1  C   UNL     1      -0.036   1.504  -0.256  0.00  0.00    +0.038 C 
ATOM      2  C   UNL     1       0.002  -0.004   0.002  0.00  0.00    +0.157 C 
ENDROOT
BRANCH   2   3
ATOM      3  N   UNL     1      -1.366  -0.512   0.133  0.00  0.00    -0.318 N 
ATOM      4  C   UNL     1      -2.357  -0.269  -0.925  0.00  0.00    +0.106 C 
ATOM      5  C   UNL     1      -3.666   0.162  -0.251  0.00  0.00    +0.024 C 
ATOM      6  C   UNL     1      -4.177  -0.989   0.616  0.00  0.00    +0.038 C 
ATOM      7  C   UNL     1      -3.089  -1.481   1.533  0.00  0.00    -0.026 A 
ATOM      8  C   UNL     1      -1.749  -1.240   1.264  0.00  0.00    +0.034 A 
ATOM      9  C   UNL     1      -0.768  -1.718   2.126  0.00  0.00    +0.023 A 
ATOM     10  C   UNL     1      -1.125  -2.437   3.249  0.00  0.00    +0.002 A 
ATOM     11  C   UNL     1      -2.460  -2.680   3.517  0.00  0.00    +0.000 A 
ATOM     12  C   UNL     1      -3.440  -2.197   2.665  0.00  0.00    +0.005 A 
ENDBRANCH   2   3
BRANCH   2  13
ATOM     13  C   UNL     1       0.686  -0.694  -1.150  0.00  0.00    +0.238 C 
ATOM     14  O   UNL     1       0.089  -1.528  -1.798  0.00  0.00    -0.273 OA
ATOM     15  N   UNL     1       1.960  -0.385  -1.460  0.00  0.00    -0.269 N 
ATOM     16  H   UNL     1       2.438   0.282  -0.942  0.00  0.00    +0.156 HD
BRANCH  15  17
ATOM     17  C   UNL     1       2.594  -1.023  -2.526  0.00  0.00    +0.123 A 
ATOM     18  C   UNL     1       2.045  -1.968  -3.338  0.00  0.00    +0.065 A 
ATOM     19  C   UNL     1       3.013  -2.343  -4.273  0.00  0.00    +0.136 A 
ATOM     20  N   UNL     1       4.101  -1.655  -4.038  0.00  0.00    -0.178 NA
ATOM     21  N   UNL     1       3.862  -0.811  -2.946  0.00  0.00    -0.248 N 
BRANCH  21  22
ATOM     22  C   UNL     1       4.818   0.131  -2.359  0.00  0.00    +0.103 C 
ATOM     23  C   UNL     1       6.050  -0.631  -1.867  0.00  0.00    +0.032 C 
ATOM     24  C   UNL     1       5.239   1.154  -3.416  0.00  0.00    +0.032 C 
ENDBRANCH  21  22
ENDBRANCH  15  17
ENDBRANCH   2  13
TORSDOF 4
