REMARK  Name = ZINC16686655
REMARK  7 active torsions:
REMARK  status: ('A' for Active; 'I' for Inactive)
REMARK    1  A    between atoms: C_1  and  C_2
REMARK    2  A    between atoms: C_5  and  C_9
REMARK    3  A    between atoms: C_7  and  C_8
REMARK    4  A    between atoms: N_16  and  C_19
REMARK    5  A    between atoms: C_19  and  C_20
REMARK    6  A    between atoms: N_22  and  C_23
REMARK    7  A    between atoms: C_24  and  C_28
REMARK                            x       y       z     vdW  Elec       q    Type
REMARK                         _______ _______ _______ _____ _____    ______ ____
ROOT
ATOM      1  C   UNL     1       0.146   5.267   0.028  0.00  0.00    +0.004 A 
ATOM      2  C   UNL     1       1.410   5.755   0.018  0.00  0.00    +0.056 A 
ATOM      3  S   UNL     1       2.420   4.286   0.001  0.00  0.00    -0.076 S 
ATOM      4  C   UNL     1       1.135   3.063   0.007  0.00  0.00    +0.116 A 
ATOM      5  C   UNL     1      -0.047   3.822   0.022  0.00  0.00    +0.080 A 
ATOM      6  C   UNL     1      -1.266   3.071   0.030  0.00  0.00    +0.263 A 
ATOM      7  O   UNL     1      -2.344   3.641   0.042  0.00  0.00    -0.267 OA
ATOM      8  N   UNL     1      -1.204   1.727   0.017  0.00  0.00    -0.290 N 
ATOM      9  C   UNL     1      -0.013   1.076   0.008  0.00  0.00    +0.203 A 
ATOM     10  N   UNL     1       1.116   1.733   0.001  0.00  0.00    -0.230 NA
ENDROOT
BRANCH   1  15
ATOM     11  C   UNL     1      -4.375   8.832   0.087  0.00  0.00    +0.044 C 
ATOM     12  C   UNL     1      -3.191   7.899   0.072  0.00  0.00    -0.048 A 
ATOM     13  C   UNL     1      -3.136   6.872  -0.853  0.00  0.00    +0.004 A 
ATOM     14  C   UNL     1      -2.053   6.017  -0.875  0.00  0.00    +0.009 A 
ATOM     15  C   UNL     1      -1.018   6.185   0.043  0.00  0.00    -0.016 A 
ATOM     16  C   UNL     1      -1.078   7.222   0.972  0.00  0.00    +0.012 A 
ATOM     17  C   UNL     1      -2.164   8.074   0.982  0.00  0.00    -0.047 A 
ATOM     18  C   UNL     1      -2.232   9.196   1.985  0.00  0.00    +0.044 C 
ENDBRANCH   1  15
BRANCH   8  19
ATOM     19  C   UNL     1      -2.446   0.951   0.019  0.00  0.00    +0.222 C 
BRANCH  19  20
ATOM     20  C   UNL     1      -2.866   0.677   1.440  0.00  0.00    +0.237 C 
ATOM     21  O   UNL     1      -2.193   1.089   2.361  0.00  0.00    -0.273 OA
ATOM     22  N   UNL     1      -3.988  -0.026   1.688  0.00  0.00    -0.278 N 
ATOM     23  H   UNL     1      -4.526  -0.356   0.952  0.00  0.00    +0.155 HD
BRANCH  22  24
ATOM     24  C   UNL     1      -4.374  -0.279   2.996  0.00  0.00    +0.084 A 
ATOM     25  C   UNL     1      -5.490  -0.973   3.448  0.00  0.00    +0.065 A 
ATOM     26  C   UNL     1      -5.646  -1.089   4.879  0.00  0.00    +0.022 A 
ATOM     27  C   UNL     1      -4.708  -0.508   5.648  0.00  0.00    +0.048 A 
ATOM     28  S   UNL     1      -3.586   0.202   4.461  0.00  0.00    -0.081 S 
BRANCH  25  29
ATOM     29  C   UNL     1      -6.459  -1.562   2.518  0.00  0.00    +0.244 C 
ATOM     30  O   UNL     1      -6.296  -1.448   1.318  0.00  0.00    -0.270 OA
ATOM     31  N   UNL     1      -7.529  -2.228   2.994  0.00  0.00    -0.325 N 
ATOM     32  H   UNL     1      -7.659  -2.318   3.951  0.00  0.00    +0.145 HD
ATOM     33  H   UNL     1      -8.170  -2.618   2.378  0.00  0.00    +0.145 HD
ENDBRANCH  25  29
ENDBRANCH  22  24
ENDBRANCH  19  20
ENDBRANCH   8  19
TORSDOF 5
