REMARK  Name = ZINC20181125
REMARK  5 active torsions:
REMARK  status: ('A' for Active; 'I' for Inactive)
REMARK    1  A    between atoms: C_1  and  C_2
REMARK    2  A    between atoms: C_5  and  C_32
REMARK    3  A    between atoms: C_10  and  C_12
REMARK    4  A    between atoms: C_12  and  N_13
REMARK    5  A    between atoms: C_22  and  C_23
REMARK                            x       y       z     vdW  Elec       q    Type
REMARK                         _______ _______ _______ _____ _____    ______ ____
ROOT
ATOM      1  N   UNL     1       1.340   3.375   0.232  0.00  0.00    -0.257 N 
ATOM      2  C   UNL     1       0.416   4.140  -0.469  0.00  0.00    +0.051 A 
ATOM      3  C   UNL     1       0.849   5.321  -1.070  0.00  0.00    +0.024 A 
ATOM      4  C   UNL     1      -0.034   6.110  -1.777  0.00  0.00    +0.002 A 
ATOM      5  C   UNL     1      -1.361   5.742  -1.900  0.00  0.00    +0.001 A 
ATOM      6  C   UNL     1      -1.808   4.575  -1.310  0.00  0.00    +0.017 A 
ATOM      7  C   UNL     1      -0.926   3.778  -0.598  0.00  0.00    +0.034 A 
ATOM      8  S   UNL     1      -1.498   2.288   0.153  0.00  0.00    -0.082 S 
ATOM      9  C   UNL     1      -0.005   1.332   0.226  0.00  0.00    +0.076 C 
ATOM     10  C   UNL     1       0.002  -0.004   0.002  0.00  0.00    +0.028 C 
ATOM     11  C   UNL     1       1.233   2.080   0.541  0.00  0.00    +0.258 C 
ATOM     12  O   UNL     1       2.160   1.511   1.085  0.00  0.00    -0.269 OA
ENDROOT
BRANCH  10  13
ATOM     13  C   UNL     1       1.280  -0.721  -0.125  0.00  0.00    -0.022 A 
ATOM     14  C   UNL     1       2.374  -0.105  -0.742  0.00  0.00    +0.008 A 
ATOM     15  C   UNL     1       3.568  -0.784  -0.858  0.00  0.00    +0.002 A 
ATOM     16  C   UNL     1       3.687  -2.072  -0.366  0.00  0.00    +0.020 A 
ATOM     17  C   UNL     1       2.609  -2.689   0.247  0.00  0.00    +0.042 A 
ATOM     18  C   UNL     1       1.409  -2.021   0.376  0.00  0.00    +0.028 A 
ATOM     19 CL   UNL     1       2.771  -4.305   0.862  0.00  0.00    -0.084 Cl
ENDBRANCH  10  13
BRANCH   1  20
ATOM     20  C   UNL     1       2.557   4.059   0.676  0.00  0.00    +0.209 C 
BRANCH  20  28
ATOM     21  C   UNL     1       6.818   5.465   2.873  0.00  0.00    +0.009 C 
ATOM     22  C   UNL     1       6.409   4.641   1.650  0.00  0.00    +0.004 C 
ATOM     23  C   UNL     1       7.530   4.682   0.609  0.00  0.00    +0.009 C 
ATOM     24  C   UNL     1       7.136   3.831  -0.601  0.00  0.00    +0.004 C 
ATOM     25  C   UNL     1       5.866   4.408  -1.234  0.00  0.00    +0.111 C 
ATOM     26  N   UNL     1       4.826   4.507  -0.202  0.00  0.00    -0.300 N 
ATOM     27  C   UNL     1       5.129   5.232   1.040  0.00  0.00    +0.111 C 
ATOM     28  C   UNL     1       3.614   3.948  -0.392  0.00  0.00    +0.233 C 
ATOM     29  O   UNL     1       3.374   3.357  -1.424  0.00  0.00    -0.274 OA
ATOM     30  C   UNL     1       8.271   3.845  -1.627  0.00  0.00    +0.009 C 
ENDBRANCH  20  28
ENDBRANCH   1  20
TORSDOF 3
