REMARK  Name = ZINC03321808
REMARK  12 active torsions:
REMARK  status: ('A' for Active; 'I' for Inactive)
REMARK    1  A    between atoms: C_1  and  C_2
REMARK    2  A    between atoms: C_7  and  N_8
REMARK    3  A    between atoms: C_9  and  C_28
REMARK    4  A    between atoms: C_12  and  S_13
REMARK    5  A    between atoms: S_13  and  C_14
REMARK    6  A    between atoms: C_14  and  C_15
REMARK    7  A    between atoms: C_21  and  C_27
REMARK    8  A    between atoms: C_22  and  C_26
REMARK    9  A    between atoms: C_31  and  C_34
REMARK   10  A    between atoms: C_34  and  C_35
REMARK   11  A    between atoms: C_34  and  C_36
REMARK   12  A    between atoms: C_34  and  C_37
REMARK                            x       y       z     vdW  Elec       q    Type
REMARK                         _______ _______ _______ _____ _____    ______ ____
ROOT
ATOM      1  N   UNL     1       3.717   1.614   0.256  0.00  0.00    -0.270 N 
ATOM      2  C   UNL     1       2.478   1.075  -0.016  0.00  0.00    +0.169 A 
ATOM      3  N   UNL     1       2.664  -0.193  -0.299  0.00  0.00    -0.128 NA
ATOM      4  N   UNL     1       3.913  -0.484  -0.219  0.00  0.00    -0.122 NA
ATOM      5  C   UNL     1       4.605   0.581   0.121  0.00  0.00    +0.197 A 
ENDROOT
BRANCH   1  12
ATOM      6  C   UNL     1       4.292   3.456  -1.836  0.00  0.00    +0.046 C 
ATOM      7  C   UNL     1       4.293   3.871  -0.387  0.00  0.00    -0.026 A 
ATOM      8  C   UNL     1       4.573   5.179  -0.043  0.00  0.00    +0.005 A 
ATOM      9  C   UNL     1       4.580   5.559   1.287  0.00  0.00    +0.000 A 
ATOM     10  C   UNL     1       4.300   4.633   2.275  0.00  0.00    +0.002 A 
ATOM     11  C   UNL     1       4.014   3.325   1.937  0.00  0.00    +0.026 A 
ATOM     12  C   UNL     1       4.007   2.941   0.603  0.00  0.00    +0.053 A 
ENDBRANCH   1  12
BRANCH   2  13
ATOM     13  C   UNL     1       1.186   1.792   0.000  0.00  0.00    +0.020 A 
ATOM     14  C   UNL     1      -0.013   1.076   0.008  0.00  0.00    +0.012 A 
ATOM     15  C   UNL     1      -1.216   1.751   0.017  0.00  0.00    +0.005 A 
ATOM     16  C   UNL     1      -1.236   3.134   0.031  0.00  0.00    -0.042 A 
ATOM     17  C   UNL     1      -0.052   3.850   0.023  0.00  0.00    +0.005 A 
ATOM     18  C   UNL     1       1.158   3.187   0.008  0.00  0.00    +0.012 A 
BRANCH  16  19
ATOM     19  C   UNL     1      -2.554   3.865   0.048  0.00  0.00    -0.013 C 
ATOM     20  C   UNL     1      -2.663   4.749  -1.196  0.00  0.00    +0.015 C 
ATOM     21  C   UNL     1      -3.699   2.850   0.054  0.00  0.00    +0.015 C 
ATOM     22  C   UNL     1      -2.638   4.737   1.302  0.00  0.00    +0.015 C 
ENDBRANCH  16  19
ENDBRANCH   2  13
BRANCH   5  23
ATOM     23  S   UNL     1       6.349   0.665   0.351  0.00  0.00    -0.078 S 
BRANCH  23  24
ATOM     24  C   UNL     1       6.797  -1.051  -0.007  0.00  0.00    +0.151 C 
BRANCH  24  25
ATOM     25  C   UNL     1       8.288  -1.221   0.132  0.00  0.00    +0.121 A 
ATOM     26  N   UNL     1       8.844  -2.441  -0.088  0.00  0.00    -0.310 N 
ATOM     27  H   UNL     1       8.273  -3.186  -0.332  0.00  0.00    +0.170 HD
ATOM     28  C   UNL     1      10.171  -2.635   0.019  0.00  0.00    +0.260 A 
ATOM     29  O   UNL     1      10.655  -3.734  -0.187  0.00  0.00    -0.267 OA
ATOM     30  C   UNL     1      11.006  -1.529   0.385  0.00  0.00    +0.075 A 
ATOM     31  C   UNL     1      12.445  -1.484   0.569  0.00  0.00    -0.026 A 
ATOM     32  C   UNL     1      13.025  -0.324   0.918  0.00  0.00    -0.008 A 
ATOM     33  S   UNL     1      11.652   0.808   1.024  0.00  0.00    -0.073 S 
ATOM     34  C   UNL     1      10.341  -0.309   0.598  0.00  0.00    +0.116 A 
ATOM     35  N   UNL     1       9.022  -0.194   0.467  0.00  0.00    -0.226 NA
ATOM     36  C   UNL     1      14.486  -0.046   1.161  0.00  0.00    +0.052 C 
ATOM     37  C   UNL     1      13.278  -2.724   0.372  0.00  0.00    +0.045 C 
ENDBRANCH  24  25
ENDBRANCH  23  24
ENDBRANCH   5  23
TORSDOF 6
