REMARK  Name = ZINC63146573
REMARK  6 active torsions:
REMARK  status: ('A' for Active; 'I' for Inactive)
REMARK    1  A    between atoms: C_1  and  C_2
REMARK    2  A    between atoms: C_4  and  N_21
REMARK    3  A    between atoms: C_7  and  C_8
REMARK    4  A    between atoms: N_12  and  C_13
REMARK    5  A    between atoms: C_13  and  C_14
REMARK    6  A    between atoms: C_17  and  C_20
REMARK                            x       y       z     vdW  Elec       q    Type
REMARK                         _______ _______ _______ _____ _____    ______ ____
ROOT
ATOM      1  C   UNL     1       0.018   0.148   2.663  0.00  0.00    +0.182 A 
ATOM      2  N   UNL     1       0.068   1.436   2.930  0.00  0.00    -0.108 NA
ATOM      3  N   UNL     1       0.026   1.634   4.199  0.00  0.00    -0.023 NA
ATOM      4  N   UNL     1      -0.053   0.511   4.826  0.00  0.00    -0.044 NA
ATOM      5  N   UNL     1      -0.066  -0.501   3.851  0.00  0.00    -0.225 N 
ENDROOT
BRANCH   1  12
ATOM      6  C   UNL     1       2.045   0.940   0.761  0.00  0.00    +0.044 C 
ATOM      7  C   UNL     1       1.017  -0.099   0.395  0.00  0.00    -0.038 A 
ATOM      8  C   UNL     1       1.040  -0.683  -0.853  0.00  0.00    +0.026 A 
ATOM      9  C   UNL     1       0.091  -1.641  -1.191  0.00  0.00    +0.025 A 
ATOM     10  C   UNL     1      -0.884  -2.013  -0.272  0.00  0.00    +0.023 A 
ATOM     11  C   UNL     1      -0.912  -1.433   0.977  0.00  0.00    +0.014 A 
ATOM     12  C   UNL     1       0.042  -0.474   1.321  0.00  0.00    +0.024 A 
BRANCH   9  13
ATOM     13  N   UNL     1       0.117  -2.230  -2.455  0.00  0.00    -0.358 N 
ATOM     14  H   UNL     1       0.797  -1.972  -3.097  0.00  0.00    +0.142 HD
ATOM     15  H   UNL     1      -0.544  -2.899  -2.692  0.00  0.00    +0.142 HD
ENDBRANCH   9  13
ENDBRANCH   1  12
BRANCH   5  16
ATOM     16  C   UNL     1      -0.151  -1.948   4.071  0.00  0.00    +0.151 C 
BRANCH  16  17
ATOM     17  C   UNL     1       1.246  -2.502   4.360  0.00  0.00    +0.011 C 
ATOM     18  C   UNL     1       2.127  -2.334   3.121  0.00  0.00    +0.005 C 
ATOM     19  C   UNL     1       3.524  -2.889   3.410  0.00  0.00    +0.003 C 
ATOM     20  C   UNL     1       3.420  -4.373   3.765  0.00  0.00    -0.014 C 
ATOM     21  C   UNL     1       2.538  -4.541   5.004  0.00  0.00    +0.003 C 
ATOM     22  C   UNL     1       1.141  -3.986   4.715  0.00  0.00    +0.005 C 
ATOM     23  C   UNL     1       2.801  -5.136   2.592  0.00  0.00    +0.007 C 
ENDBRANCH  16  17
ENDBRANCH   5  16
TORSDOF 4
