REMARK  Name = ZINC08062640
REMARK  15 active torsions:
REMARK  status: ('A' for Active; 'I' for Inactive)
REMARK    1  A    between atoms: C_1  and  C_2
REMARK    2  A    between atoms: C_2  and  C_3
REMARK    3  A    between atoms: C_2  and  C_4
REMARK    4  A    between atoms: C_7  and  C_10
REMARK    5  A    between atoms: C_10  and  C_12
REMARK    6  A    between atoms: C_10  and  N_15
REMARK    7  A    between atoms: C_12  and  C_13
REMARK    8  A    between atoms: C_12  and  C_14
REMARK    9  A    between atoms: C_16  and  C_18
REMARK   10  A    between atoms: C_20  and  O_28
REMARK   11  A    between atoms: C_21  and  O_26
REMARK   12  A    between atoms: C_22  and  O_24
REMARK   13  A    between atoms: O_24  and  C_25
REMARK   14  A    between atoms: O_26  and  C_27
REMARK   15  A    between atoms: O_28  and  C_29
REMARK                            x       y       z     vdW  Elec       q    Type
REMARK                         _______ _______ _______ _____ _____    ______ ____
ROOT
ATOM      1  N   UNL     1      -0.011   0.966   0.007  0.00  0.00    -0.304 N 
ATOM      2  C   UNL     1       1.147   1.655   0.000  0.00  0.00    +0.245 C 
ATOM      3  O   UNL     1       1.130   2.871   0.007  0.00  0.00    -0.270 OA
ATOM      4  H   UNL     1       0.002  -0.004   0.002  0.00  0.00    +0.150 HD
ENDROOT
BRANCH   2   5
ATOM      5  C   UNL     1       2.435   0.935  -0.016  0.00  0.00    +0.044 A 
ATOM      6  C   UNL     1       2.455  -0.462  -0.018  0.00  0.00    +0.062 A 
ATOM      7  C   UNL     1       3.663  -1.134  -0.038  0.00  0.00    +0.166 A 
ATOM      8  C   UNL     1       4.859  -0.421  -0.045  0.00  0.00    +0.204 A 
ATOM      9  C   UNL     1       4.841   0.972  -0.038  0.00  0.00    +0.166 A 
ATOM     10  C   UNL     1       3.636   1.649  -0.024  0.00  0.00    +0.062 A 
BRANCH   9  11
ATOM     11  O   UNL     1       6.010   1.666  -0.046  0.00  0.00    -0.491 OA
ATOM     12  C   UNL     1       5.918   3.092  -0.038  0.00  0.00    +0.277 C 
ENDBRANCH   9  11
BRANCH   8  13
ATOM     13  O   UNL     1       6.044  -1.084  -0.059  0.00  0.00    -0.488 OA
ATOM     14  C   UNL     1       6.622  -1.407   1.207  0.00  0.00    +0.277 C 
ENDBRANCH   8  13
BRANCH   7  15
ATOM     15  O   UNL     1       3.683  -2.494  -0.045  0.00  0.00    -0.491 OA
ATOM     16  C   UNL     1       2.420  -3.162  -0.037  0.00  0.00    +0.277 C 
ENDBRANCH   7  15
ENDBRANCH   2   5
BRANCH   1  17
ATOM     17  C   UNL     1      -1.290   1.681   0.017  0.00  0.00    +0.106 C 
BRANCH  17  21
ATOM     18  C   UNL     1      -4.307  -0.819   1.720  0.00  0.00    -0.045 A 
ATOM     19  C   UNL     1      -4.276   0.530   2.020  0.00  0.00    +0.004 A 
ATOM     20  C   UNL     1      -3.300   1.339   1.469  0.00  0.00    +0.006 A 
ATOM     21  C   UNL     1      -2.354   0.799   0.618  0.00  0.00    -0.027 A 
ATOM     22  C   UNL     1      -2.387  -0.549   0.314  0.00  0.00    +0.006 A 
ATOM     23  C   UNL     1      -3.361  -1.359   0.868  0.00  0.00    +0.004 A 
BRANCH  18  25
ATOM     24  C   UNL     1      -6.200  -2.333   1.200  0.00  0.00    +0.012 C 
ATOM     25  C   UNL     1      -5.371  -1.700   2.320  0.00  0.00    +0.013 C 
ATOM     26  C   UNL     1      -4.712  -2.802   3.152  0.00  0.00    +0.012 C 
ENDBRANCH  18  25
ENDBRANCH  17  21
BRANCH  17  27
ATOM     27  C   UNL     1      -1.680   2.047  -1.416  0.00  0.00    +0.008 C 
ATOM     28  C   UNL     1      -3.015   2.794  -1.405  0.00  0.00    +0.009 C 
ATOM     29  C   UNL     1      -0.600   2.943  -2.026  0.00  0.00    +0.009 C 
ENDBRANCH  17  27
ENDBRANCH   1  17
TORSDOF 8
