REMARK  Name = ZINC59385495
REMARK  6 active torsions:
REMARK  status: ('A' for Active; 'I' for Inactive)
REMARK    1  A    between atoms: C_1  and  C_2
REMARK    2  A    between atoms: C_3  and  C_17
REMARK    3  A    between atoms: C_4  and  C_10
REMARK    4  A    between atoms: N_19  and  N_20
REMARK    5  A    between atoms: C_21  and  C_22
REMARK    6  A    between atoms: C_27  and  O_28
REMARK                            x       y       z     vdW  Elec       q    Type
REMARK                         _______ _______ _______ _____ _____    ______ ____
ROOT
ATOM      1  C   UNL     1       0.658   1.364   0.077  0.00  0.00    +0.061 C 
ATOM      2  C   UNL     1       0.361  -0.113   0.043  0.00  0.00    +0.019 C 
ATOM      3  C   UNL     1      -0.920  -0.531  -0.026  0.00  0.00    +0.057 C 
ATOM      4  C   UNL     1      -1.174  -2.024  -0.058  0.00  0.00    +0.142 C 
ATOM      5  N   UNL     1       0.006  -2.903  -0.012  0.00  0.00    -0.288 N 
ATOM      6  C   UNL     1       1.226  -2.335   0.055  0.00  0.00    +0.304 C 
ATOM      7  O   UNL     1       2.207  -3.052   0.093  0.00  0.00    -0.252 OA
ATOM      8  N   UNL     1       1.394  -1.007   0.075  0.00  0.00    -0.273 N 
ATOM      9  H   UNL     1      -0.092  -3.868  -0.029  0.00  0.00    +0.151 HD
ATOM     10  H   UNL     1       2.299  -0.660   0.120  0.00  0.00    +0.156 HD
ENDROOT
BRANCH   4  11
ATOM     11  C   UNL     1      -1.938  -2.338  -1.319  0.00  0.00    -0.022 A 
ATOM     12  C   UNL     1      -1.290  -2.323  -2.540  0.00  0.00    +0.007 A 
ATOM     13  C   UNL     1      -1.990  -2.611  -3.697  0.00  0.00    +0.020 A 
ATOM     14  C   UNL     1      -3.338  -2.915  -3.632  0.00  0.00    +0.041 A 
ATOM     15  C   UNL     1      -3.985  -2.930  -2.410  0.00  0.00    +0.020 A 
ATOM     16  C   UNL     1      -3.284  -2.647  -1.253  0.00  0.00    +0.007 A 
ATOM     17 CL   UNL     1      -4.217  -3.276  -5.085  0.00  0.00    -0.084 Cl
ENDBRANCH   4  11
BRANCH   3  18
ATOM     18  C   UNL     1      -1.992   0.395  -0.065  0.00  0.00    +0.263 C 
ATOM     19  O   UNL     1      -2.656   0.601   0.934  0.00  0.00    -0.269 OA
ATOM     20  N   UNL     1      -2.275   1.049  -1.209  0.00  0.00    -0.203 N 
ATOM     21  H   UNL     1      -1.795   0.832  -2.024  0.00  0.00    +0.178 HD
BRANCH  20  22
ATOM     22  N   UNL     1      -3.264   2.042  -1.222  0.00  0.00    -0.187 NA
ATOM     23  C   UNL     1      -3.537   2.671  -2.324  0.00  0.00    +0.142 C 
BRANCH  23  24
ATOM     24  C   UNL     1      -4.577   3.716  -2.337  0.00  0.00    +0.036 A 
ATOM     25  C   UNL     1      -4.878   4.392  -3.522  0.00  0.00    +0.013 A 
ATOM     26  C   UNL     1      -5.852   5.368  -3.528  0.00  0.00    +0.001 A 
ATOM     27  C   UNL     1      -6.533   5.681  -2.364  0.00  0.00    +0.004 A 
ATOM     28  C   UNL     1      -6.244   5.020  -1.185  0.00  0.00    +0.046 A 
ATOM     29  C   UNL     1      -5.273   4.032  -1.163  0.00  0.00    +0.125 A 
BRANCH  29  30
ATOM     30  O   UNL     1      -4.993   3.377  -0.007  0.00  0.00    -0.506 OA
ATOM     31  H   UNL     1      -4.303   3.796   0.525  0.00  0.00    +0.292 HD
ENDBRANCH  29  30
ENDBRANCH  23  24
ENDBRANCH  20  22
ENDBRANCH   3  18
TORSDOF 5
