REMARK  Name = ZINC12883294
REMARK  7 active torsions:
REMARK  status: ('A' for Active; 'I' for Inactive)
REMARK    1  A    between atoms: C_1  and  C_2
REMARK    2  A    between atoms: C_4  and  C_38
REMARK    3  A    between atoms: C_13  and  C_15
REMARK    4  A    between atoms: C_15  and  C_16
REMARK    5  A    between atoms: N_24  and  C_27
REMARK    6  A    between atoms: C_27  and  C_28
REMARK    7  A    between atoms: C_28  and  C_29
REMARK                            x       y       z     vdW  Elec       q    Type
REMARK                         _______ _______ _______ _____ _____    ______ ____
ROOT
ATOM      1  C   UNL     1       6.883   2.507   1.673  0.00  0.00    +0.044 C 
ATOM      2  C   UNL     1       7.931   1.500   1.273  0.00  0.00    -0.050 A 
ATOM      3  C   UNL     1       9.273   1.803   1.416  0.00  0.00    +0.008 A 
ATOM      4  C   UNL     1      10.236   0.886   1.052  0.00  0.00    -0.029 A 
ATOM      5  C   UNL     1       9.865  -0.354   0.538  0.00  0.00    +0.039 A 
ATOM      6  C   UNL     1       8.511  -0.648   0.398  0.00  0.00    -0.027 A 
ATOM      7  C   UNL     1       7.553   0.271   0.763  0.00  0.00    +0.008 A 
ATOM      8  C   UNL     1       8.450  -2.035  -0.175  0.00  0.00    +0.050 C 
ATOM      9  C   UNL     1       7.716  -2.057  -1.522  0.00  0.00    +0.088 C 
ATOM     10  C   UNL     1       6.957  -3.413  -1.531  0.00  0.00    +0.073 C 
ATOM     11  C   UNL     1       7.313  -4.094  -0.193  0.00  0.00    -0.053 C 
ATOM     12  C   UNL     1       5.503  -2.999  -1.510  0.00  0.00    +0.224 C 
ATOM     13  O   UNL     1       4.558  -3.759  -1.503  0.00  0.00    -0.275 OA
ATOM     14  N   UNL     1       5.421  -1.663  -1.502  0.00  0.00    -0.241 N 
ATOM     15  C   UNL     1       6.602  -1.034  -1.515  0.00  0.00    +0.225 C 
ATOM     16  O   UNL     1       6.755   0.168  -1.518  0.00  0.00    -0.275 OA
ATOM     17  C   UNL     1       9.884  -2.461  -0.325  0.00  0.00    +0.211 C 
ATOM     18  O   UNL     1      10.284  -3.524  -0.753  0.00  0.00    -0.277 OA
ATOM     19  N   UNL     1      10.640  -1.433   0.108  0.00  0.00    -0.286 N 
ATOM     20  C   UNL     1      11.696   1.226   1.212  0.00  0.00    +0.045 C 
ATOM     21  H   UNL     1      11.610  -1.442   0.119  0.00  0.00    +0.155 HD
ATOM     22  N   UNL     1       7.711  -2.958   0.671  0.00  0.00    +0.394 N 
ATOM     23  H   UNL     1       6.879  -2.497   1.057  0.00  0.00    -0.083 HD
ATOM     24  H   UNL     1       8.307  -3.289   1.439  0.00  0.00    -0.083 HD
ENDROOT
BRANCH  11  25
ATOM     25  C   UNL     1       6.098  -4.838   0.366  0.00  0.00    +0.020 C 
BRANCH  25  26
ATOM     26  C   UNL     1       6.499  -5.595   1.605  0.00  0.00    -0.049 A 
ATOM     27  C   UNL     1       6.953  -6.897   1.504  0.00  0.00    +0.003 A 
ATOM     28  C   UNL     1       7.325  -7.590   2.641  0.00  0.00    +0.000 A 
ATOM     29  C   UNL     1       7.234  -6.984   3.880  0.00  0.00    +0.000 A 
ATOM     30  C   UNL     1       6.776  -5.684   3.982  0.00  0.00    +0.000 A 
ATOM     31  C   UNL     1       6.408  -4.990   2.845  0.00  0.00    +0.003 A 
ENDBRANCH  25  26
ENDBRANCH  11  25
BRANCH  14  32
ATOM     32  C   UNL     1       4.142  -0.948  -1.486  0.00  0.00    +0.121 C 
BRANCH  32  33
ATOM     33  C   UNL     1       3.711  -0.707  -0.038  0.00  0.00    +0.054 C 
BRANCH  33  34
ATOM     34  C   UNL     1       2.396   0.029  -0.021  0.00  0.00    -0.046 A 
ATOM     35  C   UNL     1       1.208  -0.679  -0.014  0.00  0.00    +0.004 A 
ATOM     36  C   UNL     1       0.002  -0.004   0.002  0.00  0.00    +0.000 A 
ATOM     37  C   UNL     1      -0.017   1.378   0.010  0.00  0.00    +0.000 A 
ATOM     38  C   UNL     1       1.171   2.086   0.002  0.00  0.00    +0.000 A 
ATOM     39  C   UNL     1       2.377   1.411  -0.014  0.00  0.00    +0.004 A 
ENDBRANCH  33  34
ENDBRANCH  32  33
ENDBRANCH  14  32
TORSDOF 5
