REMARK  Name = ZINC58836745
REMARK  6 active torsions:
REMARK  status: ('A' for Active; 'I' for Inactive)
REMARK    1  A    between atoms: C_9  and  O_33
REMARK    2  A    between atoms: C_10  and  C_11
REMARK    3  A    between atoms: N_12  and  C_13
REMARK    4  A    between atoms: C_17  and  C_22
REMARK    5  A    between atoms: C_22  and  C_23
REMARK    6  A    between atoms: N_25  and  C_26
REMARK                            x       y       z     vdW  Elec       q    Type
REMARK                         _______ _______ _______ _____ _____    ______ ____
ROOT
ATOM      1  C   UNL     1       7.377   0.179  -0.083  0.00  0.00    +0.227 C 
ATOM      2  C   UNL     1       8.106  -0.129   1.181  0.00  0.00    +0.056 C 
ATOM      3  N   UNL     1       7.631   0.098   2.348  0.00  0.00    -0.305 NA
ATOM      4  C   UNL     1       9.466  -0.739   0.933  0.00  0.00    +0.109 C 
ATOM      5  S   UNL     1       9.579  -0.814  -0.891  0.00  0.00    -0.076 S 
ATOM      6  C   UNL     1       8.107  -0.163  -1.350  0.00  0.00    +0.220 C 
ATOM      7  O   UNL     1       7.708  -0.001  -2.484  0.00  0.00    -0.282 OA
ATOM      8  H   UNL     1       6.751   0.492   2.445  0.00  0.00    +0.186 HD
ENDROOT
BRANCH   1  10
ATOM      9  C   UNL     1       4.986   0.095  -0.064  0.00  0.00    +0.118 C 
ATOM     10  N   UNL     1       6.109  -0.553  -0.071  0.00  0.00    -0.273 NA
BRANCH   9  20
ATOM     11  C   UNL     1      -0.010   1.373  -0.028  0.00  0.00    +0.001 A 
ATOM     12  C   UNL     1       1.176   2.103  -0.038  0.00  0.00    +0.001 A 
ATOM     13  C   UNL     1       2.385   1.475  -0.046  0.00  0.00    +0.009 A 
ATOM     14  C   UNL     1       2.438   0.076  -0.045  0.00  0.00    -0.006 A 
ATOM     15  C   UNL     1       1.235  -0.670  -0.034  0.00  0.00    -0.017 A 
ATOM     16  C   UNL     1       0.006   0.011  -0.026  0.00  0.00    +0.008 A 
ATOM     17  C   UNL     1       1.290  -2.076  -0.032  0.00  0.00    +0.012 A 
ATOM     18  C   UNL     1       2.483  -2.725  -0.038  0.00  0.00    +0.046 A 
ATOM     19  C   UNL     1       3.696  -2.035  -0.049  0.00  0.00    +0.126 A 
ATOM     20  C   UNL     1       3.713  -0.639  -0.053  0.00  0.00    +0.042 A 
BRANCH  19  21
ATOM     21  O   UNL     1       4.864  -2.724  -0.055  0.00  0.00    -0.506 OA
ATOM     22  H   UNL     1       5.196  -2.926  -0.940  0.00  0.00    +0.292 HD
ENDBRANCH  19  21
ENDBRANCH   9  20
ENDBRANCH   1  10
BRANCH   4  23
ATOM     23  C   UNL     1      10.568   0.152   1.507  0.00  0.00    +0.116 C 
BRANCH  23  24
ATOM     24  C   UNL     1      11.901  -0.536   1.356  0.00  0.00    +0.219 C 
ATOM     25  O   UNL     1      11.962  -1.631   0.839  0.00  0.00    -0.275 OA
ATOM     26  N   UNL     1      13.024   0.066   1.794  0.00  0.00    -0.285 N 
ATOM     27  H   UNL     1      12.984   0.969   2.146  0.00  0.00    +0.155 HD
BRANCH  26  28
ATOM     28  C   UNL     1      14.247  -0.612   1.742  0.00  0.00    +0.033 A 
ATOM     29  C   UNL     1      15.191  -0.422   2.743  0.00  0.00    +0.024 A 
ATOM     30  C   UNL     1      16.397  -1.093   2.689  0.00  0.00    +0.017 A 
ATOM     31  C   UNL     1      16.666  -1.952   1.639  0.00  0.00    +0.018 A 
ATOM     32  C   UNL     1      15.728  -2.143   0.640  0.00  0.00    +0.017 A 
ATOM     33  C   UNL     1      14.518  -1.479   0.692  0.00  0.00    +0.024 A 
ATOM     34 BR   UNL     1      18.319  -2.868   1.568  0.00  0.00    -0.050 Br
ENDBRANCH  26  28
ENDBRANCH  23  24
ENDBRANCH   4  23
TORSDOF 6
