REMARK  Name = ZINC43509388
REMARK  12 active torsions:
REMARK  status: ('A' for Active; 'I' for Inactive)
REMARK    1  A    between atoms: C_1  and  C_2
REMARK    2  A    between atoms: C_11  and  O_13
REMARK    3  A    between atoms: O_13  and  C_14
REMARK    4  A    between atoms: C_14  and  C_29
REMARK    5  A    between atoms: C_15  and  C_27
REMARK    6  A    between atoms: C_15  and  O_28
REMARK    7  A    between atoms: C_16  and  C_25
REMARK    8  A    between atoms: C_16  and  O_26
REMARK    9  A    between atoms: C_17  and  C_23
REMARK   10  A    between atoms: C_17  and  O_24
REMARK   11  A    between atoms: C_18  and  C_21
REMARK   12  A    between atoms: C_21  and  O_22
REMARK                            x       y       z     vdW  Elec       q    Type
REMARK                         _______ _______ _______ _____ _____    ______ ____
ROOT
ATOM      1  C   UNL     1      -0.051  -2.663   6.098  0.00  0.00    +0.242 C 
ATOM      2  C   UNL     1       0.111  -3.680   7.226  0.00  0.00    +0.159 C 
ATOM      3  C   UNL     1       1.534  -4.227   7.285  0.00  0.00    +0.128 C 
ATOM      4  C   UNL     1       2.608  -3.150   7.164  0.00  0.00    +0.123 C 
ATOM      5  C   UNL     1       2.288  -2.183   6.024  0.00  0.00    +0.182 C 
ATOM      6  O   UNL     1       0.967  -1.667   6.191  0.00  0.00    -0.329 OA
ATOM      7  C   UNL     1       2.796  -2.385   8.471  0.00  0.00    +0.047 C 
ATOM      8  C   UNL     1       1.724  -4.964   8.622  0.00  0.00    +0.047 C 
ATOM      9  C   UNL     1      -0.315  -3.065   8.558  0.00  0.00    +0.051 C 
ATOM     10  C   UNL     1      -1.423  -1.990   6.217  0.00  0.00    +0.092 C 
ENDROOT
BRANCH   4  11
ATOM     11  O   UNL     1       3.856  -3.801   6.850  0.00  0.00    -0.383 OA
ATOM     12  H   UNL     1       4.603  -3.194   6.753  0.00  0.00    +0.210 HD
ENDBRANCH   4  11
BRANCH   3  13
ATOM     13  O   UNL     1       1.712  -5.181   6.226  0.00  0.00    -0.383 OA
ATOM     14  H   UNL     1       2.594  -5.575   6.196  0.00  0.00    +0.210 HD
ENDBRANCH   3  13
BRANCH   2  15
ATOM     15  O   UNL     1      -0.776  -4.785   6.951  0.00  0.00    -0.379 OA
ATOM     16  H   UNL     1      -1.709  -4.536   6.900  0.00  0.00    +0.211 HD
ENDBRANCH   2  15
BRANCH   1  17
ATOM     17  O   UNL     1       0.035  -3.324   4.834  0.00  0.00    -0.458 OA
BRANCH  17  28
ATOM     18  C   UNL     1      -0.164  -0.714  -1.119  0.00  0.00    +0.045 C 
ATOM     19  C   UNL     1      -0.148  -0.115   0.264  0.00  0.00    -0.033 A 
ATOM     20  C   UNL     1      -0.183   1.232   0.441  0.00  0.00    +0.096 A 
ATOM     21  C   UNL     1      -0.168   1.768   1.745  0.00  0.00    +0.337 A 
ATOM     22  O   UNL     1      -0.200   2.977   1.889  0.00  0.00    -0.245 OA
ATOM     23  O   UNL     1      -0.119   0.981   2.831  0.00  0.00    -0.422 OA
ATOM     24  C   UNL     1      -0.082  -0.365   2.724  0.00  0.00    +0.143 A 
ATOM     25  C   UNL     1      -0.100  -0.968   1.453  0.00  0.00    +0.021 A 
ATOM     26  C   UNL     1      -0.067  -2.362   1.338  0.00  0.00    +0.015 A 
ATOM     27  C   UNL     1      -0.022  -3.134   2.463  0.00  0.00    +0.046 A 
ATOM     28  C   UNL     1      -0.009  -2.543   3.725  0.00  0.00    +0.128 A 
ATOM     29  C   UNL     1      -0.031  -1.164   3.856  0.00  0.00    +0.092 A 
ENDBRANCH  17  28
ENDBRANCH   1  17
BRANCH   5  30
ATOM     30  C   UNL     1       3.291  -1.026   6.042  0.00  0.00    +0.190 C 
BRANCH  30  31
ATOM     31  O   UNL     1       3.067  -0.183   4.910  0.00  0.00    -0.392 OA
ATOM     32  H   UNL     1       3.667   0.573   4.858  0.00  0.00    +0.210 HD
ENDBRANCH  30  31
ENDBRANCH   5  30
TORSDOF 7
