REMARK  Name = ZINC21216025
REMARK  4 active torsions:
REMARK  status: ('A' for Active; 'I' for Inactive)
REMARK    1  A    between atoms: C_4  and  C_7
REMARK    2  A    between atoms: C_8  and  N_13
REMARK    3  A    between atoms: N_13  and  C_14
REMARK    4  A    between atoms: C_14  and  C_15
REMARK                            x       y       z     vdW  Elec       q    Type
REMARK                         _______ _______ _______ _____ _____    ______ ____
ROOT
ATOM      1  C   UNL     1       0.002  -0.004   0.002  0.00  0.00    +0.057 C 
ATOM      2  C   UNL     1      -0.987  -0.991   0.006  0.00  0.00    +0.090 C 
ATOM      3  C   UNL     1       0.023  -2.062  -0.010  0.00  0.00    +0.247 C 
ATOM      4  O   UNL     1       0.006  -3.278  -0.017  0.00  0.00    -0.282 OA
ATOM      5  C   UNL     1       1.068  -1.012  -0.020  0.00  0.00    +0.237 C 
ATOM      6  O   UNL     1       2.284  -0.993  -0.039  0.00  0.00    -0.283 OA
ENDROOT
BRANCH   1  10
ATOM      7  C   UNL     1      -0.056   4.240   0.024  0.00  0.00    +0.000 A 
ATOM      8  C   UNL     1       1.154   3.568   0.010  0.00  0.00    +0.001 A 
ATOM      9  C   UNL     1       1.181   2.189   0.003  0.00  0.00    +0.009 A 
ATOM     10  C   UNL     1      -0.018   1.471   0.010  0.00  0.00    -0.012 A 
ATOM     11  C   UNL     1      -1.236   2.156   0.020  0.00  0.00    +0.009 A 
ATOM     12  C   UNL     1      -1.247   3.535   0.032  0.00  0.00    +0.001 A 
ENDBRANCH   1  10
BRANCH   2  13
ATOM     13  N   UNL     1      -2.354  -0.971   0.020  0.00  0.00    -0.336 N 
ATOM     14  H   UNL     1      -3.033  -0.105   0.032  0.00  0.00    +0.147 HD
BRANCH  13  15
ATOM     15  C   UNL     1      -2.901  -2.334   0.018  0.00  0.00    +0.137 C 
BRANCH  15  16
ATOM     16  C   UNL     1      -4.407  -2.271   0.033  0.00  0.00    -0.027 A 
ATOM     17  C   UNL     1      -5.084  -2.255   1.238  0.00  0.00    +0.009 A 
ATOM     18  C   UNL     1      -6.465  -2.192   1.258  0.00  0.00    +0.050 A 
ATOM     19  C   UNL     1      -7.174  -2.156   0.068  0.00  0.00    +0.166 A 
ATOM     20  C   UNL     1      -6.492  -2.178  -1.146  0.00  0.00    +0.167 A 
ATOM     21  C   UNL     1      -5.108  -2.235  -1.158  0.00  0.00    +0.054 A 
ATOM     22  O   UNL     1      -7.405  -2.134  -2.160  0.00  0.00    -0.453 OA
ATOM     23  C   UNL     1      -8.663  -2.498  -1.561  0.00  0.00    +0.466 C 
ATOM     24  O   UNL     1      -8.514  -2.099  -0.185  0.00  0.00    -0.453 OA
ENDBRANCH  15  16
ENDBRANCH  13  15
ENDBRANCH   2  13
TORSDOF 4
