REMARK  Name = ZINC58949573
REMARK  8 active torsions:
REMARK  status: ('A' for Active; 'I' for Inactive)
REMARK    1  A    between atoms: C_1  and  C_2
REMARK    2  A    between atoms: C_4  and  C_24
REMARK    3  A    between atoms: C_5  and  C_9
REMARK    4  A    between atoms: C_6  and  C_8
REMARK    5  A    between atoms: C_11  and  C_21
REMARK    6  A    between atoms: C_12  and  C_20
REMARK    7  A    between atoms: C_14  and  N_19
REMARK    8  A    between atoms: C_15  and  C_16
REMARK                            x       y       z     vdW  Elec       q    Type
REMARK                         _______ _______ _______ _____ _____    ______ ____
ROOT
ATOM      1  C   UNL     1      -1.228  -4.088  -0.074  0.00  0.00    +0.098 C 
ATOM      2  C   UNL     1      -0.389  -4.988   0.791  0.00  0.00    +0.064 C 
ATOM      3  C   UNL     1      -0.685  -5.183   2.081  0.00  0.00    +0.113 C 
ATOM      4  O   UNL     1      -1.739  -4.591   2.666  0.00  0.00    -0.446 OA
ATOM      5  C   UNL     1      -2.732  -4.090   1.909  0.00  0.00    +0.193 C 
ATOM      6  C   UNL     1      -2.552  -3.827   0.592  0.00  0.00    +0.083 C 
ATOM      7  C   UNL     1       0.189  -6.096   2.902  0.00  0.00    +0.087 C 
ENDROOT
BRANCH   1  12
ATOM      8  C   UNL     1       1.539   0.921  -0.874  0.00  0.00    +0.044 C 
ATOM      9  C   UNL     1       0.818  -0.385  -0.666  0.00  0.00    -0.050 A 
ATOM     10  C   UNL     1       0.301  -0.698   0.578  0.00  0.00    +0.007 A 
ATOM     11  C   UNL     1      -0.361  -1.897   0.769  0.00  0.00    -0.046 A 
ATOM     12  C   UNL     1      -0.507  -2.781  -0.283  0.00  0.00    -0.029 A 
ATOM     13  C   UNL     1       0.009  -2.467  -1.527  0.00  0.00    -0.046 A 
ATOM     14  C   UNL     1       0.667  -1.267  -1.719  0.00  0.00    +0.007 A 
ATOM     15  C   UNL     1      -0.151  -3.432  -2.673  0.00  0.00    +0.044 C 
ATOM     16  C   UNL     1      -0.923  -2.239   2.125  0.00  0.00    +0.044 C 
ENDBRANCH   1  12
BRANCH   6  17
ATOM     17  C   UNL     1      -3.617  -3.304  -0.161  0.00  0.00    +0.243 C 
ATOM     18  O   UNL     1      -4.210  -4.014  -0.954  0.00  0.00    -0.271 OA
ATOM     19  N   UNL     1      -3.984  -2.016  -0.005  0.00  0.00    -0.325 N 
ATOM     20  H   UNL     1      -3.468  -1.431   0.572  0.00  0.00    +0.145 HD
ATOM     21  H   UNL     1      -4.763  -1.674  -0.470  0.00  0.00    +0.145 HD
ENDBRANCH   6  17
BRANCH   2  22
ATOM     22  C   UNL     1       0.771  -5.663   0.211  0.00  0.00    +0.242 C 
ATOM     23  O   UNL     1       0.617  -6.655  -0.477  0.00  0.00    -0.271 OA
ATOM     24  N   UNL     1       2.011  -5.186   0.438  0.00  0.00    -0.325 N 
ATOM     25  H   UNL     1       2.140  -4.440   1.045  0.00  0.00    +0.145 HD
ATOM     26  H   UNL     1       2.774  -5.589  -0.005  0.00  0.00    +0.145 HD
ENDBRANCH   2  22
BRANCH   5  27
ATOM     27  N   UNL     1      -3.951  -3.841   2.482  0.00  0.00    -0.329 N 
ATOM     28  H   UNL     1      -4.068  -3.948   3.439  0.00  0.00    +0.145 HD
ATOM     29  H   UNL     1      -4.697  -3.558   1.931  0.00  0.00    +0.145 HD
ENDBRANCH   5  27
TORSDOF 4
