REMARK  Name = ZINC09947280
REMARK  9 active torsions:
REMARK  status: ('A' for Active; 'I' for Inactive)
REMARK    1  A    between atoms: C_1  and  C_2
REMARK    2  A    between atoms: C_7  and  N_12
REMARK    3  A    between atoms: C_9  and  C_11
REMARK    4  A    between atoms: C_13  and  C_15
REMARK    5  A    between atoms: C_15  and  C_17
REMARK    6  A    between atoms: C_15  and  S_18
REMARK    7  A    between atoms: S_18  and  C_19
REMARK    8  A    between atoms: N_32  and  C_33
REMARK    9  A    between atoms: C_33  and  C_34
REMARK                            x       y       z     vdW  Elec       q    Type
REMARK                         _______ _______ _______ _____ _____    ______ ____
ROOT
ATOM      1  C   UNL     1       3.978   2.039  -0.813  0.00  0.00    +0.198 A 
ATOM      2  N   UNL     1       4.009   3.286  -0.409  0.00  0.00    -0.120 NA
ATOM      3  N   UNL     1       5.296   3.785  -0.640  0.00  0.00    -0.109 NA
ATOM      4  C   UNL     1       6.015   2.827  -1.180  0.00  0.00    +0.240 A 
ATOM      5  N   UNL     1       5.218   1.720  -1.296  0.00  0.00    -0.256 N 
ATOM      6  C   UNL     1       5.721   0.539  -1.836  0.00  0.00    +0.064 A 
ATOM      7  C   UNL     1       4.921  -0.587  -1.960  0.00  0.00    +0.027 A 
ATOM      8  C   UNL     1       5.445  -1.746  -2.499  0.00  0.00    +0.002 A 
ATOM      9  C   UNL     1       6.765  -1.795  -2.918  0.00  0.00    +0.001 A 
ATOM     10  C   UNL     1       7.575  -0.685  -2.801  0.00  0.00    +0.015 A 
ATOM     11  C   UNL     1       7.058   0.490  -2.259  0.00  0.00    +0.064 A 
ATOM     12  C   UNL     1       7.891   1.699  -2.118  0.00  0.00    +0.263 A 
ATOM     13  O   UNL     1       9.054   1.694  -2.474  0.00  0.00    -0.267 OA
ATOM     14  N   UNL     1       7.339   2.812  -1.593  0.00  0.00    -0.272 N 
ENDROOT
BRANCH   1  15
ATOM     15  S   UNL     1       2.586   0.961  -0.740  0.00  0.00    -0.073 S 
BRANCH  15  16
ATOM     16  C   UNL     1       1.280   1.980   0.001  0.00  0.00    +0.137 C 
ATOM     17  C   UNL     1       1.668   2.341   1.436  0.00  0.00    +0.029 C 
BRANCH  16  19
ATOM     18  N   UNL     1      -1.191   1.867   0.018  0.00  0.00    -0.311 N 
ATOM     19  C   UNL     1      -0.014   1.209   0.009  0.00  0.00    +0.226 C 
ATOM     20  O   UNL     1       0.002  -0.004   0.002  0.00  0.00    -0.275 OA
ATOM     21  H   UNL     1      -1.204   2.837   0.023  0.00  0.00    +0.149 HD
BRANCH  18  27
ATOM     22  C   UNL     1      -4.698  -0.088   1.461  0.00  0.00    +0.008 C 
ATOM     23  C   UNL     1      -4.868   1.193   0.641  0.00  0.00    -0.009 C 
ATOM     24  C   UNL     1      -5.249   0.832  -0.796  0.00  0.00    +0.003 C 
ATOM     25  C   UNL     1      -4.144  -0.027  -1.415  0.00  0.00    +0.002 C 
ATOM     26  C   UNL     1      -2.830   0.756  -1.417  0.00  0.00    +0.022 C 
ATOM     27  C   UNL     1      -2.449   1.117   0.020  0.00  0.00    +0.076 C 
ATOM     28  C   UNL     1      -3.554   1.976   0.639  0.00  0.00    +0.009 C 
ATOM     29  C   UNL     1      -3.173   2.337   2.076  0.00  0.00    +0.009 C 
ENDBRANCH  18  27
ENDBRANCH  16  19
ENDBRANCH  15  16
ENDBRANCH   1  15
BRANCH  14  30
ATOM     30  C   UNL     1       8.154   4.020  -1.444  0.00  0.00    +0.163 C 
BRANCH  30  31
ATOM     31  C   UNL     1       8.833   4.005  -0.099  0.00  0.00    -0.028 A 
ATOM     32  C   UNL     1       8.211   4.575   0.996  0.00  0.00    +0.005 A 
ATOM     33  C   UNL     1       8.831   4.557   2.231  0.00  0.00    +0.000 A 
ATOM     34  C   UNL     1      10.078   3.978   2.369  0.00  0.00    +0.000 A 
ATOM     35  C   UNL     1      10.703   3.411   1.274  0.00  0.00    +0.000 A 
ATOM     36  C   UNL     1      10.080   3.425   0.040  0.00  0.00    +0.005 A 
ENDBRANCH  30  31
ENDBRANCH  14  30
TORSDOF 6
