REMARK  Name = ZINC36359327
REMARK  1 active torsions:
REMARK  status: ('A' for Active; 'I' for Inactive)
REMARK    1  A    between atoms: C_6  and  C_7
REMARK                            x       y       z     vdW  Elec       q    Type
REMARK                         _______ _______ _______ _____ _____    ______ ____
ROOT
ATOM      1  C   UNL     1      -1.293  -0.775   0.010  0.00  0.00    +0.068 C 
ATOM      2  C   UNL     1      -1.350  -1.679   1.250  0.00  0.00    +0.109 C 
ATOM      3  C   UNL     1      -0.506  -2.906   1.050  0.00  0.00    +0.219 C 
ATOM      4  O   UNL     1       0.118  -3.338   1.996  0.00  0.00    -0.275 OA
ATOM      5  N   UNL     1      -0.409  -3.550  -0.128  0.00  0.00    -0.270 N 
ATOM      6  C   UNL     1      -0.960  -2.939  -1.285  0.00  0.00    +0.138 A 
ATOM      7  C   UNL     1      -1.371  -1.639  -1.200  0.00  0.00    +0.041 A 
ATOM      8  S   UNL     1      -1.974  -1.317  -2.829  0.00  0.00    -0.055 S 
ATOM      9  C   UNL     1      -1.638  -2.830  -3.492  0.00  0.00    +0.163 A 
ATOM     10  N   UNL     1      -1.110  -3.496  -2.481  0.00  0.00    -0.210 NA
ATOM     11  N   UNL     1      -1.863  -3.271  -4.787  0.00  0.00    -0.310 N 
ATOM     12  C   UNL     1      -2.462  -2.377  -5.788  0.00  0.00    +0.107 C 
ATOM     13  C   UNL     1      -1.554  -2.339  -7.021  0.00  0.00    +0.019 C 
ATOM     14  C   UNL     1      -1.312  -3.766  -7.516  0.00  0.00    +0.003 C 
ATOM     15  C   UNL     1      -0.610  -4.575  -6.424  0.00  0.00    +0.019 C 
ATOM     16  C   UNL     1      -1.502  -4.638  -5.186  0.00  0.00    +0.107 C 
ATOM     17  H   UNL     1       0.028  -4.413  -0.185  0.00  0.00    +0.156 HD
ENDROOT
BRANCH   1  23
ATOM     18  C   UNL     1      -0.017   1.378   0.010  0.00  0.00    +0.007 A 
ATOM     19  C   UNL     1       1.170   2.086   0.002  0.00  0.00    +0.038 A 
ATOM     20  C   UNL     1       2.379   1.410  -0.013  0.00  0.00    +0.123 A 
ATOM     21  C   UNL     1       2.396   0.026  -0.021  0.00  0.00    +0.038 A 
ATOM     22  C   UNL     1       1.208  -0.680  -0.013  0.00  0.00    +0.007 A 
ATOM     23  C   UNL     1       0.002  -0.004   0.002  0.00  0.00    -0.039 A 
ATOM     24  F   UNL     1       3.540   2.101  -0.021  0.00  0.00    -0.205 F 
ENDBRANCH   1  23
TORSDOF 1
