REMARK  Name = ZINC04729316
REMARK  8 active torsions:
REMARK  status: ('A' for Active; 'I' for Inactive)
REMARK    1  A    between atoms: C_1  and  O_2
REMARK    2  A    between atoms: O_2  and  C_3
REMARK    3  A    between atoms: C_6  and  C_9
REMARK    4  A    between atoms: C_11  and  C_25
REMARK    5  A    between atoms: C_13  and  C_16
REMARK    6  A    between atoms: C_20  and  O_23
REMARK    7  A    between atoms: C_21  and  O_22
REMARK    8  A    between atoms: O_23  and  C_24
REMARK                            x       y       z     vdW  Elec       q    Type
REMARK                         _______ _______ _______ _____ _____    ______ ____
ROOT
ATOM      1  C   UNL     1       0.104  -1.997   1.471  0.00  0.00    +0.040 C 
ATOM      2  N   UNL     1       0.778  -2.593   0.560  0.00  0.00    -0.299 NA
ATOM      3  C   UNL     1       1.296  -1.938  -0.635  0.00  0.00    +0.081 C 
ATOM      4  C   UNL     1       0.002  -0.004   0.002  0.00  0.00    -0.028 C 
ATOM      5  C   UNL     1      -0.228  -0.532   1.422  0.00  0.00    +0.044 C 
ATOM      6  N   UNL     1       1.322  -0.478  -0.459  0.00  0.00    +0.401 N 
ATOM      7  H   UNL     1       1.549  -0.031  -1.355  0.00  0.00    -0.081 HD
ATOM      8  H   UNL     1       2.035  -0.231   0.237  0.00  0.00    -0.081 HD
ENDROOT
BRANCH   3   9
ATOM      9  C   UNL     1       0.418  -2.283  -1.810  0.00  0.00    -0.040 A 
ATOM     10  C   UNL     1       0.270  -1.383  -2.849  0.00  0.00    +0.005 A 
ATOM     11  C   UNL     1      -0.530  -1.702  -3.930  0.00  0.00    +0.020 A 
ATOM     12  C   UNL     1      -1.193  -2.916  -3.966  0.00  0.00    +0.041 A 
ATOM     13  C   UNL     1      -1.050  -3.813  -2.923  0.00  0.00    +0.020 A 
ATOM     14  C   UNL     1      -0.244  -3.496  -1.845  0.00  0.00    +0.005 A 
ATOM     15 CL   UNL     1      -2.205  -3.313  -5.320  0.00  0.00    -0.084 Cl
ENDBRANCH   3   9
BRANCH   1  19
ATOM     16  C   UNL     1      -1.256  -4.267   4.791  0.00  0.00    +0.120 A 
ATOM     17  C   UNL     1      -0.522  -4.883   3.784  0.00  0.00    +0.046 A 
ATOM     18  C   UNL     1      -0.079  -4.151   2.705  0.00  0.00    +0.013 A 
ATOM     19  C   UNL     1      -0.368  -2.786   2.624  0.00  0.00    -0.004 A 
ATOM     20  C   UNL     1      -1.102  -2.169   3.642  0.00  0.00    +0.013 A 
ATOM     21  C   UNL     1      -1.545  -2.910   4.714  0.00  0.00    +0.046 A 
BRANCH  16  23
ATOM     22  C   UNL     1      -2.438  -4.297   6.852  0.00  0.00    +0.277 C 
ATOM     23  O   UNL     1      -1.690  -4.993   5.853  0.00  0.00    -0.495 OA
ENDBRANCH  16  23
ENDBRANCH   1  19
BRANCH   4  24
ATOM     24  C   UNL     1      -0.018   1.503   0.010  0.00  0.00    -0.016 A 
ATOM     25  C   UNL     1       1.170   2.210   0.003  0.00  0.00    +0.006 A 
ATOM     26  C   UNL     1       1.155   3.592   0.010  0.00  0.00    +0.004 A 
ATOM     27  C   UNL     1      -0.049   4.274   0.026  0.00  0.00    +0.049 A 
ATOM     28  C   UNL     1      -1.242   3.571   0.034  0.00  0.00    +0.161 A 
ATOM     29  C   UNL     1      -1.227   2.179   0.020  0.00  0.00    +0.160 A 
BRANCH  29  30
ATOM     30  O   UNL     1      -2.397   1.485   0.021  0.00  0.00    -0.503 OA
ATOM     31  H   UNL     1      -2.731   1.279   0.905  0.00  0.00    +0.292 HD
ENDBRANCH  29  30
BRANCH  28  32
ATOM     32  O   UNL     1      -2.427   4.239   0.049  0.00  0.00    -0.491 OA
ATOM     33  C   UNL     1      -2.366   5.667   0.057  0.00  0.00    +0.277 C 
ENDBRANCH  28  32
ENDBRANCH   4  24
TORSDOF 6
