REMARK  Name = ZINC35072065
REMARK  11 active torsions:
REMARK  status: ('A' for Active; 'I' for Inactive)
REMARK    1  A    between atoms: C_1  and  C_2
REMARK    2  A    between atoms: C_5  and  C_38
REMARK    3  A    between atoms: C_6  and  N_8
REMARK    4  A    between atoms: C_18  and  C_19
REMARK    5  A    between atoms: C_19  and  C_21
REMARK    6  A    between atoms: C_19  and  N_22
REMARK    7  A    between atoms: N_22  and  C_23
REMARK    8  A    between atoms: C_23  and  C_24
REMARK    9  A    between atoms: C_24  and  C_25
REMARK   10  A    between atoms: C_24  and  C_26
REMARK   11  A    between atoms: N_29  and  C_30
REMARK                            x       y       z     vdW  Elec       q    Type
REMARK                         _______ _______ _______ _____ _____    ______ ____
ROOT
ATOM      1  N   UNL     1      -0.396  -4.113   2.438  0.00  0.00    -0.263 N 
ATOM      2  C   UNL     1       0.729  -4.541   3.057  0.00  0.00    +0.266 A 
ATOM      3  O   UNL     1       1.348  -5.506   2.647  0.00  0.00    -0.267 OA
ATOM      4  C   UNL     1       1.176  -3.795   4.242  0.00  0.00    +0.065 A 
ATOM      5  C   UNL     1       2.322  -4.153   4.949  0.00  0.00    +0.015 A 
ATOM      6  C   UNL     1       2.696  -3.418   6.053  0.00  0.00    +0.001 A 
ATOM      7  C   UNL     1       1.941  -2.327   6.464  0.00  0.00    +0.002 A 
ATOM      8  C   UNL     1       0.806  -1.957   5.779  0.00  0.00    +0.028 A 
ATOM      9  C   UNL     1       0.406  -2.685   4.657  0.00  0.00    +0.078 A 
ATOM     10  N   UNL     1      -0.705  -2.354   3.952  0.00  0.00    -0.231 NA
ATOM     11  C   UNL     1      -1.073  -3.029   2.905  0.00  0.00    +0.138 A 
ENDROOT
BRANCH   1  17
ATOM     12  C   UNL     1      -0.605  -4.527  -2.457  0.00  0.00    +0.044 C 
ATOM     13  C   UNL     1      -0.982  -5.010  -1.080  0.00  0.00    -0.048 A 
ATOM     14  C   UNL     1      -1.792  -6.122  -0.936  0.00  0.00    +0.004 A 
ATOM     15  C   UNL     1      -2.139  -6.568   0.326  0.00  0.00    +0.005 A 
ATOM     16  C   UNL     1      -1.678  -5.904   1.446  0.00  0.00    -0.026 A 
ATOM     17  C   UNL     1      -0.865  -4.788   1.304  0.00  0.00    +0.054 A 
ATOM     18  C   UNL     1      -0.513  -4.346   0.036  0.00  0.00    +0.030 A 
ATOM     19  C   UNL     1      -2.058  -6.391   2.821  0.00  0.00    +0.046 C 
ENDBRANCH   1  17
BRANCH  11  20
ATOM     20  C   UNL     1      -2.317  -2.593   2.175  0.00  0.00    +0.141 C 
ATOM     21  C   UNL     1      -2.194  -1.116   1.795  0.00  0.00    +0.036 C 
BRANCH  20  22
ATOM     22  N   UNL     1      -3.483  -2.779   3.041  0.00  0.00    -0.275 N 
ATOM     23  C   UNL     1      -4.483  -3.597   2.659  0.00  0.00    +0.307 C 
ATOM     24  O   UNL     1      -4.418  -4.180   1.594  0.00  0.00    -0.252 OA
ATOM     25  N   UNL     1      -5.556  -3.768   3.456  0.00  0.00    -0.267 N 
ATOM     26  H   UNL     1      -5.573  -3.367   4.339  0.00  0.00    +0.156 HD
BRANCH  25  27
ATOM     27  C   UNL     1      -6.648  -4.525   3.009  0.00  0.00    +0.070 A 
ATOM     28  C   UNL     1      -6.883  -4.671   1.649  0.00  0.00    +0.029 A 
ATOM     29  C   UNL     1      -7.959  -5.418   1.210  0.00  0.00    +0.040 A 
ATOM     30  C   UNL     1      -8.805  -6.020   2.126  0.00  0.00    +0.126 A 
ATOM     31  C   UNL     1      -8.575  -5.876   3.483  0.00  0.00    +0.078 A 
ATOM     32  C   UNL     1      -7.495  -5.135   3.927  0.00  0.00    +0.147 A 
ATOM     33  F   UNL     1      -7.267  -4.999   5.252  0.00  0.00    -0.203 F 
ATOM     34  F   UNL     1      -9.857  -6.749   1.693  0.00  0.00    -0.205 F 
ENDBRANCH  25  27
BRANCH  22  35
ATOM     35  C   UNL     1      -3.561  -2.076   4.324  0.00  0.00    +0.113 C 
BRANCH  35  36
ATOM     36  C   UNL     1      -4.247  -0.723   4.123  0.00  0.00    +0.000 C 
ATOM     37  C   UNL     1      -5.698  -0.945   3.694  0.00  0.00    +0.009 C 
ATOM     38  C   UNL     1      -4.218   0.063   5.436  0.00  0.00    +0.009 C 
ENDBRANCH  35  36
ENDBRANCH  22  35
ENDBRANCH  20  22
ENDBRANCH  11  20
TORSDOF 6
