REMARK  Name = ZINC02954695
REMARK  9 active torsions:
REMARK  status: ('A' for Active; 'I' for Inactive)
REMARK    1  A    between atoms: C_1  and  C_2
REMARK    2  A    between atoms: C_5  and  N_8
REMARK    3  A    between atoms: C_9  and  C_11
REMARK    4  A    between atoms: C_14  and  C_30
REMARK    5  A    between atoms: C_17  and  C_29
REMARK    6  A    between atoms: N_21  and  C_22
REMARK    7  A    between atoms: C_30  and  O_31
REMARK    8  A    between atoms: O_31  and  C_32
REMARK    9  A    between atoms: C_32  and  C_34
REMARK                            x       y       z     vdW  Elec       q    Type
REMARK                         _______ _______ _______ _____ _____    ______ ____
ROOT
ATOM      1  C   UNL     1       2.227   5.598   0.363  0.00  0.00    +0.098 A 
ATOM      2  C   UNL     1       3.216   6.168   1.134  0.00  0.00    +0.030 A 
ATOM      3  C   UNL     1       4.280   5.287   1.620  0.00  0.00    +0.028 A 
ATOM      4  C   UNL     1       5.179   5.696   2.612  0.00  0.00    +0.018 A 
ATOM      5  C   UNL     1       6.154   4.810   3.021  0.00  0.00    +0.118 A 
ATOM      6  N   UNL     1       6.246   3.602   2.495  0.00  0.00    -0.256 NA
ATOM      7  C   UNL     1       5.424   3.172   1.558  0.00  0.00    +0.081 A 
ATOM      8  C   UNL     1       4.412   3.993   1.082  0.00  0.00    +0.159 A 
ATOM      9  O   UNL     1       3.558   3.575   0.122  0.00  0.00    -0.437 OA
ATOM     10  C   UNL     1       2.327   4.149   0.097  0.00  0.00    +0.212 A 
ATOM     11  N   UNL     1       1.254   3.432  -0.152  0.00  0.00    -0.325 N 
ATOM     12  C   UNL     1       5.585   1.780   1.002  0.00  0.00    +0.069 C 
ATOM     13  H   UNL     1       0.275   3.924  -0.252  0.00  0.00    +0.169 HD
ENDROOT
BRANCH  11  14
ATOM     14  C   UNL     1       1.354   2.074  -0.286  0.00  0.00    +0.042 A 
ATOM     15  C   UNL     1       1.311   1.252   0.843  0.00  0.00    +0.027 A 
ATOM     16  C   UNL     1       1.412  -0.116   0.700  0.00  0.00    +0.017 A 
ATOM     17  C   UNL     1       1.556  -0.675  -0.558  0.00  0.00    +0.018 A 
ATOM     18  C   UNL     1       1.599   0.134  -1.681  0.00  0.00    +0.017 A 
ATOM     19  C   UNL     1       1.500   1.503  -1.553  0.00  0.00    +0.027 A 
ATOM     20 BR   UNL     1       1.693  -2.552  -0.744  0.00  0.00    -0.050 Br
ENDBRANCH  11  14
BRANCH   1  22
ATOM     21  N   UNL     1       0.161   5.815  -0.926  0.00  0.00    -0.281 N 
ATOM     22  C   UNL     1       1.114   6.401  -0.175  0.00  0.00    +0.253 C 
ATOM     23  O   UNL     1       1.056   7.593   0.059  0.00  0.00    -0.270 OA
ATOM     24  H   UNL     1       0.167   4.724  -1.069  0.00  0.00    +0.155 HD
BRANCH  21  29
ATOM     25  C   UNL     1      -3.878   8.971  -3.354  0.00  0.00    +0.044 C 
ATOM     26  C   UNL     1      -2.805   8.133  -2.709  0.00  0.00    -0.050 A 
ATOM     27  C   UNL     1      -1.532   8.647  -2.548  0.00  0.00    +0.005 A 
ATOM     28  C   UNL     1      -0.546   7.881  -1.957  0.00  0.00    +0.023 A 
ATOM     29  C   UNL     1      -0.835   6.593  -1.525  0.00  0.00    +0.034 A 
ATOM     30  C   UNL     1      -2.113   6.077  -1.694  0.00  0.00    +0.023 A 
ATOM     31  C   UNL     1      -3.096   6.851  -2.280  0.00  0.00    +0.005 A 
ENDBRANCH  21  29
ENDBRANCH   1  22
BRANCH   4  32
ATOM     32  C   UNL     1       5.084   7.072   3.219  0.00  0.00    +0.269 C 
BRANCH  32  33
ATOM     33  O   UNL     1       6.128   7.234   4.215  0.00  0.00    -0.460 OA
BRANCH  33  34
ATOM     34  C   UNL     1       6.183   8.414   4.854  0.00  0.00    +0.304 C 
ATOM     35  O   UNL     1       5.384   9.281   4.590  0.00  0.00    -0.251 OA
ATOM     36  C   UNL     1       7.240   8.656   5.901  0.00  0.00    +0.136 C 
ENDBRANCH  33  34
ENDBRANCH  32  33
ENDBRANCH   4  32
TORSDOF 6
