REMARK  Name = ZINC12385022
REMARK  5 active torsions:
REMARK  status: ('A' for Active; 'I' for Inactive)
REMARK    1  A    between atoms: C_1  and  C_2
REMARK    2  A    between atoms: C_7  and  C_17
REMARK    3  A    between atoms: C_29  and  C_31
REMARK    4  A    between atoms: C_31  and  O_33
REMARK    5  A    between atoms: O_33  and  C_34
REMARK                            x       y       z     vdW  Elec       q    Type
REMARK                         _______ _______ _______ _____ _____    ______ ____
ROOT
ATOM      1  C   UNL     1       3.929   0.551   1.034  0.00  0.00    +0.009 C 
ATOM      2  C   UNL     1       3.888   1.393  -0.242  0.00  0.00    +0.013 C 
ATOM      3  C   UNL     1       2.529   1.237  -0.922  0.00  0.00    +0.055 C 
ATOM      4  C   UNL     1       1.425   1.686   0.023  0.00  0.00    +0.017 C 
ATOM      5  C   UNL     1       1.642   2.691   0.885  0.00  0.00    +0.037 C 
ATOM      6  C   UNL     1       0.628   3.270   1.846  0.00  0.00    +0.138 C 
ATOM      7  N   UNL     1      -0.581   2.485   1.977  0.00  0.00    -0.331 N 
ATOM      8  C   UNL     1      -1.442   2.307   0.898  0.00  0.00    +0.049 A 
ATOM      9  C   UNL     1      -2.720   2.845   0.900  0.00  0.00    +0.025 A 
ATOM     10  C   UNL     1      -3.523   2.697  -0.232  0.00  0.00    +0.002 A 
ATOM     11  C   UNL     1      -3.055   2.018  -1.343  0.00  0.00    +0.002 A 
ATOM     12  C   UNL     1      -1.788   1.459  -1.335  0.00  0.00    +0.025 A 
ATOM     13  C   UNL     1      -0.998   1.587  -0.207  0.00  0.00    +0.052 A 
ATOM     14  N   UNL     1       0.260   1.000  -0.106  0.00  0.00    -0.316 N 
ATOM     15  C   UNL     1       2.912   3.311   0.956  0.00  0.00    +0.177 C 
ATOM     16  O   UNL     1       3.072   4.231   1.734  0.00  0.00    -0.291 OA
ATOM     17  C   UNL     1       4.068   2.875   0.107  0.00  0.00    +0.171 C 
ATOM     18  H   UNL     1      -0.794   2.076   2.830  0.00  0.00    +0.147 HD
ATOM     19  H   UNL     1       0.309   0.032  -0.135  0.00  0.00    +0.152 HD
ENDROOT
BRANCH   6  20
ATOM     20  C   UNL     1       0.254   4.651   1.372  0.00  0.00    +0.002 A 
ATOM     21  C   UNL     1       0.477   5.165   0.152  0.00  0.00    +0.089 A 
ATOM     22  N   UNL     1      -0.004   6.444   0.090  0.00  0.00    -0.360 N 
ATOM     23  H   UNL     1       0.039   7.018  -0.691  0.00  0.00    +0.165 HD
ATOM     24  C   UNL     1      -0.554   6.797   1.301  0.00  0.00    +0.047 A 
ATOM     25  C   UNL     1      -0.417   5.689   2.158  0.00  0.00    +0.005 A 
ATOM     26  C   UNL     1      -0.891   5.760   3.469  0.00  0.00    +0.010 A 
ATOM     27  C   UNL     1      -1.487   6.906   3.914  0.00  0.00    +0.001 A 
ATOM     28  C   UNL     1      -1.624   8.002   3.074  0.00  0.00    +0.002 A 
ATOM     29  C   UNL     1      -1.164   7.954   1.776  0.00  0.00    +0.026 A 
ENDBRANCH   6  20
BRANCH  17  30
ATOM     30  C   UNL     1       5.354   3.062   0.869  0.00  0.00    +0.318 C 
ATOM     31  O   UNL     1       6.058   2.110   1.110  0.00  0.00    -0.250 OA
BRANCH  30  32
ATOM     32  O   UNL     1       5.718   4.287   1.280  0.00  0.00    -0.467 OA
ATOM     33  C   UNL     1       6.970   4.393   2.009  0.00  0.00    +0.280 C 
ENDBRANCH  30  32
ENDBRANCH  17  30
TORSDOF 3
