REMARK  Name = ZINC22734495
REMARK  11 active torsions:
REMARK  status: ('A' for Active; 'I' for Inactive)
REMARK    1  A    between atoms: C_1  and  C_2
REMARK    2  A    between atoms: C_4  and  C_35
REMARK    3  A    between atoms: C_5  and  N_9
REMARK    4  A    between atoms: C_6  and  C_8
REMARK    5  A    between atoms: C_10  and  C_12
REMARK    6  A    between atoms: N_14  and  C_15
REMARK    7  A    between atoms: C_15  and  C_16
REMARK    8  A    between atoms: C_16  and  C_18
REMARK    9  A    between atoms: C_16  and  N_28
REMARK   10  A    between atoms: N_26  and  C_27
REMARK   11  A    between atoms: N_31  and  C_34
REMARK                            x       y       z     vdW  Elec       q    Type
REMARK                         _______ _______ _______ _____ _____    ______ ____
ROOT
ATOM      1  C   UNL     1      -2.989   7.569   1.214  0.00  0.00    +0.104 C 
ENDROOT
BRANCH   1   2
ATOM      2  C   UNL     1      -2.095   6.395   1.524  0.00  0.00    -0.028 A 
ATOM      3  C   UNL     1      -0.987   6.564   2.333  0.00  0.00    +0.007 A 
ATOM      4  C   UNL     1      -0.168   5.493   2.623  0.00  0.00    +0.024 A 
ATOM      5  C   UNL     1      -0.453   4.232   2.101  0.00  0.00    +0.033 A 
ATOM      6  C   UNL     1      -1.566   4.074   1.285  0.00  0.00    -0.025 A 
ATOM      7  C   UNL     1      -2.383   5.148   1.000  0.00  0.00    +0.010 A 
ATOM      8  C   UNL     1      -1.629   2.621   0.856  0.00  0.00    +0.056 C 
ATOM      9  C   UNL     1      -0.211   2.103   1.189  0.00  0.00    +0.109 C 
ATOM     10  N   UNL     1       0.226   3.015   2.268  0.00  0.00    -0.332 N 
ATOM     11  C   UNL     1       1.682   3.210   2.236  0.00  0.00    +0.129 C 
ENDBRANCH   1   2
BRANCH   1  12
ATOM     12  N   UNL     1      -3.241   8.331   2.444  0.00  0.00    -0.297 NA
ATOM     13  C   UNL     1      -4.610   8.864   2.463  0.00  0.00    +0.066 C 
ATOM     14  C   UNL     1      -4.857   9.582   3.792  0.00  0.00    -0.064 C 
ATOM     15  N   UNL     1      -3.873  10.661   3.953  0.00  0.00    +0.379 N 
ATOM     16  C   UNL     1      -2.504  10.128   3.935  0.00  0.00    -0.064 C 
ATOM     17  C   UNL     1      -2.256   9.410   2.606  0.00  0.00    +0.066 C 
ATOM     18  C   UNL     1      -4.125  11.424   5.183  0.00  0.00    -0.096 C 
ATOM     19  H   UNL     1      -3.981  11.350   3.102  0.00  0.00    -0.082 HD
ENDBRANCH   1  12
BRANCH   1  20
ATOM     20  C   UNL     1      -2.306   8.472   0.185  0.00  0.00    +0.128 C 
BRANCH  20  23
ATOM     21  C   UNL     1      -2.742  10.597  -0.924  0.00  0.00    +0.299 C 
ATOM     22  O   UNL     1      -1.613  10.564  -1.367  0.00  0.00    -0.265 OA
ATOM     23  N   UNL     1      -3.187   9.598  -0.137  0.00  0.00    -0.306 N 
ATOM     24  H   UNL     1      -4.210   9.628   0.265  0.00  0.00    +0.149 HD
BRANCH  21  26
ATOM     25  N   UNL     1      -3.195  12.744  -2.040  0.00  0.00    -0.277 N 
ATOM     26  C   UNL     1      -3.639  11.745  -1.252  0.00  0.00    +0.303 C 
ATOM     27  O   UNL     1      -4.769  11.778  -0.809  0.00  0.00    -0.265 OA
ATOM     28  H   UNL     1      -2.182  12.698  -2.468  0.00  0.00    +0.155 HD
BRANCH  25  33
ATOM     29  C   UNL     1      -6.543  17.185  -3.150  0.00  0.00    +0.044 C 
ATOM     30  C   UNL     1      -5.653  16.005  -2.855  0.00  0.00    -0.050 A 
ATOM     31  C   UNL     1      -4.407  16.205  -2.289  0.00  0.00    +0.008 A 
ATOM     32  C   UNL     1      -3.589  15.126  -2.018  0.00  0.00    -0.029 A 
ATOM     33  C   UNL     1      -4.020  13.838  -2.313  0.00  0.00    +0.040 A 
ATOM     34  C   UNL     1      -5.270  13.642  -2.887  0.00  0.00    -0.029 A 
ATOM     35  C   UNL     1      -6.085  14.725  -3.151  0.00  0.00    +0.008 A 
ATOM     36  C   UNL     1      -5.738  12.247  -3.215  0.00  0.00    +0.045 C 
ATOM     37  C   UNL     1      -2.232  15.344  -1.400  0.00  0.00    +0.045 C 
ENDBRANCH  25  33
ENDBRANCH  21  26
ENDBRANCH  20  23
ENDBRANCH   1  20
TORSDOF 6
