REMARK  Name = ZINC39688404
REMARK  10 active torsions:
REMARK  status: ('A' for Active; 'I' for Inactive)
REMARK    1  A    between atoms: C_1  and  C_2
REMARK    2  A    between atoms: C_2  and  C_3
REMARK    3  A    between atoms: C_3  and  C_4
REMARK    4  A    between atoms: C_4  and  C_6
REMARK    5  A    between atoms: C_4  and  C_7
REMARK    6  A    between atoms: C_11  and  C_20
REMARK    7  A    between atoms: N_22  and  C_23
REMARK    8  A    between atoms: C_23  and  C_25
REMARK    9  A    between atoms: C_23  and  C_26
REMARK   10  A    between atoms: C_26  and  C_27
REMARK                            x       y       z     vdW  Elec       q    Type
REMARK                         _______ _______ _______ _____ _____    ______ ____
ROOT
ATOM      1  C   UNL     1      -3.032  -2.115   0.838  0.00  0.00    +0.218 C 
ATOM      2  O   UNL     1      -2.001  -1.508   1.038  0.00  0.00    -0.275 OA
ATOM      3  N   UNL     1      -3.027  -3.462   0.814  0.00  0.00    -0.300 N 
ATOM      4  C   UNL     1      -1.892  -4.372   1.096  0.00  0.00    +0.121 C 
ATOM      5  C   UNL     1      -2.516  -5.541   1.889  0.00  0.00    +0.100 C 
ATOM      6  C   UNL     1      -4.002  -5.536   1.492  0.00  0.00    -0.004 C 
ATOM      7  C   UNL     1      -4.158  -4.369   0.505  0.00  0.00    +0.115 C 
ATOM      8  C   UNL     1      -4.877  -5.301   2.720  0.00  0.00    -0.010 C 
ATOM      9  C   UNL     1      -6.351  -5.356   2.309  0.00  0.00    -0.082 C 
ATOM     10  N   UNL     1      -6.646  -6.666   1.716  0.00  0.00    +0.379 N 
ATOM     11  C   UNL     1      -5.869  -6.846   0.484  0.00  0.00    -0.082 C 
ATOM     12  C   UNL     1      -4.374  -6.853   0.817  0.00  0.00    -0.010 C 
ATOM     13  H   UNL     1      -6.405  -7.394   2.373  0.00  0.00    -0.086 HD
ATOM     14  H   UNL     1      -7.631  -6.723   1.502  0.00  0.00    -0.086 HD
ENDROOT
BRANCH   5  15
ATOM     15  C   UNL     1      -2.366  -5.310   3.370  0.00  0.00    +0.218 C 
ATOM     16  O   UNL     1      -2.318  -4.179   3.806  0.00  0.00    -0.275 OA
ATOM     17  N   UNL     1      -2.285  -6.360   4.211  0.00  0.00    -0.312 N 
ATOM     18  H   UNL     1      -2.249  -7.263   3.858  0.00  0.00    +0.149 HD
BRANCH  17  19
ATOM     19  C   UNL     1      -2.250  -6.138   5.659  0.00  0.00    +0.074 C 
ATOM     20  C   UNL     1      -3.678  -5.974   6.184  0.00  0.00    +0.028 C 
BRANCH  19  21
ATOM     21  C   UNL     1      -1.590  -7.337   6.343  0.00  0.00    +0.057 C 
BRANCH  21  22
ATOM     22  C   UNL     1      -0.145  -7.422   5.923  0.00  0.00    -0.045 A 
ATOM     23  C   UNL     1       0.207  -8.155   4.804  0.00  0.00    +0.006 A 
ATOM     24  C   UNL     1       1.531  -8.233   4.418  0.00  0.00    +0.038 A 
ATOM     25  C   UNL     1       2.506  -7.578   5.151  0.00  0.00    +0.123 A 
ATOM     26  C   UNL     1       2.152  -6.845   6.271  0.00  0.00    +0.038 A 
ATOM     27  C   UNL     1       0.827  -6.763   6.653  0.00  0.00    +0.006 A 
ATOM     28  F   UNL     1       3.801  -7.654   4.774  0.00  0.00    -0.205 F 
ENDBRANCH  21  22
ENDBRANCH  19  21
ENDBRANCH  17  19
ENDBRANCH   5  15
BRANCH   1  29
ATOM     29  C   UNL     1      -4.318  -1.361   0.616  0.00  0.00    +0.072 C 
ATOM     30  C   UNL     1      -4.498  -1.089  -0.879  0.00  0.00    +0.017 C 
BRANCH  29  31
ATOM     31  C   UNL     1      -4.269  -0.033   1.374  0.00  0.00    +0.012 C 
BRANCH  31  33
ATOM     32  C   UNL     1      -5.601   1.956   2.087  0.00  0.00    +0.004 C 
ATOM     33  C   UNL     1      -5.623   0.670   1.259  0.00  0.00    -0.003 C 
ENDBRANCH  31  33
ENDBRANCH  29  31
ENDBRANCH   1  29
TORSDOF 7
