REMARK  Name = ZINC57462953
REMARK  5 active torsions:
REMARK  status: ('A' for Active; 'I' for Inactive)
REMARK    1  A    between atoms: N_9  and  C_25
REMARK    2  A    between atoms: C_10  and  C_12
REMARK    3  A    between atoms: C_13  and  C_14
REMARK    4  A    between atoms: C_21  and  O_24
REMARK    5  A    between atoms: C_28  and  N_31
REMARK                            x       y       z     vdW  Elec       q    Type
REMARK                         _______ _______ _______ _____ _____    ______ ____
ROOT
ATOM      1  C   UNL     1       0.429   1.379   1.363  0.00  0.00    +0.001 A 
ATOM      2  C   UNL     1       1.444   2.098   0.744  0.00  0.00    +0.002 A 
ATOM      3  C   UNL     1       2.447   1.462   0.070  0.00  0.00    +0.028 A 
ATOM      4  C   UNL     1       2.459   0.064  -0.002  0.00  0.00    +0.079 A 
ATOM      5  C   UNL     1       1.427  -0.670   0.628  0.00  0.00    +0.065 A 
ATOM      6  C   UNL     1       0.413   0.002   1.310  0.00  0.00    +0.015 A 
ATOM      7  C   UNL     1       1.460  -2.136   0.540  0.00  0.00    +0.267 A 
ATOM      8  O   UNL     1       0.599  -2.819   1.063  0.00  0.00    -0.267 OA
ATOM      9  N   UNL     1       2.484  -2.699  -0.143  0.00  0.00    -0.261 N 
ATOM     10  C   UNL     1       3.446  -1.910  -0.727  0.00  0.00    +0.141 A 
ATOM     11  N   UNL     1       3.432  -0.597  -0.657  0.00  0.00    -0.229 NA
ENDROOT
BRANCH   9  12
ATOM     12  C   UNL     1       2.562  -4.092  -0.257  0.00  0.00    +0.052 A 
ATOM     13  C   UNL     1       1.953  -4.739  -1.324  0.00  0.00    +0.028 A 
ATOM     14  C   UNL     1       2.033  -6.114  -1.433  0.00  0.00    +0.035 A 
ATOM     15  C   UNL     1       2.717  -6.846  -0.480  0.00  0.00    +0.126 A 
ATOM     16  C   UNL     1       3.324  -6.205   0.584  0.00  0.00    +0.035 A 
ATOM     17  C   UNL     1       3.253  -4.830   0.695  0.00  0.00    +0.028 A 
BRANCH  15  18
ATOM     18  N   UNL     1       2.800  -8.319  -0.600  0.00  0.00    +0.056 N 
ATOM     19  O   UNL     1       2.269  -8.880  -1.530  0.00  0.00    -0.126 OA
ATOM     20  O   UNL     1       3.397  -8.960   0.232  0.00  0.00    -0.126 OA
ENDBRANCH  15  18
ENDBRANCH   9  12
BRANCH  10  21
ATOM     21  C   UNL     1       4.501  -2.539  -1.433  0.00  0.00    +0.047 C 
ATOM     22  C   UNL     1       5.455  -1.790  -2.033  0.00  0.00    +0.013 C 
BRANCH  22  23
ATOM     23  C   UNL     1       6.546  -2.441  -2.764  0.00  0.00    +0.000 A 
ATOM     24  C   UNL     1       6.730  -3.784  -2.932  0.00  0.00    +0.091 A 
ATOM     25  N   UNL     1       7.851  -4.003  -3.667  0.00  0.00    -0.360 N 
ATOM     26  H   UNL     1       8.187  -4.879  -3.916  0.00  0.00    +0.165 HD
ATOM     27  C   UNL     1       8.445  -2.804  -4.008  0.00  0.00    +0.047 A 
ATOM     28  C   UNL     1       7.657  -1.775  -3.468  0.00  0.00    +0.010 A 
ATOM     29  C   UNL     1       8.017  -0.444  -3.662  0.00  0.00    +0.056 A 
ATOM     30  C   UNL     1       9.151  -0.142  -4.393  0.00  0.00    +0.118 A 
ATOM     31  C   UNL     1       9.929  -1.163  -4.931  0.00  0.00    +0.047 A 
ATOM     32  C   UNL     1       9.585  -2.482  -4.736  0.00  0.00    +0.030 A 
BRANCH  30  33
ATOM     33  O   UNL     1       9.508   1.156  -4.586  0.00  0.00    -0.507 OA
ATOM     34  H   UNL     1      10.094   1.509  -3.902  0.00  0.00    +0.292 HD
ENDBRANCH  30  33
ENDBRANCH  22  23
ENDBRANCH  10  21
TORSDOF 5
