REMARK  Name = ZINC15524465
REMARK  11 active torsions:
REMARK  status: ('A' for Active; 'I' for Inactive)
REMARK    1  A    between atoms: C_1  and  C_2
REMARK    2  A    between atoms: C_2  and  O_3
REMARK    3  A    between atoms: O_3  and  C_4
REMARK    4  A    between atoms: C_4  and  C_6
REMARK    5  A    between atoms: C_10  and  N_11
REMARK    6  A    between atoms: C_12  and  C_14
REMARK    7  A    between atoms: C_14  and  N_70
REMARK    8  A    between atoms: C_17  and  C_20
REMARK    9  A    between atoms: N_22  and  C_23
REMARK   10  A    between atoms: C_23  and  C_24
REMARK   11  A    between atoms: C_31  and  C_35
REMARK                            x       y       z     vdW  Elec       q    Type
REMARK                         _______ _______ _______ _____ _____    ______ ____
ROOT
ATOM      1  N   UNL     1       1.216   3.792  -2.476  0.00  0.00    -0.281 N 
ATOM      2  C   UNL     1       1.240   4.657  -3.509  0.00  0.00    +0.201 C 
ATOM      3  O   UNL     1       1.288   5.851  -3.300  0.00  0.00    -0.278 OA
ATOM      4  H   UNL     1       1.177   2.837  -2.644  0.00  0.00    +0.155 HD
ENDROOT
BRANCH   1   9
ATOM      5  C   UNL     1       1.232   3.540   0.009  0.00  0.00    +0.091 A 
ATOM      6  C   UNL     1       1.268   4.287   1.256  0.00  0.00    -0.021 A 
ATOM      7  C   UNL     1       1.325   5.629   1.120  0.00  0.00    -0.004 A 
ATOM      8  S   UNL     1       1.318   5.909  -0.628  0.00  0.00    -0.077 S 
ATOM      9  C   UNL     1       1.249   4.266  -1.174  0.00  0.00    +0.086 A 
ATOM     10  C   UNL     1       1.377   6.646   2.218  0.00  0.00    +0.046 C 
ATOM     11  C   UNL     1       1.724   5.929   3.528  0.00  0.00    -0.009 C 
ATOM     12  C   UNL     1       0.838   4.687   3.667  0.00  0.00    +0.008 C 
ATOM     13  C   UNL     1       1.249   3.637   2.634  0.00  0.00    +0.037 C 
ATOM     14  C   UNL     1       1.480   6.868   4.711  0.00  0.00    +0.008 C 
BRANCH   5  15
ATOM     15  C   UNL     1       1.176   2.076   0.002  0.00  0.00    +0.342 C 
ATOM     16  O   UNL     1       2.205   1.428  -0.011  0.00  0.00    -0.245 OA
BRANCH  15  17
ATOM     17  O   UNL     1      -0.018   1.448   0.010  0.00  0.00    -0.461 OA
BRANCH  17  19
ATOM     18  C   UNL     1      -1.433  -0.534   0.013  0.00  0.00    +0.048 C 
ATOM     19  C   UNL     1       0.002  -0.004   0.002  0.00  0.00    +0.229 C 
ENDBRANCH  17  19
ENDBRANCH  15  17
ENDBRANCH   5  15
ENDBRANCH   1   9
BRANCH   2  20
ATOM     20  C   UNL     1       1.205   4.142  -4.925  0.00  0.00    +0.019 C 
BRANCH  20  26
ATOM     21  C   UNL     1       0.021   6.086  -5.748  0.00  0.00    -0.077 C 
ATOM     22  C   UNL     1       0.154   7.333  -6.626  0.00  0.00    -0.006 C 
ATOM     23  C   UNL     1       0.374   6.905  -8.080  0.00  0.00    +0.071 C 
ATOM     24  C   UNL     1       1.621   6.021  -8.161  0.00  0.00    -0.006 C 
ATOM     25  C   UNL     1       1.445   4.813  -7.238  0.00  0.00    -0.077 C 
ATOM     26  N   UNL     1       1.263   5.291  -5.851  0.00  0.00    +0.385 N 
ATOM     27  H   UNL     1       2.061   5.885  -5.596  0.00  0.00    -0.081 HD
BRANCH  23  28
ATOM     28  C   UNL     1       0.566   8.127  -8.941  0.00  0.00    +0.216 C 
ATOM     29  O   UNL     1       1.598   8.278  -9.559  0.00  0.00    -0.276 OA
ATOM     30  N   UNL     1      -0.410   9.053  -9.023  0.00  0.00    -0.311 N 
ATOM     31  H   UNL     1      -1.236   8.933  -8.529  0.00  0.00    +0.149 HD
BRANCH  30  32
ATOM     32  C   UNL     1      -0.224  10.241  -9.860  0.00  0.00    +0.139 C 
BRANCH  32  33
ATOM     33  C   UNL     1      -1.452  11.111  -9.779  0.00  0.00    -0.030 A 
ATOM     34  C   UNL     1      -2.487  10.931 -10.678  0.00  0.00    +0.005 A 
ATOM     35  C   UNL     1      -3.616  11.724 -10.601  0.00  0.00    +0.000 A 
ATOM     36  C   UNL     1      -3.706  12.706  -9.631  0.00  0.00    +0.000 A 
ATOM     37  C   UNL     1      -2.669  12.889  -8.735  0.00  0.00    +0.000 A 
ATOM     38  C   UNL     1      -1.542  12.092  -8.809  0.00  0.00    +0.005 A 
ENDBRANCH  32  33
ENDBRANCH  30  32
ENDBRANCH  23  28
ENDBRANCH  20  26
ENDBRANCH   2  20
TORSDOF 9
