REMARK  Name = ZINC30979756
REMARK  11 active torsions:
REMARK  status: ('A' for Active; 'I' for Inactive)
REMARK    1  A    between atoms: C_1  and  C_2
REMARK    2  A    between atoms: C_2  and  C_4
REMARK    3  A    between atoms: C_2  and  N_14
REMARK    4  A    between atoms: C_4  and  C_5
REMARK    5  A    between atoms: C_5  and  C_6
REMARK    6  A    between atoms: C_5  and  C_7
REMARK    7  A    between atoms: C_5  and  C_8
REMARK    8  A    between atoms: C_15  and  C_17
REMARK    9  A    between atoms: N_20  and  C_23
REMARK   10  A    between atoms: C_23  and  C_24
REMARK   11  A    between atoms: C_26  and  C_29
REMARK                            x       y       z     vdW  Elec       q    Type
REMARK                         _______ _______ _______ _____ _____    ______ ____
ROOT
ATOM      1  C   UNL     1      -0.534  -1.481   5.188  0.00  0.00    +0.071 C 
ATOM      2  C   UNL     1       0.651  -0.518   5.304  0.00  0.00    -0.006 C 
ATOM      3  C   UNL     1       1.290  -0.667   6.686  0.00  0.00    -0.077 C 
ATOM      4  N   UNL     1       1.742  -2.052   6.871  0.00  0.00    +0.386 N 
ATOM      5  C   UNL     1       0.614  -2.990   6.812  0.00  0.00    -0.077 C 
ATOM      6  C   UNL     1      -0.045  -2.911   5.433  0.00  0.00    -0.006 C 
ATOM      7  H   UNL     1       2.425  -2.295   6.044  0.00  0.00    -0.081 HD
ENDROOT
BRANCH   1   9
ATOM      8  N   UNL     1      -1.629  -0.208   3.372  0.00  0.00    -0.312 N 
ATOM      9  C   UNL     1      -1.131  -1.382   3.808  0.00  0.00    +0.216 C 
ATOM     10  O   UNL     1      -1.162  -2.358   3.089  0.00  0.00    -0.276 OA
ATOM     11  H   UNL     1      -1.600   0.678   4.023  0.00  0.00    +0.149 HD
BRANCH   8  13
ATOM     12  C   UNL     1      -3.674  -0.549   2.075  0.00  0.00    +0.028 C 
ATOM     13  C   UNL     1      -2.209  -0.112   2.030  0.00  0.00    +0.071 C 
BRANCH  13  14
ATOM     14  C   UNL     1      -2.124   1.335   1.540  0.00  0.00    +0.033 C 
BRANCH  14  15
ATOM     15  C   UNL     1      -0.657   1.717   1.331  0.00  0.00    -0.008 C 
ATOM     16  C   UNL     1       0.006   0.705   0.396  0.00  0.00    +0.016 C 
ATOM     17  C   UNL     1       0.067   1.716   2.679  0.00  0.00    +0.016 C 
BRANCH  15  18
ATOM     18  C   UNL     1      -0.578   3.093   0.720  0.00  0.00    -0.042 A 
ATOM     19  C   UNL     1      -1.737   3.790   0.436  0.00  0.00    +0.004 A 
ATOM     20  C   UNL     1      -1.665   5.054  -0.120  0.00  0.00    +0.000 A 
ATOM     21  C   UNL     1      -0.434   5.615  -0.402  0.00  0.00    +0.000 A 
ATOM     22  C   UNL     1       0.725   4.916  -0.122  0.00  0.00    +0.000 A 
ATOM     23  C   UNL     1       0.653   3.655   0.439  0.00  0.00    +0.004 A 
ENDBRANCH  15  18
ENDBRANCH  14  15
ENDBRANCH  13  14
ENDBRANCH   8  13
ENDBRANCH   1   9
BRANCH   4  24
ATOM     24  C   UNL     1       2.484  -2.199   8.131  0.00  0.00    +0.022 C 
BRANCH  24  25
ATOM     25  C   UNL     1       3.763  -1.406   8.056  0.00  0.00    +0.211 A 
ATOM     26  N   UNL     1       3.925  -0.155   8.410  0.00  0.00    -0.193 NA
ATOM     27  C   UNL     1       5.225   0.125   8.168  0.00  0.00    +0.202 A 
ATOM     28  N   UNL     1       5.771  -0.961   7.687  0.00  0.00    -0.056 NA
ATOM     29  O   UNL     1       4.947  -1.848   7.621  0.00  0.00    -0.340 OA
BRANCH  27  30
ATOM     30  C   UNL     1       5.905   1.423   8.405  0.00  0.00    +0.023 A 
ATOM     31  C   UNL     1       5.191   2.502   8.921  0.00  0.00    +0.013 A 
ATOM     32  C   UNL     1       5.829   3.705   9.144  0.00  0.00    +0.016 A 
ATOM     33  C   UNL     1       7.174   3.844   8.847  0.00  0.00    +0.018 A 
ATOM     34  C   UNL     1       7.886   2.776   8.329  0.00  0.00    +0.016 A 
ATOM     35  C   UNL     1       7.259   1.567   8.107  0.00  0.00    +0.013 A 
ATOM     36 BR   UNL     1       8.040   5.497   9.149  0.00  0.00    -0.050 Br
ENDBRANCH  27  30
ENDBRANCH  24  25
ENDBRANCH   4  24
TORSDOF 8
