REMARK  Name = ZINC39653897
REMARK  11 active torsions:
REMARK  status: ('A' for Active; 'I' for Inactive)
REMARK    1  A    between atoms: C_1  and  C_2
REMARK    2  A    between atoms: C_2  and  C_3
REMARK    3  A    between atoms: C_2  and  C_4
REMARK    4  A    between atoms: C_4  and  C_6
REMARK    5  A    between atoms: C_4  and  N_25
REMARK    6  A    between atoms: C_6  and  O_8
REMARK    7  A    between atoms: O_8  and  C_9
REMARK    8  A    between atoms: C_9  and  C_10
REMARK    9  A    between atoms: C_12  and  O_13
REMARK   10  A    between atoms: C_22  and  C_24
REMARK   11  A    between atoms: C_26  and  C_28
REMARK                            x       y       z     vdW  Elec       q    Type
REMARK                         _______ _______ _______ _____ _____    ______ ____
ROOT
ATOM      1  O   UNL     1      -2.344   0.251   2.438  0.00  0.00    -0.459 OA
ENDROOT
BRANCH   1   2
ATOM      2  C   UNL     1      -3.096   0.131   1.332  0.00  0.00    +0.328 C 
ATOM      3  O   UNL     1      -4.278   0.374   1.375  0.00  0.00    -0.249 OA
BRANCH   2   4
ATOM      4  C   UNL     1      -2.464  -0.308   0.036  0.00  0.00    +0.185 C 
BRANCH   4   5
ATOM      5  N   UNL     1      -3.489  -0.886  -0.836  0.00  0.00    -0.298 N 
ATOM      6  C   UNL     1      -3.142  -1.776  -1.786  0.00  0.00    +0.247 C 
ATOM      7  O   UNL     1      -1.978  -2.099  -1.920  0.00  0.00    -0.270 OA
ATOM      8  H   UNL     1      -4.418  -0.628  -0.730  0.00  0.00    +0.150 HD
BRANCH   6   9
ATOM      9  C   UNL     1      -4.176  -2.359  -2.666  0.00  0.00    +0.072 A 
ATOM     10  C   UNL     1      -5.513  -1.986  -2.519  0.00  0.00    +0.016 A 
ATOM     11  C   UNL     1      -6.473  -2.534  -3.343  0.00  0.00    +0.001 A 
ATOM     12  C   UNL     1      -6.116  -3.453  -4.315  0.00  0.00    +0.003 A 
ATOM     13  C   UNL     1      -4.795  -3.829  -4.468  0.00  0.00    +0.039 A 
ATOM     14  C   UNL     1      -3.819  -3.283  -3.652  0.00  0.00    +0.135 A 
ATOM     15  F   UNL     1      -2.527  -3.647  -3.806  0.00  0.00    -0.205 F 
ENDBRANCH   6   9
ENDBRANCH   4   5
BRANCH   4  17
ATOM     16  C   UNL     1      -2.905   1.949  -0.941  0.00  0.00    +0.009 C 
ATOM     17  C   UNL     1      -1.828   0.900  -0.656  0.00  0.00    +0.014 C 
ATOM     18  C   UNL     1      -0.756   1.503   0.254  0.00  0.00    +0.009 C 
ENDBRANCH   4  17
ENDBRANCH   2   4
ENDBRANCH   1   2
BRANCH   1  19
ATOM     19  C   UNL     1      -2.982   0.783   3.600  0.00  0.00    +0.268 C 
BRANCH  19  20
ATOM     20  C   UNL     1      -1.965   0.947   4.700  0.00  0.00    +0.007 A 
ATOM     21  C   UNL     1      -1.238  -0.134   5.157  0.00  0.00    +0.095 A 
ATOM     22  C   UNL     1      -0.306   0.037   6.170  0.00  0.00    +0.285 A 
ATOM     23  O   UNL     1      -0.090   1.236   6.723  0.00  0.00    -0.425 OA
ATOM     24  C   UNL     1      -0.773   2.326   6.315  0.00  0.00    +0.141 A 
ATOM     25  C   UNL     1      -1.731   2.211   5.282  0.00  0.00    +0.024 A 
ATOM     26  C   UNL     1      -2.441   3.345   4.851  0.00  0.00    +0.014 A 
ATOM     27  C   UNL     1      -2.201   4.554   5.424  0.00  0.00    +0.024 A 
ATOM     28  C   UNL     1      -1.246   4.678   6.448  0.00  0.00    +0.037 A 
ATOM     29  C   UNL     1      -0.541   3.560   6.895  0.00  0.00    +0.070 A 
ATOM     30  N   UNL     1      -1.015   5.895   7.015  0.00  0.00    -0.286 N 
ATOM     31  C   UNL     1       0.068   6.089   7.741  0.00  0.00    +0.214 C 
ATOM     32  O   UNL     1       0.917   5.218   7.814  0.00  0.00    -0.276 OA
ATOM     33  C   UNL     1       0.256   7.388   8.482  0.00  0.00    +0.109 C 
ATOM     34  H   UNL     1      -1.648   6.619   6.884  0.00  0.00    +0.155 HD
BRANCH  22  35
ATOM     35  O   UNL     1       0.397  -1.026   6.606  0.00  0.00    -0.480 OA
ATOM     36  H   UNL     1       1.024  -0.820   7.312  0.00  0.00    +0.295 HD
ENDBRANCH  22  35
ENDBRANCH  19  20
ENDBRANCH   1  19
TORSDOF 8
