REMARK  Name = ZINC12055974
REMARK  7 active torsions:
REMARK  status: ('A' for Active; 'I' for Inactive)
REMARK    1  A    between atoms: C_1  and  C_2
REMARK    2  A    between atoms: C_7  and  O_8
REMARK    3  A    between atoms: O_8  and  C_9
REMARK    4  A    between atoms: C_9  and  C_10
REMARK    5  A    between atoms: C_15  and  C_18
REMARK    6  A    between atoms: C_18  and  C_34
REMARK    7  A    between atoms: N_21  and  C_25
REMARK                            x       y       z     vdW  Elec       q    Type
REMARK                         _______ _______ _______ _____ _____    ______ ____
ROOT
ATOM      1  C   UNL     1       2.997  -4.784  -2.862  0.00  0.00    +0.253 C 
ATOM      2  O   UNL     1       4.178  -5.056  -2.867  0.00  0.00    -0.272 OA
ATOM      3  N   UNL     1       2.600  -3.508  -2.684  0.00  0.00    -0.299 N 
ATOM      4  C   UNL     1       3.588  -2.436  -2.495  0.00  0.00    +0.108 C 
ATOM      5  C   UNL     1       3.248  -1.673  -1.211  0.00  0.00    +0.025 C 
ATOM      6  C   UNL     1       1.799  -1.187  -1.280  0.00  0.00    +0.024 C 
ATOM      7  C   UNL     1       0.860  -2.390  -1.389  0.00  0.00    +0.025 C 
ATOM      8  C   UNL     1       1.173  -3.162  -2.675  0.00  0.00    +0.108 C 
ENDROOT
BRANCH   6   9
ATOM      9  C   UNL     1       1.467  -0.394  -0.014  0.00  0.00    +0.113 C 
ATOM     10  C   UNL     1       0.002  -0.004   0.002  0.00  0.00    +0.247 C 
ATOM     11  O   UNL     1      -0.954  -0.749   0.006  0.00  0.00    -0.273 OA
ATOM     12  N   UNL     1      -0.016   1.343   0.009  0.00  0.00    -0.221 N 
ATOM     13  C   UNL     1       1.220   1.854   0.000  0.00  0.00    +0.310 C 
ATOM     14  O   UNL     1       1.460   3.045   0.004  0.00  0.00    -0.252 OA
ATOM     15  N   UNL     1       2.170   0.901  -0.014  0.00  0.00    -0.285 N 
ATOM     16  C   UNL     1       1.822  -1.203   1.235  0.00  0.00    +0.042 C 
ATOM     17  H   UNL     1       3.130   1.039  -0.022  0.00  0.00    +0.151 HD
BRANCH  12  18
ATOM     18  C   UNL     1      -1.239   2.150   0.020  0.00  0.00    +0.094 C 
ATOM     19  C   UNL     1      -1.258   3.134  -1.169  0.00  0.00    +0.058 C 
ATOM     20  C   UNL     1      -1.931   4.384  -0.635  0.00  0.00    -0.042 A 
ATOM     21  C   UNL     1      -2.497   5.454  -1.308  0.00  0.00    +0.004 A 
ATOM     22  C   UNL     1      -3.064   6.496  -0.602  0.00  0.00    +0.000 A 
ATOM     23  C   UNL     1      -3.068   6.473   0.780  0.00  0.00    +0.000 A 
ATOM     24  C   UNL     1      -2.504   5.407   1.453  0.00  0.00    +0.004 A 
ATOM     25  C   UNL     1      -1.935   4.360   0.747  0.00  0.00    -0.042 A 
ATOM     26  C   UNL     1      -1.262   3.096   1.239  0.00  0.00    +0.058 C 
ENDBRANCH  12  18
ENDBRANCH   6   9
BRANCH   1  27
ATOM     27  C   UNL     1       1.972  -5.871  -3.054  0.00  0.00    +0.324 C 
BRANCH  27  28
ATOM     28  O   UNL     1       2.634  -7.126  -3.220  0.00  0.00    -0.483 OA
BRANCH  28  35
ATOM     29  C   UNL     1       3.924  -9.617  -3.554  0.00  0.00    +0.047 C 
ATOM     30  C   UNL     1       2.425  -9.469  -3.575  0.00  0.00    -0.007 A 
ATOM     31  C   UNL     1       1.624 -10.579  -3.763  0.00  0.00    +0.027 A 
ATOM     32  C   UNL     1       0.247 -10.444  -3.783  0.00  0.00    +0.041 A 
ATOM     33  C   UNL     1      -0.331  -9.198  -3.614  0.00  0.00    +0.023 A 
ATOM     34  C   UNL     1       0.467  -8.087  -3.422  0.00  0.00    +0.047 A 
ATOM     35  C   UNL     1       1.848  -8.219  -3.406  0.00  0.00    +0.124 A 
ATOM     36 CL   UNL     1      -0.757 -11.841  -4.019  0.00  0.00    -0.084 Cl
ENDBRANCH  28  35
ENDBRANCH  27  28
ENDBRANCH   1  27
TORSDOF 5
