REMARK  Name = ZINC28294008
REMARK  2 active torsions:
REMARK  status: ('A' for Active; 'I' for Inactive)
REMARK    1  A    between atoms: C_6  and  C_7
REMARK    2  A    between atoms: C_7  and  C_18
REMARK                            x       y       z     vdW  Elec       q    Type
REMARK                         _______ _______ _______ _____ _____    ______ ____
ROOT
ATOM      1  C   UNL     1       1.306  -0.686  -0.014  0.00  0.00    +0.231 C 
ATOM      2  N   UNL     1       2.669  -0.133  -0.089  0.00  0.00    -0.265 N 
ATOM      3  C   UNL     1       2.813   1.208  -0.074  0.00  0.00    +0.327 C 
ATOM      4  O   UNL     1       3.935   1.682  -0.136  0.00  0.00    -0.251 OA
ATOM      5  N   UNL     1       1.774   2.027   0.005  0.00  0.00    -0.148 NA
ATOM      6  C   UNL     1       0.508   1.616   0.076  0.00  0.00    +0.121 C 
ATOM      7  N   UNL     1       0.203   0.284   0.072  0.00  0.00    -0.260 N 
ATOM      8  C   UNL     1      -1.081  -0.138   0.145  0.00  0.00    +0.079 C 
ATOM      9  C   UNL     1      -2.097   0.755   0.224  0.00  0.00    +0.015 C 
ATOM     10  C   UNL     1      -1.822   2.128   0.231  0.00  0.00    +0.004 C 
ATOM     11  C   UNL     1      -0.529   2.559   0.164  0.00  0.00    +0.041 C 
ATOM     12  H   UNL     1       3.534  -0.809  -0.155  0.00  0.00    +0.153 HD
ENDROOT
BRANCH   1  18
ATOM     13  C   UNL     1       1.640  -2.801  -1.309  0.00  0.00    +0.009 A 
ATOM     14  C   UNL     1       1.431  -3.586  -2.428  0.00  0.00    +0.020 A 
ATOM     15  C   UNL     1       0.671  -3.103  -3.479  0.00  0.00    +0.041 A 
ATOM     16  C   UNL     1       0.117  -1.837  -3.407  0.00  0.00    +0.020 A 
ATOM     17  C   UNL     1       0.322  -1.056  -2.286  0.00  0.00    +0.009 A 
ATOM     18  C   UNL     1       1.081  -1.538  -1.236  0.00  0.00    +0.003 A 
ATOM     19 CL   UNL     1       0.414  -4.085  -4.887  0.00  0.00    -0.084 Cl
ENDBRANCH   1  18
BRANCH   1  20
ATOM     20  C   UNL     1       1.231  -1.596   1.214  0.00  0.00    +0.432 C 
ATOM     21  F   UNL     1       0.062  -2.362   1.156  0.00  0.00    -0.166 F 
ATOM     22  F   UNL     1       2.344  -2.444   1.233  0.00  0.00    -0.166 F 
ATOM     23  F   UNL     1       1.220  -0.814   2.374  0.00  0.00    -0.166 F 
ENDBRANCH   1  20
TORSDOF 2
