REMARK  Name = ZINC04258772
REMARK  8 active torsions:
REMARK  status: ('A' for Active; 'I' for Inactive)
REMARK    1  A    between atoms: C_1  and  C_2
REMARK    2  A    between atoms: C_6  and  N_8
REMARK    3  A    between atoms: C_9  and  C_11
REMARK    4  A    between atoms: N_13  and  N_14
REMARK    5  A    between atoms: C_15  and  C_16
REMARK    6  A    between atoms: C_21  and  O_22
REMARK    7  A    between atoms: O_22  and  C_23
REMARK    8  A    between atoms: C_23  and  C_25
REMARK                            x       y       z     vdW  Elec       q    Type
REMARK                         _______ _______ _______ _____ _____    ______ ____
ROOT
ATOM      1  C   UNL     1       3.274  11.650   0.688  0.00  0.00    +0.037 A 
ATOM      2  C   UNL     1       4.462  12.378   0.792  0.00  0.00    +0.013 A 
ATOM      3  C   UNL     1       4.420  13.754   0.874  0.00  0.00    +0.001 A 
ATOM      4  C   UNL     1       3.205  14.417   0.865  0.00  0.00    +0.004 A 
ATOM      5  C   UNL     1       2.022  13.709   0.768  0.00  0.00    +0.047 A 
ATOM      6  C   UNL     1       2.046  12.326   0.679  0.00  0.00    +0.141 A 
ENDROOT
BRANCH   1   8
ATOM      7  N   UNL     1       2.204   9.507   0.503  0.00  0.00    -0.187 NA
ATOM      8  C   UNL     1       3.312  10.181   0.594  0.00  0.00    +0.142 C 
BRANCH   7  11
ATOM      9  C   UNL     1       1.091   7.411   0.318  0.00  0.00    +0.318 C 
ATOM     10  O   UNL     1       0.025   7.993   0.310  0.00  0.00    -0.263 OA
ATOM     11  N   UNL     1       2.240   8.110   0.413  0.00  0.00    -0.199 N 
ATOM     12  H   UNL     1       3.205   7.582   0.421  0.00  0.00    +0.178 HD
BRANCH   9  14
ATOM     13  N   UNL     1      -0.019   5.225   0.128  0.00  0.00    -0.278 N 
ATOM     14  C   UNL     1       1.129   5.923   0.223  0.00  0.00    +0.305 C 
ATOM     15  O   UNL     1       2.195   5.342   0.231  0.00  0.00    -0.265 OA
ATOM     16  H   UNL     1      -0.978   5.754   0.022  0.00  0.00    +0.155 HD
BRANCH  13  22
ATOM     17  C   UNL     1       2.184   1.071   1.562  0.00  0.00    +0.044 C 
ATOM     18  C   UNL     1       1.064   1.788   0.852  0.00  0.00    -0.049 A 
ATOM     19  C   UNL     1       0.061   1.063   0.236  0.00  0.00    +0.003 A 
ATOM     20  C   UNL     1      -0.972   1.716  -0.411  0.00  0.00    +0.002 A 
ATOM     21  C   UNL     1      -1.002   3.096  -0.448  0.00  0.00    +0.023 A 
ATOM     22  C   UNL     1       0.007   3.828   0.165  0.00  0.00    +0.034 A 
ATOM     23  C   UNL     1       1.044   3.168   0.814  0.00  0.00    +0.026 A 
ENDBRANCH  13  22
ENDBRANCH   9  14
ENDBRANCH   7  11
ENDBRANCH   1   8
BRANCH   6  24
ATOM     24  O   UNL     1       0.884  11.629   0.584  0.00  0.00    -0.421 OA
BRANCH  24  25
ATOM     25  C   UNL     1       0.318  11.221   1.738  0.00  0.00    +0.353 C 
ATOM     26  O   UNL     1       0.897  11.393   2.793  0.00  0.00    -0.244 OA
BRANCH  25  27
ATOM     27  C   UNL     1      -0.996  10.571   1.720  0.00  0.00    +0.116 A 
ATOM     28  C   UNL     1      -1.719  10.091   2.769  0.00  0.00    +0.070 A 
ATOM     29  C   UNL     1      -2.975   9.497   2.541  0.00  0.00    +0.008 A 
ATOM     30  C   UNL     1      -3.872   8.947   3.493  0.00  0.00    +0.010 A 
ATOM     31  C   UNL     1      -5.052   8.403   3.101  0.00  0.00    +0.001 A 
ATOM     32  C   UNL     1      -5.428   8.363   1.764  0.00  0.00    +0.001 A 
ATOM     33  C   UNL     1      -4.585   8.887   0.805  0.00  0.00    +0.016 A 
ATOM     34  C   UNL     1      -3.383   9.443   1.188  0.00  0.00    +0.022 A 
ATOM     35  S   UNL     1      -2.038  10.207   0.318  0.00  0.00    -0.080 S 
ATOM     36 CL   UNL     1      -1.096  10.214   4.385  0.00  0.00    -0.082 Cl
ENDBRANCH  25  27
ENDBRANCH  24  25
ENDBRANCH   6  24
TORSDOF 7
