REMARK  Name = ZINC16053129
REMARK  11 active torsions:
REMARK  status: ('A' for Active; 'I' for Inactive)
REMARK    1  A    between atoms: C_1  and  C_2
REMARK    2  A    between atoms: C_5  and  O_34
REMARK    3  A    between atoms: C_6  and  N_8
REMARK    4  A    between atoms: C_9  and  C_11
REMARK    5  A    between atoms: C_11  and  C_13
REMARK    6  A    between atoms: C_11  and  S_14
REMARK    7  A    between atoms: S_14  and  C_15
REMARK    8  A    between atoms: N_25  and  C_26
REMARK    9  A    between atoms: C_28  and  C_33
REMARK   10  A    between atoms: C_30  and  C_32
REMARK   11  A    between atoms: O_34  and  C_35
REMARK                            x       y       z     vdW  Elec       q    Type
REMARK                         _______ _______ _______ _____ _____    ______ ____
ROOT
ATOM      1  C   UNL     1      -7.489   1.109   1.121  0.00  0.00    +0.177 A 
ATOM      2  N   UNL     1      -7.279  -0.127   0.739  0.00  0.00    -0.223 NA
ATOM      3  C   UNL     1      -8.245  -1.069   0.829  0.00  0.00    +0.079 A 
ATOM      4  C   UNL     1      -8.023  -2.388   0.422  0.00  0.00    +0.028 A 
ATOM      5  C   UNL     1      -9.028  -3.308   0.530  0.00  0.00    +0.002 A 
ATOM      6  C   UNL     1     -10.270  -2.953   1.041  0.00  0.00    +0.001 A 
ATOM      7  C   UNL     1     -10.518  -1.671   1.448  0.00  0.00    +0.015 A 
ATOM      8  C   UNL     1      -9.511  -0.712   1.347  0.00  0.00    +0.065 A 
ATOM      9  C   UNL     1      -9.720   0.680   1.769  0.00  0.00    +0.267 A 
ATOM     10  O   UNL     1     -10.788   1.048   2.223  0.00  0.00    -0.267 OA
ATOM     11  N   UNL     1      -8.680   1.536   1.639  0.00  0.00    -0.255 N 
ENDROOT
BRANCH  11  12
ATOM     12  C   UNL     1      -8.828   2.873   2.032  0.00  0.00    +0.052 A 
ATOM     13  C   UNL     1      -8.765   3.887   1.086  0.00  0.00    +0.029 A 
ATOM     14  C   UNL     1      -8.916   5.204   1.476  0.00  0.00    -0.048 A 
ATOM     15  C   UNL     1      -9.119   5.513   2.808  0.00  0.00    +0.006 A 
ATOM     16  C   UNL     1      -9.176   4.505   3.753  0.00  0.00    -0.048 A 
ATOM     17  C   UNL     1      -9.031   3.186   3.369  0.00  0.00    +0.029 A 
ATOM     18  C   UNL     1      -9.397   4.846   5.205  0.00  0.00    +0.044 C 
ATOM     19  C   UNL     1      -8.854   6.305   0.449  0.00  0.00    +0.044 C 
ENDBRANCH  11  12
BRANCH   1  20
ATOM     20  S   UNL     1      -6.173   2.271   0.969  0.00  0.00    -0.075 S 
BRANCH  20  21
ATOM     21  C   UNL     1      -4.891   1.204   0.266  0.00  0.00    +0.137 C 
ATOM     22  C   UNL     1      -5.324   0.735  -1.125  0.00  0.00    +0.029 C 
BRANCH  21  24
ATOM     23  N   UNL     1      -2.429   1.316   0.052  0.00  0.00    -0.282 N 
ATOM     24  C   UNL     1      -3.600   1.974   0.157  0.00  0.00    +0.230 C 
ATOM     25  O   UNL     1      -3.616   3.187   0.165  0.00  0.00    -0.274 OA
ATOM     26  H   UNL     1      -2.422   0.350  -0.036  0.00  0.00    +0.155 HD
BRANCH  23  32
ATOM     27  C   UNL     1       0.107   5.320   1.359  0.00  0.00    +0.044 C 
ATOM     28  C   UNL     1       0.036   3.969   0.695  0.00  0.00    -0.048 A 
ATOM     29  C   UNL     1       1.163   3.434   0.099  0.00  0.00    +0.007 A 
ATOM     30  C   UNL     1       1.105   2.195  -0.512  0.00  0.00    +0.048 A 
ATOM     31  C   UNL     1      -0.085   1.486  -0.527  0.00  0.00    +0.141 A 
ATOM     32  C   UNL     1      -1.222   2.026   0.069  0.00  0.00    +0.076 A 
ATOM     33  C   UNL     1      -1.154   3.268   0.684  0.00  0.00    +0.030 A 
BRANCH  31  34
ATOM     34  O   UNL     1      -0.144   0.267  -1.128  0.00  0.00    -0.493 OA
ATOM     35  C   UNL     1       1.059  -0.221  -1.724  0.00  0.00    +0.277 C 
ENDBRANCH  31  34
ENDBRANCH  23  32
ENDBRANCH  21  24
ENDBRANCH  20  21
ENDBRANCH   1  20
TORSDOF 6
