REMARK  Name = ZINC35362781
REMARK  11 active torsions:
REMARK  status: ('A' for Active; 'I' for Inactive)
REMARK    1  A    between atoms: C_1  and  C_2
REMARK    2  A    between atoms: C_2  and  N_3
REMARK    3  A    between atoms: N_3  and  C_4
REMARK    4  A    between atoms: N_3  and  C_17
REMARK    5  A    between atoms: C_4  and  C_5
REMARK    6  A    between atoms: C_17  and  C_18
REMARK    7  A    between atoms: N_20  and  C_21
REMARK    8  A    between atoms: C_22  and  C_34
REMARK    9  A    between atoms: C_23  and  C_33
REMARK   10  A    between atoms: C_24  and  C_32
REMARK   11  A    between atoms: N_25  and  C_26
REMARK                            x       y       z     vdW  Elec       q    Type
REMARK                         _______ _______ _______ _____ _____    ______ ____
ROOT
ATOM      1  C   UNL     1       1.787   1.682  -1.558  0.00  0.00    +0.232 C 
ATOM      2  O   UNL     1       0.802   2.388  -1.506  0.00  0.00    -0.274 OA
ATOM      3  N   UNL     1       3.011   2.218  -1.383  0.00  0.00    -0.270 N 
ATOM      4  H   UNL     1       3.802   1.670  -1.502  0.00  0.00    +0.156 HD
ENDROOT
BRANCH   3   5
ATOM      5  C   UNL     1       3.139   3.554  -1.033  0.00  0.00    +0.124 A 
ATOM      6  C   UNL     1       2.230   4.295  -0.291  0.00  0.00    +0.095 A 
ATOM      7  C   UNL     1       2.800   5.644  -0.184  0.00  0.00    -0.011 A 
ATOM      8  C   UNL     1       3.969   5.622  -0.844  0.00  0.00    +0.022 A 
ATOM      9  N   UNL     1       4.179   4.367  -1.351  0.00  0.00    -0.329 N 
ATOM     10  C   UNL     1       4.905   6.793  -0.998  0.00  0.00    +0.064 C 
ATOM     11  C   UNL     1       2.191   6.824   0.529  0.00  0.00    +0.047 C 
BRANCH   9  12
ATOM     12  C   UNL     1       5.354   3.962  -2.126  0.00  0.00    +0.089 C 
ATOM     13  C   UNL     1       4.905   3.406  -3.479  0.00  0.00    +0.025 C 
ATOM     14  C   UNL     1       6.133   2.983  -4.289  0.00  0.00    +0.002 C 
ATOM     15  C   UNL     1       6.901   1.904  -3.524  0.00  0.00    +0.000 C 
ATOM     16  C   UNL     1       7.350   2.460  -2.171  0.00  0.00    +0.002 C 
ATOM     17  C   UNL     1       6.123   2.883  -1.361  0.00  0.00    +0.025 C 
ENDBRANCH   9  12
BRANCH   6  18
ATOM     18  C   UNL     1       0.988   3.838   0.257  0.00  0.00    +0.103 C 
ATOM     19  N   UNL     1       0.004   3.475   0.692  0.00  0.00    -0.191 NA
ENDBRANCH   6  18
ENDBRANCH   3   5
BRANCH   1  20
ATOM     20  C   UNL     1       1.642   0.204  -1.818  0.00  0.00    +0.181 C 
BRANCH  20  21
ATOM     21  N   UNL     1       0.216  -0.145  -1.876  0.00  0.00    -0.287 NA
BRANCH  21  23
ATOM     22  C   UNL     1       0.301  -2.007  -0.288  0.00  0.00    +0.020 C 
ATOM     23  C   UNL     1       0.023  -1.594  -1.735  0.00  0.00    +0.082 C 
ENDBRANCH  21  23
BRANCH  21  24
ATOM     24  C   UNL     1      -0.397   0.350  -3.116  0.00  0.00    +0.159 C 
BRANCH  24  25
ATOM     25  C   UNL     1      -1.893   0.194  -3.034  0.00  0.00    +0.125 A 
ATOM     26  N   UNL     1      -2.642   0.593  -4.095  0.00  0.00    -0.309 N 
ATOM     27  H   UNL     1      -2.206   0.966  -4.878  0.00  0.00    +0.170 HD
ATOM     28  C   UNL     1      -3.990   0.474  -4.071  0.00  0.00    +0.259 A 
ATOM     29  O   UNL     1      -4.673   0.827  -5.015  0.00  0.00    -0.267 OA
ATOM     30  C   UNL     1      -4.597  -0.099  -2.861  0.00  0.00    +0.065 A 
ATOM     31  C   UNL     1      -5.975  -0.264  -2.735  0.00  0.00    +0.015 A 
ATOM     32  C   UNL     1      -6.491  -0.806  -1.578  0.00  0.00    +0.001 A 
ATOM     33  C   UNL     1      -5.650  -1.187  -0.541  0.00  0.00    +0.002 A 
ATOM     34  C   UNL     1      -4.285  -1.032  -0.645  0.00  0.00    +0.028 A 
ATOM     35  C   UNL     1      -3.739  -0.486  -1.808  0.00  0.00    +0.078 A 
ATOM     36  N   UNL     1      -2.401  -0.319  -1.955  0.00  0.00    -0.232 NA
ENDBRANCH  24  25
ENDBRANCH  21  24
ENDBRANCH  20  21
ENDBRANCH   1  20
TORSDOF 8
