REMARK  Name = ZINC36104867
REMARK  7 active torsions:
REMARK  status: ('A' for Active; 'I' for Inactive)
REMARK    1  A    between atoms: C_1  and  C_2
REMARK    2  A    between atoms: C_2  and  C_3
REMARK    3  A    between atoms: C_9  and  C_11
REMARK    4  A    between atoms: C_11  and  C_13
REMARK    5  A    between atoms: C_11  and  N_21
REMARK    6  A    between atoms: C_23  and  C_30
REMARK    7  A    between atoms: C_26  and  C_29
REMARK                            x       y       z     vdW  Elec       q    Type
REMARK                         _______ _______ _______ _____ _____    ______ ____
ROOT
ATOM      1  C   UNL     1      -6.961  -2.571  -0.749  0.00  0.00    +0.006 C 
ENDROOT
BRANCH   1   8
ATOM      2  C   UNL     1      -1.412  -0.526   0.013  0.00  0.00    +0.152 A 
ATOM      3  N   UNL     1      -2.127  -0.793   1.104  0.00  0.00    -0.205 NA
ATOM      4  C   UNL     1      -3.306  -1.227   0.751  0.00  0.00    +0.199 A 
ATOM      5  N   UNL     1      -3.395  -1.255  -0.607  0.00  0.00    -0.170 N 
ATOM      6  N   UNL     1      -2.131  -0.782  -1.047  0.00  0.00    -0.146 NA
ATOM      7  C   UNL     1      -4.579  -1.691  -1.151  0.00  0.00    +0.282 A 
ATOM      8  C   UNL     1      -5.593  -2.068  -0.364  0.00  0.00    +0.050 A 
ATOM      9  S   UNL     1      -4.901  -1.817   1.264  0.00  0.00    -0.050 S 
ATOM     10  O   UNL     1      -4.722  -1.740  -2.503  0.00  0.00    -0.265 OA
BRANCH   2  12
ATOM     11  C   UNL     1      -0.019   1.526   0.010  0.00  0.00    +0.012 C 
ATOM     12  C   UNL     1       0.002  -0.004   0.002  0.00  0.00    +0.075 C 
ENDBRANCH   2  12
ENDBRANCH   1   8
BRANCH   1  13
ATOM     13  N   UNL     1      -7.202  -3.871  -0.110  0.00  0.00    +0.388 N 
ATOM     14  C   UNL     1      -6.179  -4.828  -0.549  0.00  0.00    -0.074 C 
ATOM     15  C   UNL     1      -6.378  -6.161   0.175  0.00  0.00    -0.031 C 
ATOM     16  C   UNL     1      -7.768  -6.712  -0.154  0.00  0.00    +0.003 C 
ATOM     17  C   UNL     1      -8.824  -5.675   0.240  0.00  0.00    -0.031 C 
ATOM     18  C   UNL     1      -8.534  -4.360  -0.486  0.00  0.00    -0.074 C 
ATOM     19  C   UNL     1     -10.212  -6.183  -0.154  0.00  0.00    +0.005 C 
ATOM     20  C   UNL     1      -6.256  -5.945   1.685  0.00  0.00    +0.005 C 
ATOM     21  H   UNL     1      -7.154  -3.767   0.892  0.00  0.00    -0.080 HD
ENDBRANCH   1  13
BRANCH   1  22
ATOM     22  C   UNL     1      -8.005  -1.585  -0.292  0.00  0.00    -0.053 A 
ATOM     23  C   UNL     1      -8.413  -1.574   1.029  0.00  0.00    +0.005 A 
ATOM     24  C   UNL     1      -9.371  -0.671   1.450  0.00  0.00    +0.041 A 
ATOM     25  C   UNL     1      -9.922   0.224   0.549  0.00  0.00    +0.158 A 
ATOM     26  C   UNL     1      -9.513   0.213  -0.775  0.00  0.00    +0.159 A 
ATOM     27  C   UNL     1      -8.550  -0.690  -1.193  0.00  0.00    +0.043 A 
ATOM     28  F   UNL     1     -10.050   1.085  -1.657  0.00  0.00    -0.202 F 
ATOM     29  F   UNL     1     -10.859   1.106   0.960  0.00  0.00    -0.202 F 
ENDBRANCH   1  22
TORSDOF 4
