REMARK  Name = ZINC12659815
REMARK  10 active torsions:
REMARK  status: ('A' for Active; 'I' for Inactive)
REMARK    1  A    between atoms: C_1  and  C_2
REMARK    2  A    between atoms: C_8  and  C_38
REMARK    3  A    between atoms: C_9  and  O_37
REMARK    4  A    between atoms: C_19  and  C_21
REMARK    5  A    between atoms: C_21  and  N_70
REMARK    6  A    between atoms: C_26  and  O_35
REMARK    7  A    between atoms: C_27  and  O_33
REMARK    8  A    between atoms: C_30  and  C_32
REMARK    9  A    between atoms: O_33  and  C_34
REMARK   10  A    between atoms: O_35  and  C_36
REMARK                            x       y       z     vdW  Elec       q    Type
REMARK                         _______ _______ _______ _____ _____    ______ ____
ROOT
ATOM      1  C   UNL     1      -0.019   1.527   0.010  0.00  0.00    +0.008 C 
ATOM      2  C   UNL     1       0.002  -0.004   0.002  0.00  0.00    -0.001 C 
ATOM      3  C   UNL     1       0.686  -0.470  -1.281  0.00  0.00    +0.008 C 
ATOM      4  C   UNL     1       0.645  -2.000  -1.334  0.00  0.00    +0.027 C 
ATOM      5  C   UNL     1       1.277  -2.538  -0.083  0.00  0.00    -0.027 C 
ATOM      6  C   UNL     1       1.308  -1.879   1.038  0.00  0.00    -0.061 C 
ATOM      7  C   UNL     1       0.742  -0.503   1.241  0.00  0.00    +0.018 C 
ATOM      8  C   UNL     1      -0.215  -0.523   2.428  0.00  0.00    +0.132 C 
ATOM      9  C   UNL     1       0.182  -1.347   3.611  0.00  0.00    +0.071 C 
ATOM     10  C   UNL     1       0.857  -2.695   3.328  0.00  0.00    +0.187 C 
ATOM     11  C   UNL     1       1.933  -2.552   2.243  0.00  0.00    +0.076 C 
ATOM     12  O   UNL     1       1.576  -2.996   4.572  0.00  0.00    -0.460 OA
ATOM     13  C   UNL     1       1.819  -1.879   5.273  0.00  0.00    +0.309 C 
ATOM     14  O   UNL     1       2.473  -1.816   6.292  0.00  0.00    -0.251 OA
ATOM     15  C   UNL     1       1.151  -0.687   4.600  0.00  0.00    +0.090 C 
ATOM     16  C   UNL     1       1.886   0.476   1.519  0.00  0.00    +0.018 C 
ENDROOT
BRANCH   8  17
ATOM     17  O   UNL     1      -0.447   0.825   2.861  0.00  0.00    -0.391 OA
ATOM     18  H   UNL     1      -1.048   0.898   3.615  0.00  0.00    +0.210 HD
ENDBRANCH   8  17
BRANCH  15  19
ATOM     19  C   UNL     1       0.389   0.132   5.649  0.00  0.00    -0.063 C 
BRANCH  19  30
ATOM     20  C   UNL     1       2.086   1.859   5.738  0.00  0.00    -0.073 C 
ATOM     21  C   UNL     1       3.296   2.302   6.560  0.00  0.00    +0.017 C 
ATOM     22  C   UNL     1       2.864   2.668   7.957  0.00  0.00    -0.044 A 
ATOM     23  C   UNL     1       3.729   3.420   8.739  0.00  0.00    +0.053 A 
ATOM     24  C   UNL     1       3.376   3.777  10.028  0.00  0.00    +0.162 A 
ATOM     25  C   UNL     1       2.145   3.376  10.541  0.00  0.00    +0.162 A 
ATOM     26  C   UNL     1       1.286   2.627   9.757  0.00  0.00    +0.051 A 
ATOM     27  C   UNL     1       1.644   2.274   8.463  0.00  0.00    -0.054 A 
ATOM     28  C   UNL     1       0.669   1.466   7.647  0.00  0.00    -0.040 C 
ATOM     29  C   UNL     1       0.058   0.374   8.527  0.00  0.00    -0.008 C 
ATOM     30  N   UNL     1       1.363   0.831   6.515  0.00  0.00    +0.385 N 
ATOM     31  H   UNL     1       2.039   0.147   6.876  0.00  0.00    -0.081 HD
BRANCH  25  32
ATOM     32  O   UNL     1       1.788   3.721  11.807  0.00  0.00    -0.491 OA
ATOM     33  C   UNL     1       0.510   3.274  12.265  0.00  0.00    +0.277 C 
ENDBRANCH  25  32
BRANCH  24  34
ATOM     34  O   UNL     1       4.226   4.515  10.790  0.00  0.00    -0.491 OA
ATOM     35  C   UNL     1       5.471   4.889  10.196  0.00  0.00    +0.277 C 
ENDBRANCH  24  34
ENDBRANCH  19  30
ENDBRANCH  15  19
TORSDOF 5
