REMARK  Name = ZINC38670547
REMARK  9 active torsions:
REMARK  status: ('A' for Active; 'I' for Inactive)
REMARK    1  A    between atoms: C_1  and  C_2
REMARK    2  A    between atoms: C_5  and  N_9
REMARK    3  A    between atoms: C_7  and  C_8
REMARK    4  A    between atoms: C_11  and  C_16
REMARK    5  A    between atoms: N_18  and  C_19
REMARK    6  A    between atoms: C_19  and  C_20
REMARK    7  A    between atoms: C_20  and  C_22
REMARK    8  A    between atoms: C_20  and  N_33
REMARK    9  A    between atoms: N_31  and  C_32
REMARK                            x       y       z     vdW  Elec       q    Type
REMARK                         _______ _______ _______ _____ _____    ______ ____
ROOT
ATOM      1  C   UNL     1       3.767  -7.758  -0.518  0.00  0.00    +0.093 C 
ENDROOT
BRANCH   1   4
ATOM      2  C   UNL     1       4.276  -5.461   0.112  0.00  0.00    +0.218 C 
ATOM      3  O   UNL     1       3.539  -5.085  -0.774  0.00  0.00    -0.275 OA
ATOM      4  N   UNL     1       4.459  -6.779   0.323  0.00  0.00    -0.316 N 
ATOM      5  H   UNL     1       5.049  -7.080   1.032  0.00  0.00    +0.149 HD
BRANCH   2   8
ATOM      6  N   UNL     1       5.667  -2.615  -0.404  0.00  0.00    -0.271 N 
ATOM      7  C   UNL     1       4.630  -3.011   0.556  0.00  0.00    +0.127 C 
ATOM      8  C   UNL     1       4.988  -4.453   0.978  0.00  0.00    +0.101 C 
ATOM      9  C   UNL     1       6.514  -4.486   0.726  0.00  0.00    +0.110 C 
ATOM     10  C   UNL     1       6.737  -3.426  -0.330  0.00  0.00    +0.221 C 
ATOM     11  O   UNL     1       7.736  -3.322  -1.010  0.00  0.00    -0.275 OA
BRANCH   6  16
ATOM     12  C   UNL     1       5.212   1.763  -3.983  0.00  0.00    +0.044 C 
ATOM     13  C   UNL     1       5.333   0.600  -3.033  0.00  0.00    -0.047 A 
ATOM     14  C   UNL     1       6.520  -0.105  -2.953  0.00  0.00    +0.005 A 
ATOM     15  C   UNL     1       6.634  -1.171  -2.082  0.00  0.00    +0.024 A 
ATOM     16  C   UNL     1       5.555  -1.535  -1.286  0.00  0.00    +0.037 A 
ATOM     17  C   UNL     1       4.365  -0.824  -1.369  0.00  0.00    +0.027 A 
ATOM     18  C   UNL     1       4.259   0.244  -2.238  0.00  0.00    -0.046 A 
ATOM     19  C   UNL     1       2.970   1.020  -2.324  0.00  0.00    +0.044 C 
ENDBRANCH   6  16
ENDBRANCH   2   8
ENDBRANCH   1   4
BRANCH   1  20
ATOM     20  C   UNL     1       4.050  -9.169   0.002  0.00  0.00    -0.020 C 
BRANCH  20  21
ATOM     21  C   UNL     1       5.519  -9.473  -0.143  0.00  0.00    -0.059 A 
ATOM     22  C   UNL     1       6.026  -9.855  -1.372  0.00  0.00    +0.004 A 
ATOM     23  C   UNL     1       7.371 -10.134  -1.504  0.00  0.00    +0.023 A 
ATOM     24  C   UNL     1       8.215 -10.030  -0.404  0.00  0.00    +0.033 A 
ATOM     25  C   UNL     1       7.707  -9.644   0.826  0.00  0.00    -0.026 A 
ATOM     26  C   UNL     1       6.356  -9.363   0.950  0.00  0.00    +0.007 A 
ATOM     27  C   UNL     1       8.593  -9.511   2.037  0.00  0.00    +0.038 C 
ATOM     28  C   UNL     1       9.880 -10.313   1.849  0.00  0.00    +0.024 C 
ATOM     29  C   UNL     1      10.511  -9.931   0.504  0.00  0.00    +0.105 C 
ATOM     30  N   UNL     1       9.575 -10.323  -0.559  0.00  0.00    -0.333 N 
ATOM     31  C   UNL     1      10.057 -11.009  -1.760  0.00  0.00    +0.129 C 
ENDBRANCH  20  21
BRANCH  20  32
ATOM     32  N   UNL     1       3.269 -10.143  -0.773  0.00  0.00    +0.385 N 
ATOM     33  C   UNL     1       3.548 -11.521  -0.293  0.00  0.00    -0.078 C 
ATOM     34  C   UNL     1       2.307 -12.318  -0.766  0.00  0.00    -0.020 C 
ATOM     35  C   UNL     1       1.151 -11.311  -0.564  0.00  0.00    -0.020 C 
ATOM     36  C   UNL     1       1.823  -9.925  -0.556  0.00  0.00    -0.078 C 
ATOM     37  H   UNL     1       3.490 -10.064  -1.754  0.00  0.00    -0.081 HD
ENDBRANCH  20  32
ENDBRANCH   1  20
TORSDOF 6
