REMARK  Name = ZINC01800720
REMARK  11 active torsions:
REMARK  status: ('A' for Active; 'I' for Inactive)
REMARK    1  A    between atoms: C_1  and  C_2
REMARK    2  A    between atoms: C_5  and  N_8
REMARK    3  A    between atoms: C_20  and  S_21
REMARK    4  A    between atoms: S_21  and  C_22
REMARK    5  A    between atoms: C_22  and  C_24
REMARK    6  A    between atoms: C_22  and  C_25
REMARK    7  A    between atoms: N_27  and  C_28
REMARK    8  A    between atoms: C_28  and  C_29
REMARK    9  A    between atoms: C_37  and  C_40
REMARK   10  A    between atoms: C_40  and  C_41
REMARK   11  A    between atoms: C_40  and  C_42
REMARK                            x       y       z     vdW  Elec       q    Type
REMARK                         _______ _______ _______ _____ _____    ______ ____
ROOT
ATOM      1  N   UNL     1       0.059  -4.170  -0.021  0.00  0.00    -0.245 N 
ATOM      2  C   UNL     1      -0.035  -4.823  -1.191  0.00  0.00    +0.268 A 
ATOM      3  O   UNL     1      -0.136  -4.199  -2.232  0.00  0.00    -0.266 OA
ATOM      4  C   UNL     1      -0.016  -6.303  -1.211  0.00  0.00    +0.075 A 
ATOM      5  C   UNL     1      -0.109  -7.192  -2.366  0.00  0.00    -0.018 A 
ATOM      6  C   UNL     1      -0.064  -8.510  -2.077  0.00  0.00    +0.021 A 
ATOM      7  S   UNL     1       0.098  -8.575  -0.320  0.00  0.00    -0.072 S 
ATOM      8  C   UNL     1       0.103  -6.938   0.021  0.00  0.00    +0.102 A 
ATOM      9  N   UNL     1       0.196  -6.224   1.198  0.00  0.00    -0.249 N 
ATOM     10  C   UNL     1       0.179  -4.854   1.179  0.00  0.00    +0.245 A 
ATOM     11  N   UNL     1       0.287  -4.431   2.416  0.00  0.00    -0.109 NA
ATOM     12  N   UNL     1       0.381  -5.550   3.252  0.00  0.00    -0.120 NA
ATOM     13  C   UNL     1       0.318  -6.623   2.503  0.00  0.00    +0.199 A 
ATOM     14  C   UNL     1      -0.141  -9.631  -3.067  0.00  0.00    +0.203 C 
ATOM     15  O   UNL     1      -0.592  -9.082  -4.316  0.00  0.00    -0.371 OA
ATOM     16  C   UNL     1       0.119  -7.909  -4.719  0.00  0.00    +0.126 C 
ATOM     17  C   UNL     1      -0.247  -6.729  -3.810  0.00  0.00    +0.068 C 
ENDROOT
BRANCH   1  22
ATOM     18  C   UNL     1      -0.017   1.503   0.008  0.00  0.00    +0.044 C 
ATOM     19  C   UNL     1       0.003  -0.004   0.001  0.00  0.00    -0.050 A 
ATOM     20  C   UNL     1       1.206  -0.677  -0.110  0.00  0.00    +0.005 A 
ATOM     21  C   UNL     1       1.228  -2.058  -0.117  0.00  0.00    +0.026 A 
ATOM     22  C   UNL     1       0.040  -2.771  -0.013  0.00  0.00    +0.053 A 
ATOM     23  C   UNL     1      -1.166  -2.091   0.098  0.00  0.00    +0.026 A 
ATOM     24  C   UNL     1      -1.181  -0.710   0.109  0.00  0.00    +0.005 A 
ENDBRANCH   1  22
BRANCH  16  25
ATOM     25  C   UNL     1      -0.248  -7.564  -6.164  0.00  0.00    +0.012 C 
ATOM     26  C   UNL     1       0.130  -8.732  -7.078  0.00  0.00    +0.010 C 
ATOM     27  C   UNL     1      -1.753  -7.308  -6.260  0.00  0.00    +0.010 C 
ENDBRANCH  16  25
BRANCH  13  28
ATOM     28  S   UNL     1       0.394  -8.289   3.072  0.00  0.00    -0.073 S 
BRANCH  28  29
ATOM     29  C   UNL     1       0.550  -8.130   4.873  0.00  0.00    +0.137 C 
ATOM     30  C   UNL     1      -0.722  -7.499   5.441  0.00  0.00    +0.029 C 
BRANCH  29  31
ATOM     31  C   UNL     1       0.749  -9.494   5.482  0.00  0.00    +0.226 C 
ATOM     32  O   UNL     1       0.429 -10.487   4.863  0.00  0.00    -0.275 OA
ATOM     33  N   UNL     1       1.282  -9.611   6.714  0.00  0.00    -0.310 N 
ATOM     34  H   UNL     1       1.538  -8.816   7.209  0.00  0.00    +0.149 HD
BRANCH  33  35
ATOM     35  C   UNL     1       1.476 -10.937   7.306  0.00  0.00    +0.139 C 
BRANCH  35  36
ATOM     36  C   UNL     1       2.083 -10.790   8.678  0.00  0.00    -0.030 A 
ATOM     37  C   UNL     1       3.458 -10.772   8.827  0.00  0.00    +0.005 A 
ATOM     38  C   UNL     1       4.014 -10.638  10.085  0.00  0.00    +0.000 A 
ATOM     39  C   UNL     1       3.197 -10.522  11.194  0.00  0.00    +0.000 A 
ATOM     40  C   UNL     1       1.823 -10.540  11.045  0.00  0.00    +0.000 A 
ATOM     41  C   UNL     1       1.266 -10.669   9.786  0.00  0.00    +0.005 A 
ENDBRANCH  35  36
ENDBRANCH  33  35
ENDBRANCH  29  31
ENDBRANCH  28  29
ENDBRANCH  13  28
TORSDOF 7
