REMARK  Name = ZINC43209794
REMARK  8 active torsions:
REMARK  status: ('A' for Active; 'I' for Inactive)
REMARK    1  A    between atoms: C_4  and  C_7
REMARK    2  A    between atoms: C_7  and  C_8
REMARK    3  A    between atoms: C_8  and  C_10
REMARK    4  A    between atoms: C_8  and  N_16
REMARK    5  A    between atoms: C_17  and  C_19
REMARK    6  A    between atoms: C_22  and  C_24
REMARK    7  A    between atoms: N_27  and  C_30
REMARK    8  A    between atoms: C_28  and  N_29
REMARK                            x       y       z     vdW  Elec       q    Type
REMARK                         _______ _______ _______ _____ _____    ______ ____
ROOT
ATOM      1  C   UNL     1       4.659   1.698   4.062  0.00  0.00    +0.164 A 
ATOM      2  C   UNL     1       4.629   1.940   5.401  0.00  0.00    +0.230 A 
ATOM      3  O   UNL     1       4.946   3.234   5.578  0.00  0.00    -0.443 OA
ATOM      4  C   UNL     1       5.168   3.782   4.370  0.00  0.00    +0.233 A 
ATOM      5  N   UNL     1       5.003   2.863   3.449  0.00  0.00    -0.204 NA
ENDROOT
BRANCH   4   6
ATOM      6  C   UNL     1       5.542   5.187   4.122  0.00  0.00    +0.096 A 
ATOM      7  C   UNL     1       5.772   5.782   2.863  0.00  0.00    +0.150 A 
ATOM      8  N   UNL     1       6.080   7.037   3.051  0.00  0.00    -0.172 NA
ATOM      9  N   UNL     1       6.064   7.312   4.423  0.00  0.00    -0.218 N 
ATOM     10  C   UNL     1       5.727   6.172   5.082  0.00  0.00    +0.132 A 
BRANCH   9  11
ATOM     11  C   UNL     1       6.343   8.551   5.015  0.00  0.00    +0.067 A 
ATOM     12  C   UNL     1       5.664   8.943   6.161  0.00  0.00    +0.028 A 
ATOM     13  C   UNL     1       5.942  10.165   6.742  0.00  0.00    +0.002 A 
ATOM     14  C   UNL     1       6.895  10.997   6.184  0.00  0.00    +0.000 A 
ATOM     15  C   UNL     1       7.572  10.610   5.043  0.00  0.00    +0.002 A 
ATOM     16  C   UNL     1       7.304   9.386   4.460  0.00  0.00    +0.028 A 
ENDBRANCH   9  11
BRANCH  10  17
ATOM     17  N   UNL     1       5.595   6.022   6.452  0.00  0.00    -0.342 N 
ATOM     18  H   UNL     1       5.351   5.160   6.824  0.00  0.00    +0.144 HD
ATOM     19  H   UNL     1       5.747   6.779   7.040  0.00  0.00    +0.144 HD
ENDBRANCH  10  17
ENDBRANCH   4   6
BRANCH   1  21
ATOM     20  N   UNL     1       4.451   0.315   2.057  0.00  0.00    -0.303 N 
ATOM     21  C   UNL     1       4.378   0.412   3.400  0.00  0.00    +0.266 C 
ATOM     22  O   UNL     1       4.079  -0.562   4.064  0.00  0.00    -0.268 OA
ATOM     23  H   UNL     1       4.689   1.092   1.527  0.00  0.00    +0.150 HD
BRANCH  20  24
ATOM     24  C   UNL     1       4.171  -0.963   1.399  0.00  0.00    +0.108 C 
BRANCH  24  25
ATOM     25  C   UNL     1       5.422  -1.804   1.383  0.00  0.00    -0.027 A 
ATOM     26  C   UNL     1       6.648  -1.216   1.138  0.00  0.00    +0.005 A 
ATOM     27  C   UNL     1       7.795  -1.987   1.124  0.00  0.00    +0.000 A 
ATOM     28  C   UNL     1       7.715  -3.348   1.355  0.00  0.00    +0.000 A 
ATOM     29  C   UNL     1       6.489  -3.937   1.602  0.00  0.00    +0.000 A 
ATOM     30  C   UNL     1       5.343  -3.164   1.620  0.00  0.00    +0.005 A 
ENDBRANCH  24  25
BRANCH  24  31
ATOM     31  C   UNL     1       3.711  -0.707  -0.038  0.00  0.00    +0.062 C 
BRANCH  31  35
ATOM     32  C   UNL     1      -0.017   1.378   0.010  0.00  0.00    +0.000 A 
ATOM     33  C   UNL     1       1.171   2.086   0.002  0.00  0.00    +0.000 A 
ATOM     34  C   UNL     1       2.377   1.411  -0.013  0.00  0.00    +0.004 A 
ATOM     35  C   UNL     1       2.396   0.029  -0.020  0.00  0.00    -0.045 A 
ATOM     36  C   UNL     1       1.208  -0.679  -0.012  0.00  0.00    +0.004 A 
ATOM     37  C   UNL     1       0.002  -0.004   0.002  0.00  0.00    +0.000 A 
ENDBRANCH  31  35
ENDBRANCH  24  31
ENDBRANCH  20  24
ENDBRANCH   1  21
TORSDOF 8
