REMARK  Name = ZINC01871110
REMARK  12 active torsions:
REMARK  status: ('A' for Active; 'I' for Inactive)
REMARK    1  A    between atoms: C_1  and  C_2
REMARK    2  A    between atoms: C_2  and  C_3
REMARK    3  A    between atoms: C_6  and  O_9
REMARK    4  A    between atoms: O_9  and  C_10
REMARK    5  A    between atoms: C_16  and  O_35
REMARK    6  A    between atoms: C_17  and  C_25
REMARK    7  A    between atoms: C_20  and  C_21
REMARK    8  A    between atoms: C_25  and  N_62
REMARK    9  A    between atoms: C_26  and  C_27
REMARK   10  A    between atoms: C_26  and  N_62
REMARK   11  A    between atoms: C_28  and  C_29
REMARK   12  A    between atoms: C_28  and  N_62
REMARK                            x       y       z     vdW  Elec       q    Type
REMARK                         _______ _______ _______ _____ _____    ______ ____
ROOT
ATOM      1  C   UNL     1      -2.525   4.051   5.082  0.00  0.00    +0.222 A 
ATOM      2  C   UNL     1      -1.484   4.040   6.054  0.00  0.00    +0.235 A 
ATOM      3  O   UNL     1      -0.981   2.996   6.434  0.00  0.00    -0.283 OA
ATOM      4  C   UNL     1      -1.038   5.343   6.578  0.00  0.00    +0.068 A 
ATOM      5  C   UNL     1      -0.021   5.434   7.530  0.00  0.00    +0.019 A 
ATOM      6  C   UNL     1       0.362   6.659   7.996  0.00  0.00    +0.046 A 
ATOM      7  C   UNL     1      -0.256   7.816   7.527  0.00  0.00    +0.122 A 
ATOM      8  C   UNL     1      -1.266   7.743   6.583  0.00  0.00    +0.020 A 
ATOM      9  C   UNL     1      -1.667   6.505   6.099  0.00  0.00    +0.144 A 
ATOM     10  O   UNL     1      -2.649   6.405   5.180  0.00  0.00    -0.447 OA
ATOM     11  C   UNL     1      -3.059   5.226   4.694  0.00  0.00    +0.254 A 
ENDROOT
BRANCH  11  12
ATOM     12  C   UNL     1      -4.163   5.213   3.668  0.00  0.00    +0.454 C 
ATOM     13  F   UNL     1      -5.400   5.121   4.315  0.00  0.00    -0.163 F 
ATOM     14  F   UNL     1      -4.116   6.392   2.917  0.00  0.00    -0.163 F 
ATOM     15  F   UNL     1      -3.998   4.113   2.820  0.00  0.00    -0.163 F 
ENDBRANCH  11  12
BRANCH   7  16
ATOM     16  O   UNL     1       0.136   9.027   8.000  0.00  0.00    -0.506 OA
ATOM     17  H   UNL     1      -0.289   9.281   8.830  0.00  0.00    +0.292 HD
ENDBRANCH   7  16
BRANCH   1  18
ATOM     18  O   UNL     1      -2.981   2.882   4.554  0.00  0.00    -0.448 OA
BRANCH  18  22
ATOM     19  C   UNL     1      -1.159   1.461   1.137  0.00  0.00    -0.047 A 
ATOM     20  C   UNL     1      -0.724   2.641   1.710  0.00  0.00    +0.007 A 
ATOM     21  C   UNL     1      -1.336   3.123   2.852  0.00  0.00    +0.046 A 
ATOM     22  C   UNL     1      -2.381   2.414   3.429  0.00  0.00    +0.129 A 
ATOM     23  C   UNL     1      -2.812   1.227   2.854  0.00  0.00    +0.046 A 
ATOM     24  C   UNL     1      -2.200   0.753   1.709  0.00  0.00    +0.007 A 
BRANCH  19  26
ATOM     25  C   UNL     1      -1.212   1.500  -1.342  0.00  0.00    +0.009 C 
ATOM     26  C   UNL     1      -0.494   0.942  -0.112  0.00  0.00    +0.032 C 
ENDBRANCH  19  26
ENDBRANCH  18  22
ENDBRANCH   1  18
BRANCH   8  27
ATOM     27  C   UNL     1      -1.929   9.001   6.084  0.00  0.00    -0.035 C 
BRANCH  27  28
ATOM     28  N   UNL     1      -3.192   9.197   6.825  0.00  0.00    +0.385 N 
ATOM     29  H   UNL     1      -3.671   8.293   6.914  0.00  0.00    -0.081 HD
BRANCH  28  30
ATOM     30  C   UNL     1      -2.909   9.726   8.175  0.00  0.00    -0.081 C 
ATOM     31  C   UNL     1      -2.270  11.113   8.085  0.00  0.00    -0.017 C 
ENDBRANCH  28  30
BRANCH  28  32
ATOM     32  C   UNL     1      -4.069  10.133   6.089  0.00  0.00    -0.043 C 
BRANCH  32  33
ATOM     33  C   UNL     1      -5.463  10.036   6.654  0.00  0.00    -0.064 A 
ATOM     34  C   UNL     1      -6.317   9.040   6.219  0.00  0.00    +0.002 A 
ATOM     35  C   UNL     1      -7.594   8.948   6.741  0.00  0.00    +0.000 A 
ATOM     36  C   UNL     1      -8.020   9.859   7.690  0.00  0.00    +0.000 A 
ATOM     37  C   UNL     1      -7.167  10.858   8.121  0.00  0.00    +0.000 A 
ATOM     38  C   UNL     1      -5.889  10.947   7.603  0.00  0.00    +0.002 A 
ENDBRANCH  32  33
ENDBRANCH  28  32
ENDBRANCH  27  28
ENDBRANCH   8  27
TORSDOF 10
