REMARK  Name = ZINC35471070
REMARK  7 active torsions:
REMARK  status: ('A' for Active; 'I' for Inactive)
REMARK    1  A    between atoms: C_6  and  C_7
REMARK    2  A    between atoms: C_10  and  C_15
REMARK    3  A    between atoms: C_15  and  C_16
REMARK    4  A    between atoms: C_16  and  N_17
REMARK    5  A    between atoms: N_17  and  C_18
REMARK    6  A    between atoms: C_18  and  C_19
REMARK    7  A    between atoms: N_27  and  C_28
REMARK                            x       y       z     vdW  Elec       q    Type
REMARK                         _______ _______ _______ _____ _____    ______ ____
ROOT
ATOM      1  N   UNL     1      -1.984  -6.643  -1.428  0.00  0.00    -0.283 N 
ATOM      2  C   UNL     1      -0.645  -6.766  -1.336  0.00  0.00    +0.303 C 
ATOM      3  O   UNL     1       0.052  -5.774  -1.248  0.00  0.00    -0.253 OA
ATOM      4  N   UNL     1      -0.078  -7.989  -1.342  0.00  0.00    -0.294 N 
ATOM      5  H   UNL     1      -0.634  -8.781  -1.412  0.00  0.00    +0.151 HD
ENDROOT
BRANCH   4   6
ATOM      6  C   UNL     1       1.377  -8.123  -1.242  0.00  0.00    +0.037 C 
ATOM      7  C   UNL     1       1.858  -7.499   0.070  0.00  0.00    +0.029 C 
ATOM      8  C   UNL     1       3.378  -7.638   0.174  0.00  0.00    -0.008 C 
ATOM      9  C   UNL     1       3.757  -9.120   0.145  0.00  0.00    +0.007 C 
ATOM     10  C   UNL     1       3.276  -9.744  -1.167  0.00  0.00    -0.008 C 
ATOM     11  C   UNL     1       1.756  -9.605  -1.271  0.00  0.00    +0.029 C 
ATOM     12  C   UNL     1       3.937  -9.026  -2.345  0.00  0.00    +0.007 C 
ATOM     13  C   UNL     1       3.557  -7.544  -2.317  0.00  0.00    -0.008 C 
ATOM     14  C   UNL     1       4.038  -6.920  -1.005  0.00  0.00    +0.007 C 
ATOM     15  C   UNL     1       2.037  -7.404  -2.421  0.00  0.00    +0.029 C 
ENDBRANCH   4   6
BRANCH   1  16
ATOM     16  C   UNL     1      -2.599  -5.314  -1.422  0.00  0.00    +0.115 C 
BRANCH  16  17
ATOM     17  C   UNL     1      -2.917  -4.905   0.018  0.00  0.00    +0.073 C 
BRANCH  17  21
ATOM     18  C   UNL     1      -1.271  -0.765   0.011  0.00  0.00    +0.090 A 
ATOM     19  C   UNL     1      -1.391  -2.115   0.010  0.00  0.00    +0.121 A 
ATOM     20  N   UNL     1      -2.749  -2.417   0.020  0.00  0.00    -0.297 N 
ATOM     21  C   UNL     1      -3.550  -3.538   0.024  0.00  0.00    +0.034 A 
ATOM     22  C   UNL     1      -4.878  -3.428   0.034  0.00  0.00    +0.070 A 
ATOM     23  S   UNL     1      -5.101  -1.656   0.038  0.00  0.00    -0.057 S 
ATOM     24  C   UNL     1      -3.382  -1.201   0.026  0.00  0.00    +0.178 A 
ATOM     25  N   UNL     1      -2.511  -0.235   0.026  0.00  0.00    -0.221 NA
BRANCH  18  31
ATOM     26  C   UNL     1      -0.017   1.389   0.010  0.00  0.00    +0.013 A 
ATOM     27  C   UNL     1       1.170   2.094   0.002  0.00  0.00    +0.039 A 
ATOM     28  C   UNL     1       2.379   1.417  -0.013  0.00  0.00    +0.123 A 
ATOM     29  C   UNL     1       2.402   0.032  -0.022  0.00  0.00    +0.039 A 
ATOM     30  C   UNL     1       1.221  -0.680  -0.014  0.00  0.00    +0.013 A 
ATOM     31  C   UNL     1       0.002  -0.004   0.002  0.00  0.00    +0.002 A 
ATOM     32  F   UNL     1       3.538   2.111  -0.021  0.00  0.00    -0.205 F 
ENDBRANCH  18  31
ENDBRANCH  17  21
ENDBRANCH  16  17
ENDBRANCH   1  16
BRANCH   1  33
ATOM     33  C   UNL     1      -2.824  -7.839  -1.534  0.00  0.00    +0.140 C 
BRANCH  33  34
ATOM     34  C   UNL     1      -3.012  -8.200  -3.008  0.00  0.00    +0.136 C 
ATOM     35  C   UNL     1      -3.993  -9.386  -3.135  0.00  0.00    +0.035 C 
ATOM     36  C   UNL     1      -3.354 -10.222  -4.277  0.00  0.00    +0.031 C 
ATOM     37  C   UNL     1      -1.847  -9.976  -4.013  0.00  0.00    +0.160 C 
ATOM     38  O   UNL     1      -1.761  -8.610  -3.572  0.00  0.00    -0.375 OA
ENDBRANCH  33  34
ENDBRANCH   1  33
TORSDOF 7
