REMARK  Name = ZINC11847381
REMARK  8 active torsions:
REMARK  status: ('A' for Active; 'I' for Inactive)
REMARK    1  A    between atoms: C_1  and  C_2
REMARK    2  A    between atoms: C_5  and  C_8
REMARK    3  A    between atoms: N_12  and  C_13
REMARK    4  A    between atoms: N_19  and  C_20
REMARK    5  A    between atoms: C_20  and  C_21
REMARK    6  A    between atoms: C_21  and  C_23
REMARK    7  A    between atoms: C_21  and  O_32
REMARK    8  A    between atoms: C_26  and  N_29
REMARK                            x       y       z     vdW  Elec       q    Type
REMARK                         _______ _______ _______ _____ _____    ______ ____
ROOT
ATOM      1  C   UNL     1       3.702  -0.688  -0.010  0.00  0.00    +0.058 A 
ATOM      2  C   UNL     1       3.737  -2.033   0.092  0.00  0.00    +0.075 A 
ATOM      3  S   UNL     1       5.487  -2.370  -0.015  0.00  0.00    -0.059 S 
ATOM      4  C   UNL     1       6.055  -0.685  -0.180  0.00  0.00    +0.152 A 
ATOM      5  N   UNL     1       7.287  -0.229  -0.304  0.00  0.00    -0.336 N 
ATOM      6  N   UNL     1       4.870   0.011  -0.146  0.00  0.00    -0.318 N 
ATOM      7  H   UNL     1       7.474   0.855  -0.313  0.00  0.00    +0.168 HD
ENDROOT
BRANCH   1  12
ATOM      8  C   UNL     1      -1.331   2.099   0.154  0.00  0.00    +0.044 C 
ATOM      9  C   UNL     1      -0.015   1.366   0.109  0.00  0.00    -0.050 A 
ATOM     10  C   UNL     1       0.307   0.466   1.109  0.00  0.00    +0.004 A 
ATOM     11  C   UNL     1       1.513  -0.204   1.077  0.00  0.00    +0.010 A 
ATOM     12  C   UNL     1       2.408   0.027   0.032  0.00  0.00    -0.001 A 
ATOM     13  C   UNL     1       2.077   0.936  -0.975  0.00  0.00    +0.010 A 
ATOM     14  C   UNL     1       0.868   1.599  -0.931  0.00  0.00    +0.004 A 
ENDBRANCH   1  12
BRANCH   5  15
ATOM     15  C   UNL     1       8.332  -1.104  -0.420  0.00  0.00    +0.041 A 
ATOM     16  C   UNL     1       9.061  -1.480   0.711  0.00  0.00    +0.025 A 
ATOM     17  C   UNL     1      10.110  -2.367   0.588  0.00  0.00    +0.002 A 
ATOM     18  C   UNL     1      10.447  -2.876  -0.654  0.00  0.00    +0.000 A 
ATOM     19  C   UNL     1       9.733  -2.504  -1.780  0.00  0.00    +0.002 A 
ATOM     20  C   UNL     1       8.678  -1.622  -1.670  0.00  0.00    +0.025 A 
ENDBRANCH   5  15
BRANCH   6  21
ATOM     21  C   UNL     1       4.859   1.472  -0.254  0.00  0.00    +0.160 C 
BRANCH  21  22
ATOM     22  C   UNL     1       5.055   2.087   1.133  0.00  0.00    +0.164 C 
BRANCH  22  23
ATOM     23  C   UNL     1       4.921   3.585   1.042  0.00  0.00    -0.017 A 
ATOM     24  C   UNL     1       5.984   4.348   0.597  0.00  0.00    +0.008 A 
ATOM     25  C   UNL     1       5.860   5.722   0.509  0.00  0.00    +0.033 A 
ATOM     26  C   UNL     1       4.675   6.334   0.875  0.00  0.00    +0.126 A 
ATOM     27  C   UNL     1       3.614   5.571   1.325  0.00  0.00    +0.033 A 
ATOM     28  C   UNL     1       3.736   4.197   1.409  0.00  0.00    +0.008 A 
BRANCH  26  29
ATOM     29  N   UNL     1       4.543   7.805   0.784  0.00  0.00    +0.056 N 
ATOM     30  O   UNL     1       3.499   8.344   1.106  0.00  0.00    -0.126 OA
ATOM     31  O   UNL     1       5.478   8.477   0.388  0.00  0.00    -0.126 OA
ENDBRANCH  26  29
ENDBRANCH  22  23
BRANCH  22  32
ATOM     32  O   UNL     1       6.356   1.754   1.623  0.00  0.00    -0.385 OA
ATOM     33  H   UNL     1       6.679   2.111   2.612  0.00  0.00    +0.210 HD
ENDBRANCH  22  32
ENDBRANCH  21  22
ENDBRANCH   6  21
TORSDOF 7
