REMARK  Name = ZINC35919921
REMARK  8 active torsions:
REMARK  status: ('A' for Active; 'I' for Inactive)
REMARK    1  A    between atoms: C_1  and  C_2
REMARK    2  A    between atoms: C_5  and  N_8
REMARK    3  A    between atoms: C_18  and  N_20
REMARK    4  A    between atoms: N_20  and  C_21
REMARK    5  A    between atoms: N_20  and  C_22
REMARK    6  A    between atoms: N_24  and  S_27
REMARK    7  A    between atoms: S_27  and  C_30
REMARK    8  A    between atoms: C_34  and  C_36
REMARK                            x       y       z     vdW  Elec       q    Type
REMARK                         _______ _______ _______ _____ _____    ______ ____
ROOT
ATOM      1  N   UNL     1       2.467  -4.141  -0.032  0.00  0.00    -0.327 N 
ATOM      2  C   UNL     1       2.597  -4.895   1.223  0.00  0.00    +0.124 C 
ATOM      3  C   UNL     1       1.417  -5.869   1.333  0.00  0.00    +0.127 C 
ATOM      4  N   UNL     1       1.301  -6.611   0.070  0.00  0.00    -0.298 N 
ATOM      5  C   UNL     1       1.171  -5.857  -1.185  0.00  0.00    +0.127 C 
ATOM      6  C   UNL     1       2.345  -4.883  -1.295  0.00  0.00    +0.124 C 
ATOM      7  C   UNL     1       1.313  -7.995   0.062  0.00  0.00    +0.198 A 
ATOM      8  N   UNL     1       1.312  -8.646   1.213  0.00  0.00    -0.331 N 
ATOM      9  C   UNL     1       1.320  -9.977   1.254  0.00  0.00    +0.028 A 
ATOM     10  C   UNL     1       1.324 -10.676   0.072  0.00  0.00    +0.027 A 
ATOM     11  C   UNL     1       1.333  -9.961  -1.132  0.00  0.00    +0.130 A 
ATOM     12  N   UNL     1       1.321  -8.634  -1.098  0.00  0.00    -0.201 NA
ATOM     13  C   UNL     1       1.305 -12.180   0.018  0.00  0.00    +0.149 C 
ATOM     14  N   UNL     1       1.563 -12.722   1.358  0.00  0.00    -0.172 NA
ATOM     15  C   UNL     1       0.858 -12.096   2.489  0.00  0.00    +0.116 C 
ATOM     16  C   UNL     1       1.334 -10.648   2.600  0.00  0.00    +0.071 C 
ATOM     17  H   UNL     1       1.305  -8.145   2.044  0.00  0.00    +0.168 HD
ENDROOT
BRANCH   1  22
ATOM     18  C   UNL     1       2.414   1.530   0.000  0.00  0.00    +0.044 C 
ATOM     19  C   UNL     1       2.428   0.023  -0.008  0.00  0.00    -0.050 A 
ATOM     20  C   UNL     1       2.435  -0.660  -1.211  0.00  0.00    +0.005 A 
ATOM     21  C   UNL     1       2.448  -2.041  -1.222  0.00  0.00    +0.023 A 
ATOM     22  C   UNL     1       2.454  -2.744  -0.024  0.00  0.00    +0.030 A 
ATOM     23  C   UNL     1       2.448  -2.055   1.182  0.00  0.00    +0.023 A 
ATOM     24  C   UNL     1       2.441  -0.674   1.186  0.00  0.00    +0.005 A 
ENDBRANCH   1  22
BRANCH  11  25
ATOM     25  N   UNL     1       1.348 -10.631  -2.345  0.00  0.00    -0.321 N 
ATOM     26  C   UNL     1       0.092 -10.900  -3.049  0.00  0.00    +0.130 C 
ATOM     27  C   UNL     1       2.621 -11.071  -2.922  0.00  0.00    +0.130 C 
ENDBRANCH  11  25
BRANCH  14  28
ATOM     28  S   UNL     1       2.607 -13.987   1.588  0.00  0.00    +0.061 S 
ATOM     29  O   UNL     1       2.225 -14.612   2.806  0.00  0.00    -0.153 OA
ATOM     30  O   UNL     1       2.667 -14.694   0.356  0.00  0.00    -0.153 OA
BRANCH  28  31
ATOM     31  C   UNL     1       4.207 -13.301   1.853  0.00  0.00    +0.106 A 
ATOM     32  C   UNL     1       5.045 -13.066   0.779  0.00  0.00    +0.028 A 
ATOM     33  C   UNL     1       6.301 -12.527   0.987  0.00  0.00    +0.002 A 
ATOM     34  C   UNL     1       6.719 -12.223   2.270  0.00  0.00    +0.003 A 
ATOM     35  C   UNL     1       5.881 -12.458   3.343  0.00  0.00    -0.049 A 
ATOM     36  C   UNL     1       4.623 -12.992   3.135  0.00  0.00    +0.032 A 
ATOM     37  C   UNL     1       6.337 -12.127   4.741  0.00  0.00    +0.044 C 
ENDBRANCH  28  31
ENDBRANCH  14  28
TORSDOF 4
