REMARK  Name = ZINC59311250
REMARK  5 active torsions:
REMARK  status: ('A' for Active; 'I' for Inactive)
REMARK    1  A    between atoms: C_3  and  N_9
REMARK    2  A    between atoms: C_10  and  C_12
REMARK    3  A    between atoms: C_12  and  S_13
REMARK    4  A    between atoms: S_13  and  C_14
REMARK    5  A    between atoms: N_19  and  N_20
REMARK                            x       y       z     vdW  Elec       q    Type
REMARK                         _______ _______ _______ _____ _____    ______ ____
ROOT
ATOM      1  C   UNL     1       6.102   6.751  -0.486  0.00  0.00    +0.211 A 
ATOM      2  N   UNL     1       6.341   8.063  -0.586  0.00  0.00    -0.186 NA
ATOM      3  C   UNL     1       7.639   8.272  -0.666  0.00  0.00    +0.232 A 
ATOM      4  N   UNL     1       8.258   7.074  -0.618  0.00  0.00    -0.245 N 
ATOM      5  N   UNL     1       7.245   6.108  -0.497  0.00  0.00    -0.144 NA
ATOM      6  N   UNL     1       8.259   9.504  -0.781  0.00  0.00    -0.205 N 
ATOM      7  H   UNL     1       9.226   9.557  -0.834  0.00  0.00    +0.177 HD
ATOM      8  H   UNL     1       9.213   6.912  -0.656  0.00  0.00    +0.192 HD
ENDROOT
BRANCH   6   9
ATOM      9  N   UNL     1       7.490  10.674  -0.821  0.00  0.00    -0.189 NA
ATOM     10  C   UNL     1       8.055  11.805  -1.024  0.00  0.00    +0.037 C 
ATOM     11  C   UNL     1       9.574  11.900  -1.121  0.00  0.00    +0.052 C 
ATOM     12  C   UNL     1       9.989  12.874  -2.190  0.00  0.00    +0.006 C 
ATOM     13  C   UNL     1      10.110  14.284  -1.596  0.00  0.00    +0.000 C 
ATOM     14  C   UNL     1       8.814  14.955  -1.466  0.00  0.00    +0.000 C 
ATOM     15  C   UNL     1       7.872  14.239  -0.489  0.00  0.00    +0.006 C 
ATOM     16  C   UNL     1       7.215  13.069  -1.179  0.00  0.00    +0.052 C 
ENDBRANCH   6   9
BRANCH   1  17
ATOM     17  S   UNL     1       4.510   6.008  -0.354  0.00  0.00    -0.075 S 
BRANCH  17  18
ATOM     18  C   UNL     1       4.863   4.232  -0.245  0.00  0.00    +0.173 C 
BRANCH  18  20
ATOM     19  N   UNL     1       3.585   2.125  -0.032  0.00  0.00    -0.284 N 
ATOM     20  C   UNL     1       3.569   3.469  -0.127  0.00  0.00    +0.228 C 
ATOM     21  O   UNL     1       2.512   4.065  -0.117  0.00  0.00    -0.275 OA
ATOM     22  H   UNL     1       4.430   1.654   0.042  0.00  0.00    +0.155 HD
BRANCH  19  25
ATOM     23  C   UNL     1       0.068   1.240  -0.642  0.00  0.00    +0.017 A 
ATOM     24  C   UNL     1       1.253   1.950  -0.636  0.00  0.00    +0.025 A 
ATOM     25  C   UNL     1       2.382   1.408  -0.038  0.00  0.00    +0.048 A 
ATOM     26  C   UNL     1       2.317   0.152   0.553  0.00  0.00    +0.040 A 
ATOM     27  C   UNL     1       1.129  -0.553   0.544  0.00  0.00    +0.032 A 
ATOM     28  C   UNL     1       0.005  -0.009  -0.053  0.00  0.00    +0.019 A 
ATOM     29 BR   UNL     1      -1.619  -0.977  -0.063  0.00  0.00    -0.050 Br
ATOM     30 BR   UNL     1       3.853  -0.591   1.368  0.00  0.00    -0.048 Br
ENDBRANCH  19  25
ENDBRANCH  18  20
ENDBRANCH  17  18
ENDBRANCH   1  17
TORSDOF 5
