REMARK  Name = ZINC39725740
REMARK  7 active torsions:
REMARK  status: ('A' for Active; 'I' for Inactive)
REMARK    1  A    between atoms: C_1  and  O_2
REMARK    2  A    between atoms: O_2  and  C_3
REMARK    3  A    between atoms: C_8  and  N_9
REMARK    4  A    between atoms: C_10  and  S_24
REMARK    5  A    between atoms: S_24  and  C_25
REMARK    6  A    between atoms: C_25  and  C_26
REMARK    7  A    between atoms: N_28  and  C_29
REMARK                            x       y       z     vdW  Elec       q    Type
REMARK                         _______ _______ _______ _____ _____    ______ ____
ROOT
ATOM      1  N   UNL     1       0.373  -2.760   0.219  0.00  0.00    -0.231 N 
ATOM      2  C   UNL     1       0.853  -3.073  -1.129  0.00  0.00    +0.259 C 
ATOM      3  N   UNL     1      -0.013  -3.783  -2.074  0.00  0.00    -0.248 NA
ATOM      4  C   UNL     1      -1.205  -4.140  -1.732  0.00  0.00    +0.101 C 
ATOM      5  C   UNL     1      -2.317  -4.849  -2.407  0.00  0.00    +0.028 A 
ATOM      6  C   UNL     1      -2.493  -5.394  -3.664  0.00  0.00    +0.012 A 
ATOM      7  C   UNL     1      -3.694  -6.007  -3.990  0.00  0.00    +0.001 A 
ATOM      8  C   UNL     1      -4.716  -6.072  -3.060  0.00  0.00    +0.002 A 
ATOM      9  C   UNL     1      -4.558  -5.532  -1.798  0.00  0.00    +0.028 A 
ATOM     10  C   UNL     1      -3.353  -4.910  -1.449  0.00  0.00    +0.074 A 
ATOM     11  N   UNL     1      -2.946  -4.311  -0.302  0.00  0.00    -0.240 NA
ATOM     12  C   UNL     1      -1.732  -3.842  -0.373  0.00  0.00    +0.152 C 
ATOM     13  C   UNL     1      -0.869  -3.131   0.594  0.00  0.00    +0.274 C 
ATOM     14  O   UNL     1      -1.275  -2.881   1.712  0.00  0.00    -0.268 OA
ENDROOT
BRANCH   1  20
ATOM     15  C   UNL     1       1.990  -2.798   2.020  0.00  0.00    +0.141 A 
ATOM     16  C   UNL     1       2.814  -2.121   2.905  0.00  0.00    +0.047 A 
ATOM     17  C   UNL     1       2.851  -0.739   2.897  0.00  0.00    +0.004 A 
ATOM     18  C   UNL     1       2.067  -0.028   2.007  0.00  0.00    +0.002 A 
ATOM     19  C   UNL     1       1.243  -0.695   1.121  0.00  0.00    +0.027 A 
ATOM     20  C   UNL     1       1.204  -2.082   1.119  0.00  0.00    +0.081 A 
BRANCH  15  22
ATOM     21  C   UNL     1       2.785  -4.824   2.978  0.00  0.00    +0.277 C 
ATOM     22  O   UNL     1       1.952  -4.157   2.027  0.00  0.00    -0.493 OA
ENDBRANCH  15  22
ENDBRANCH   1  20
BRANCH   2  23
ATOM     23  S   UNL     1       1.328  -1.506  -1.909  0.00  0.00    -0.106 S 
BRANCH  23  24
ATOM     24  C   UNL     1      -0.238  -0.604  -2.073  0.00  0.00    +0.168 C 
BRANCH  24  25
ATOM     25  C   UNL     1       0.005   0.700  -2.788  0.00  0.00    +0.227 C 
ATOM     26  O   UNL     1       1.125   0.992  -3.152  0.00  0.00    -0.275 OA
ATOM     27  N   UNL     1      -1.021   1.541  -3.023  0.00  0.00    -0.284 N 
ATOM     28  H   UNL     1      -1.926   1.277  -2.795  0.00  0.00    +0.155 HD
BRANCH  27  29
ATOM     29  C   UNL     1      -0.781   2.791  -3.596  0.00  0.00    +0.041 A 
ATOM     30  C   UNL     1       0.223   2.949  -4.526  0.00  0.00    +0.024 A 
ATOM     31  C   UNL     1       0.470   4.191  -5.103  0.00  0.00    +0.002 A 
ATOM     32  C   UNL     1      -0.271   5.283  -4.766  0.00  0.00    +0.008 A 
ATOM     33  C   UNL     1      -1.305   5.164  -3.822  0.00  0.00    -0.016 A 
ATOM     34  C   UNL     1      -1.569   3.904  -3.232  0.00  0.00    +0.003 A 
ATOM     35  C   UNL     1      -2.606   3.786  -2.292  0.00  0.00    +0.010 A 
ATOM     36  C   UNL     1      -3.345   4.881  -1.964  0.00  0.00    +0.001 A 
ATOM     37  C   UNL     1      -3.090   6.120  -2.549  0.00  0.00    +0.001 A 
ATOM     38  C   UNL     1      -2.087   6.274  -3.455  0.00  0.00    +0.008 A 
ENDBRANCH  27  29
ENDBRANCH  24  25
ENDBRANCH  23  24
ENDBRANCH   2  23
TORSDOF 6
