REMARK  Name = ZINC63373289
REMARK  9 active torsions:
REMARK  status: ('A' for Active; 'I' for Inactive)
REMARK    1  A    between atoms: C_1  and  C_2
REMARK    2  A    between atoms: C_5  and  C_8
REMARK    3  A    between atoms: N_26  and  C_29
REMARK    4  A    between atoms: C_34  and  C_35
REMARK    5  A    between atoms: N_37  and  C_38
REMARK    6  A    between atoms: C_38  and  C_39
REMARK    7  A    between atoms: C_39  and  C_40
REMARK    8  A    between atoms: C_40  and  C_41
REMARK    9  A    between atoms: C_40  and  C_42
REMARK                            x       y       z     vdW  Elec       q    Type
REMARK                         _______ _______ _______ _____ _____    ______ ____
ROOT
ATOM      1  C   UNL     1       0.059  -4.275  -0.021  0.00  0.00    +0.135 C 
ATOM      2  C   UNL     1      -1.349  -4.817   0.259  0.00  0.00    +0.131 C 
ATOM      3  C   UNL     1      -1.198  -6.280   0.652  0.00  0.00    -0.034 C 
ATOM      4  C   UNL     1      -1.940  -6.977  -0.202  0.00  0.00    -0.001 A 
ATOM      5  C   UNL     1      -2.237  -8.416  -0.291  0.00  0.00    +0.010 A 
ATOM      6  C   UNL     1      -3.040  -8.799  -1.319  0.00  0.00    +0.001 A 
ATOM      7  C   UNL     1      -3.571  -7.905  -2.255  0.00  0.00    +0.002 A 
ATOM      8  C   UNL     1      -3.354  -6.566  -2.245  0.00  0.00    +0.026 A 
ATOM      9  C   UNL     1      -2.527  -6.042  -1.208  0.00  0.00    +0.043 A 
ATOM     10  N   UNL     1      -2.172  -4.807  -0.954  0.00  0.00    -0.375 N 
ATOM     11  C   UNL     1      -0.295  -6.745   1.772  0.00  0.00    +0.065 C 
ATOM     12  C   UNL     1       0.490  -5.509   2.243  0.00  0.00    +0.169 C 
ATOM     13  N   UNL     1       0.941  -4.769   1.044  0.00  0.00    -0.264 N 
ATOM     14  C   UNL     1       2.273  -4.671   1.126  0.00  0.00    +0.317 C 
ATOM     15  O   UNL     1       2.954  -4.024   0.355  0.00  0.00    -0.252 OA
ATOM     16  N   UNL     1       2.770  -5.369   2.156  0.00  0.00    -0.192 N 
ATOM     17  C   UNL     1       1.776  -5.942   2.912  0.00  0.00    +0.248 C 
ATOM     18  O   UNL     1       1.890  -6.645   3.893  0.00  0.00    -0.273 OA
ATOM     19  H   UNL     1      -2.407  -4.022  -1.473  0.00  0.00    +0.160 HD
ENDROOT
BRANCH   1  24
ATOM     20  C   UNL     1      -0.018   1.503   0.010  0.00  0.00    +0.044 C 
ATOM     21  C   UNL     1       0.002  -0.004   0.002  0.00  0.00    -0.050 A 
ATOM     22  C   UNL     1       0.006  -0.689  -1.199  0.00  0.00    +0.004 A 
ATOM     23  C   UNL     1       0.025  -2.071  -1.206  0.00  0.00    +0.006 A 
ATOM     24  C   UNL     1       0.040  -2.768  -0.013  0.00  0.00    -0.025 A 
ATOM     25  C   UNL     1       0.037  -2.084   1.188  0.00  0.00    +0.006 A 
ATOM     26  C   UNL     1       0.023  -0.702   1.195  0.00  0.00    +0.004 A 
ENDBRANCH   1  24
BRANCH  16  27
ATOM     27  C   UNL     1       4.133  -5.491   2.437  0.00  0.00    +0.058 A 
ATOM     28  C   UNL     1       4.756  -4.575   3.273  0.00  0.00    +0.025 A 
ATOM     29  C   UNL     1       6.103  -4.697   3.551  0.00  0.00    +0.002 A 
ATOM     30  C   UNL     1       6.842  -5.731   2.998  0.00  0.00    +0.001 A 
ATOM     31  C   UNL     1       6.239  -6.649   2.166  0.00  0.00    +0.015 A 
ATOM     32  C   UNL     1       4.876  -6.542   1.881  0.00  0.00    +0.059 A 
BRANCH  32  33
ATOM     33  C   UNL     1       4.223  -7.524   0.995  0.00  0.00    +0.246 C 
ATOM     34  O   UNL     1       3.037  -7.424   0.745  0.00  0.00    -0.270 OA
ATOM     35  N   UNL     1       4.941  -8.533   0.462  0.00  0.00    -0.311 N 
ATOM     36  H   UNL     1       5.887  -8.613   0.661  0.00  0.00    +0.149 HD
BRANCH  35  37
ATOM     37  C   UNL     1       4.293  -9.508  -0.418  0.00  0.00    +0.105 C 
BRANCH  37  38
ATOM     38  C   UNL     1       5.323 -10.540  -0.882  0.00  0.00    +0.022 C 
BRANCH  38  39
ATOM     39  C   UNL     1       4.646 -11.559  -1.801  0.00  0.00    -0.016 C 
ATOM     40  C   UNL     1       4.170 -10.859  -3.076  0.00  0.00    +0.007 C 
ATOM     41  C   UNL     1       5.645 -12.659  -2.166  0.00  0.00    +0.007 C 
ENDBRANCH  38  39
ENDBRANCH  37  38
ENDBRANCH  35  37
ENDBRANCH  32  33
ENDBRANCH  16  27
TORSDOF 6
