REMARK  Name = ZINC39674990
REMARK  8 active torsions:
REMARK  status: ('A' for Active; 'I' for Inactive)
REMARK    1  A    between atoms: C_1  and  C_2
REMARK    2  A    between atoms: C_4  and  C_32
REMARK    3  A    between atoms: N_5  and  C_7
REMARK    4  A    between atoms: C_7  and  C_8
REMARK    5  A    between atoms: C_8  and  N_9
REMARK    6  A    between atoms: C_10  and  C_12
REMARK    7  A    between atoms: C_23  and  C_25
REMARK    8  A    between atoms: C_25  and  C_31
REMARK                            x       y       z     vdW  Elec       q    Type
REMARK                         _______ _______ _______ _____ _____    ______ ____
ROOT
ATOM      1  C   UNL     1       2.727  -6.647   3.905  0.00  0.00    +0.100 C 
ATOM      2  C   UNL     1       2.178  -6.295   5.305  0.00  0.00    +0.121 C 
ATOM      3  N   UNL     1       3.019  -7.074   6.244  0.00  0.00    -0.300 N 
ATOM      4  C   UNL     1       4.385  -6.986   5.674  0.00  0.00    +0.115 C 
ATOM      5  C   UNL     1       4.176  -7.099   4.151  0.00  0.00    -0.004 C 
ATOM      6  C   UNL     1       5.148  -6.181   3.416  0.00  0.00    -0.010 C 
ATOM      7  C   UNL     1       6.579  -6.685   3.627  0.00  0.00    -0.082 C 
ATOM      8  N   UNL     1       6.695  -8.059   3.123  0.00  0.00    +0.379 N 
ATOM      9  C   UNL     1       5.825  -8.952   3.898  0.00  0.00    -0.082 C 
ATOM     10  C   UNL     1       4.363  -8.544   3.698  0.00  0.00    -0.010 C 
ATOM     11  C   UNL     1       2.631  -7.717   7.363  0.00  0.00    +0.222 C 
ATOM     12  O   UNL     1       3.458  -8.245   8.076  0.00  0.00    -0.275 OA
ATOM     13  H   UNL     1       6.421  -8.084   2.152  0.00  0.00    -0.086 HD
ATOM     14  H   UNL     1       7.652  -8.367   3.208  0.00  0.00    -0.086 HD
ENDROOT
BRANCH  11  15
ATOM     15  C   UNL     1       1.170  -7.780   7.728  0.00  0.00    +0.044 C 
ATOM     16  C   UNL     1       0.601  -6.362   7.796  0.00  0.00    +0.016 C 
ATOM     17  C   UNL     1       1.357  -5.559   8.856  0.00  0.00    +0.001 C 
ATOM     18  C   UNL     1       1.200  -6.238  10.218  0.00  0.00    +0.000 C 
ATOM     19  C   UNL     1       1.770  -7.656  10.150  0.00  0.00    +0.001 C 
ATOM     20  C   UNL     1       1.013  -8.459   9.090  0.00  0.00    +0.016 C 
ATOM     21  C   UNL     1       0.414  -8.583   6.667  0.00  0.00    +0.021 C 
ENDBRANCH  11  15
BRANCH   1  23
ATOM     22  N   UNL     1       2.731  -5.583   1.671  0.00  0.00    -0.313 N 
ATOM     23  C   UNL     1       2.700  -5.434   3.011  0.00  0.00    +0.218 C 
ATOM     24  O   UNL     1       2.651  -4.324   3.496  0.00  0.00    -0.275 OA
ATOM     25  H   UNL     1       2.770  -6.471   1.283  0.00  0.00    +0.149 HD
BRANCH  22  26
ATOM     26  C   UNL     1       2.705  -4.404   0.802  0.00  0.00    +0.127 C 
BRANCH  26  27
ATOM     27  C   UNL     1       2.749  -4.848  -0.661  0.00  0.00    +0.162 C 
BRANCH  27  32
ATOM     28  C   UNL     1       1.042  -1.083  -3.509  0.00  0.00    +0.067 C 
ATOM     29  C   UNL     1       1.954  -2.030  -2.772  0.00  0.00    +0.060 A 
ATOM     30  C   UNL     1       3.352  -1.972  -2.751  0.00  0.00    +0.047 A 
ATOM     31  C   UNL     1       3.799  -2.991  -1.980  0.00  0.00    +0.036 A 
ATOM     32  N   UNL     1       2.723  -3.669  -1.530  0.00  0.00    -0.267 N 
ATOM     33  N   UNL     1       1.576  -3.043  -2.036  0.00  0.00    -0.176 NA
ATOM     34  C   UNL     1       5.240  -3.311  -1.680  0.00  0.00    +0.065 C 
ENDBRANCH  27  32
ENDBRANCH  26  27
ENDBRANCH  22  26
ENDBRANCH   1  23
TORSDOF 5
