REMARK  Name = ZINC04751720
REMARK  4 active torsions:
REMARK  status: ('A' for Active; 'I' for Inactive)
REMARK    1  A    between atoms: C_3  and  S_14
REMARK    2  A    between atoms: C_6  and  C_7
REMARK    3  A    between atoms: S_14  and  N_17
REMARK    4  A    between atoms: N_17  and  C_18
REMARK                            x       y       z     vdW  Elec       q    Type
REMARK                         _______ _______ _______ _____ _____    ______ ____
ROOT
ATOM      1  S   UNL     1      -3.653   3.226  -0.930  0.00  0.00    +0.072 S 
ATOM      2  O   UNL     1      -4.780   4.071  -0.743  0.00  0.00    -0.150 OA
ATOM      3  O   UNL     1      -3.069   3.007  -2.207  0.00  0.00    -0.150 OA
ENDROOT
BRANCH   1   6
ATOM      4  C   UNL     1      -5.525   0.276   1.055  0.00  0.00    +0.006 A 
ATOM      5  C   UNL     1      -5.172   1.519   0.564  0.00  0.00    +0.029 A 
ATOM      6  C   UNL     1      -4.103   1.641  -0.304  0.00  0.00    +0.109 A 
ATOM      7  C   UNL     1      -3.391   0.520  -0.686  0.00  0.00    +0.029 A 
ATOM      8  C   UNL     1      -3.741  -0.723  -0.192  0.00  0.00    +0.006 A 
ATOM      9  C   UNL     1      -4.809  -0.845   0.677  0.00  0.00    -0.042 A 
BRANCH   9  10
ATOM     10  C   UNL     1      -5.194  -2.200   1.212  0.00  0.00    +0.045 C 
ATOM     11  C   UNL     1      -5.384  -3.216   0.061  0.00  0.00    +0.105 C 
ATOM     12  C   UNL     1      -4.840  -4.513   0.618  0.00  0.00    +0.214 C 
ATOM     13  O   UNL     1      -5.050  -5.612   0.150  0.00  0.00    -0.276 OA
ATOM     14  N   UNL     1      -4.090  -4.271   1.707  0.00  0.00    -0.315 N 
ATOM     15  C   UNL     1      -4.029  -2.834   2.003  0.00  0.00    +0.112 C 
ATOM     16  H   UNL     1      -3.647  -4.956   2.230  0.00  0.00    +0.149 HD
ENDBRANCH   9  10
ENDBRANCH   1   6
BRANCH   1  17
ATOM     17  N   UNL     1      -2.452   3.815   0.046  0.00  0.00    -0.216 N 
ATOM     18  H   UNL     1      -1.575   4.003  -0.324  0.00  0.00    +0.174 HD
BRANCH  17  19
ATOM     19  C   UNL     1      -2.702   4.041   1.401  0.00  0.00    +0.048 A 
ATOM     20  C   UNL     1      -3.861   4.695   1.799  0.00  0.00    +0.025 A 
ATOM     21  C   UNL     1      -4.093   4.920   3.138  0.00  0.00    +0.006 A 
ATOM     22  C   UNL     1      -3.183   4.490   4.097  0.00  0.00    -0.044 A 
ATOM     23  C   UNL     1      -2.038   3.831   3.707  0.00  0.00    -0.042 A 
ATOM     24  C   UNL     1      -1.797   3.609   2.358  0.00  0.00    +0.028 A 
ATOM     25  C   UNL     1      -1.019   3.324   4.693  0.00  0.00    +0.035 C 
ATOM     26  C   UNL     1      -1.193   4.011   6.046  0.00  0.00    +0.005 C 
ATOM     27  C   UNL     1      -2.664   3.893   6.463  0.00  0.00    +0.005 C 
ATOM     28  C   UNL     1      -3.498   4.780   5.541  0.00  0.00    +0.035 C 
ENDBRANCH  17  19
ENDBRANCH   1  17
TORSDOF 4
