REMARK  Name = ZINC09425382
REMARK  11 active torsions:
REMARK  status: ('A' for Active; 'I' for Inactive)
REMARK    1  A    between atoms: C_1  and  O_2
REMARK    2  A    between atoms: O_2  and  C_3
REMARK    3  A    between atoms: C_5  and  C_18
REMARK    4  A    between atoms: C_8  and  O_9
REMARK    5  A    between atoms: O_9  and  C_10
REMARK    6  A    between atoms: C_10  and  C_11
REMARK    7  A    between atoms: N_19  and  N_20
REMARK    8  A    between atoms: N_20  and  C_21
REMARK    9  A    between atoms: C_24  and  S_30
REMARK   10  A    between atoms: C_26  and  N_27
REMARK   11  A    between atoms: S_30  and  N_33
REMARK                            x       y       z     vdW  Elec       q    Type
REMARK                         _______ _______ _______ _____ _____    ______ ____
ROOT
ATOM      1  C   UNL     1      -6.243   5.967   2.166  0.00  0.00    +0.138 C 
ATOM      2  N   UNL     1      -7.014   6.135   1.136  0.00  0.00    -0.190 NA
ENDROOT
BRANCH   1   5
ATOM      3  C   UNL     1      -2.735   4.854   2.912  0.00  0.00    +0.162 A 
ATOM      4  C   UNL     1      -4.030   5.304   3.090  0.00  0.00    +0.059 A 
ATOM      5  C   UNL     1      -4.861   5.487   1.982  0.00  0.00    -0.002 A 
ATOM      6  C   UNL     1      -4.380   5.213   0.700  0.00  0.00    +0.013 A 
ATOM      7  C   UNL     1      -3.085   4.770   0.529  0.00  0.00    +0.050 A 
ATOM      8  C   UNL     1      -2.262   4.584   1.630  0.00  0.00    +0.162 A 
BRANCH   3  10
ATOM      9  C   UNL     1      -2.474   4.972   5.273  0.00  0.00    +0.277 C 
ATOM     10  O   UNL     1      -1.923   4.676   3.988  0.00  0.00    -0.491 OA
ENDBRANCH   3  10
BRANCH   8  11
ATOM     11  O   UNL     1      -0.988   4.142   1.457  0.00  0.00    -0.484 OA
BRANCH  11  12
ATOM     12  C   UNL     1      -0.567   3.884   0.116  0.00  0.00    +0.264 C 
BRANCH  12  13
ATOM     13  C   UNL     1       0.862   3.405   0.120  0.00  0.00    -0.010 A 
ATOM     14  C   UNL     1       1.896   4.317   0.018  0.00  0.00    +0.010 A 
ATOM     15  C   UNL     1       3.207   3.879   0.017  0.00  0.00    +0.039 A 
ATOM     16  C   UNL     1       3.484   2.526   0.118  0.00  0.00    +0.123 A 
ATOM     17  C   UNL     1       2.448   1.614   0.220  0.00  0.00    +0.039 A 
ATOM     18  C   UNL     1       1.138   2.054   0.222  0.00  0.00    +0.010 A 
ATOM     19  F   UNL     1       4.765   2.097   0.117  0.00  0.00    -0.205 F 
ENDBRANCH  12  13
ENDBRANCH  11  12
ENDBRANCH   8  11
ENDBRANCH   1   5
BRANCH   2  20
ATOM     20  N   UNL     1      -8.327   6.592   1.310  0.00  0.00    -0.236 N 
ATOM     21  H   UNL     1      -8.660   6.781   2.201  0.00  0.00    +0.174 HD
BRANCH  20  22
ATOM     22  C   UNL     1      -9.156   6.773   0.203  0.00  0.00    +0.079 A 
ATOM     23  C   UNL     1      -8.648   6.612  -1.081  0.00  0.00    +0.029 A 
ATOM     24  C   UNL     1      -9.472   6.792  -2.175  0.00  0.00    +0.030 A 
ATOM     25  C   UNL     1     -10.800   7.133  -1.994  0.00  0.00    +0.107 A 
ATOM     26  C   UNL     1     -11.308   7.295  -0.718  0.00  0.00    +0.063 A 
ATOM     27  C   UNL     1     -10.493   7.110   0.381  0.00  0.00    +0.150 A 
BRANCH  27  28
ATOM     28  N   UNL     1     -11.040   7.277   1.746  0.00  0.00    +0.058 N 
ATOM     29  O   UNL     1     -10.666   6.545   2.646  0.00  0.00    -0.126 OA
ATOM     30  O   UNL     1     -11.864   8.145   1.971  0.00  0.00    -0.126 OA
ENDBRANCH  27  28
BRANCH  25  31
ATOM     31  S   UNL     1     -11.847   7.362  -3.393  0.00  0.00    +0.056 S 
ATOM     32  O   UNL     1     -12.907   8.209  -2.972  0.00  0.00    -0.153 OA
ATOM     33  O   UNL     1     -10.999   7.687  -4.486  0.00  0.00    -0.153 OA
BRANCH  31  34
ATOM     34  N   UNL     1     -12.525   5.892  -3.742  0.00  0.00    -0.204 NA
ATOM     35  H   UNL     1     -12.309   5.117  -3.201  0.00  0.00    +0.144 HD
ATOM     36  H   UNL     1     -13.140   5.807  -4.488  0.00  0.00    +0.144 HD
ENDBRANCH  31  34
ENDBRANCH  25  31
ENDBRANCH  20  22
ENDBRANCH   2  20
TORSDOF 10
