REMARK  Name = ZINC11904648
REMARK  5 active torsions:
REMARK  status: ('A' for Active; 'I' for Inactive)
REMARK    1  A    between atoms: C_1  and  C_2
REMARK    2  A    between atoms: C_4  and  N_19
REMARK    3  A    between atoms: C_7  and  S_8
REMARK    4  A    between atoms: S_8  and  N_11
REMARK    5  A    between atoms: N_11  and  C_12
REMARK                            x       y       z     vdW  Elec       q    Type
REMARK                         _______ _______ _______ _____ _____    ______ ____
ROOT
ATOM      1  C   UNL     1      -1.054   4.333   0.950  0.00  0.00    +0.046 C 
ATOM      2  C   UNL     1      -1.433   3.217   1.889  0.00  0.00    -0.022 A 
ATOM      3  C   UNL     1      -2.142   3.495   3.041  0.00  0.00    +0.030 A 
ATOM      4  C   UNL     1      -2.491   2.466   3.905  0.00  0.00    +0.060 A 
ATOM      5  C   UNL     1      -2.125   1.160   3.608  0.00  0.00    +0.027 A 
ATOM      6  C   UNL     1      -1.421   0.887   2.452  0.00  0.00    +0.031 A 
ATOM      7  C   UNL     1      -1.070   1.915   1.596  0.00  0.00    +0.111 A 
ENDROOT
BRANCH   4   8
ATOM      8  N   UNL     1      -3.209   2.745   5.074  0.00  0.00    -0.144 N 
ATOM      9  C   UNL     1      -3.222   3.914   5.732  0.00  0.00    +0.240 C 
ATOM     10  O   UNL     1      -2.600   4.867   5.315  0.00  0.00    -0.274 OA
ATOM     11  C   UNL     1      -4.028   4.016   6.992  0.00  0.00    +0.122 C 
ATOM     12  C   UNL     1      -5.060   2.857   7.018  0.00  0.00    +0.198 C 
ATOM     13  S   UNL     1      -4.197   1.676   5.901  0.00  0.00    +0.052 S 
ATOM     14  O   UNL     1      -5.092   1.150   4.931  0.00  0.00    -0.155 OA
ATOM     15  O   UNL     1      -3.321   0.831   6.634  0.00  0.00    -0.155 OA
ENDBRANCH   4   8
BRANCH   7  16
ATOM     16  S   UNL     1      -0.165   1.565   0.125  0.00  0.00    +0.073 S 
ATOM     17  O   UNL     1      -0.014   0.153   0.069  0.00  0.00    -0.150 OA
ATOM     18  O   UNL     1       0.945   2.451   0.110  0.00  0.00    -0.150 OA
BRANCH  16  19
ATOM     19  N   UNL     1      -1.127   1.989  -1.154  0.00  0.00    -0.216 N 
ATOM     20  H   UNL     1      -0.853   2.703  -1.751  0.00  0.00    +0.174 HD
BRANCH  19  21
ATOM     21  C   UNL     1      -2.334   1.319  -1.374  0.00  0.00    +0.048 A 
ATOM     22  C   UNL     1      -2.381  -0.068  -1.312  0.00  0.00    +0.026 A 
ATOM     23  C   UNL     1      -3.576  -0.727  -1.523  0.00  0.00    +0.022 A 
ATOM     24  C   UNL     1      -4.723  -0.008  -1.809  0.00  0.00    +0.041 A 
ATOM     25  C   UNL     1      -4.678   1.373  -1.877  0.00  0.00    +0.022 A 
ATOM     26  C   UNL     1      -3.487   2.038  -1.660  0.00  0.00    +0.026 A 
ATOM     27 CL   UNL     1      -6.222  -0.841  -2.081  0.00  0.00    -0.084 Cl
ENDBRANCH  19  21
ENDBRANCH  16  19
ENDBRANCH   7  16
TORSDOF 4
