REMARK  Name = ZINC03380788
REMARK  6 active torsions:
REMARK  status: ('A' for Active; 'I' for Inactive)
REMARK    1  A    between atoms: C_1  and  C_2
REMARK    2  A    between atoms: C_9  and  C_11
REMARK    3  A    between atoms: N_13  and  N_14
REMARK    4  A    between atoms: C_15  and  C_16
REMARK    5  A    between atoms: N_18  and  C_30
REMARK    6  A    between atoms: C_20  and  C_21
REMARK                            x       y       z     vdW  Elec       q    Type
REMARK                         _______ _______ _______ _____ _____    ______ ____
ROOT
ATOM      1  C   UNL     1       6.574   8.600  -1.221  0.00  0.00    +0.043 A 
ATOM      2  C   UNL     1       6.496   9.925  -1.552  0.00  0.00    +0.124 A 
ATOM      3  N   UNL     1       7.750  10.423  -1.579  0.00  0.00    -0.239 N 
ATOM      4  N   UNL     1       8.661   9.412  -1.261  0.00  0.00    -0.163 NA
ATOM      5  C   UNL     1       7.996   8.297  -1.031  0.00  0.00    +0.137 A 
ENDROOT
BRANCH   5   6
ATOM      6  C   UNL     1       8.574   6.991  -0.657  0.00  0.00    +0.157 A 
ATOM      7  C   UNL     1       9.761   6.509  -1.100  0.00  0.00    +0.060 A 
ATOM      8  C   UNL     1       9.923   5.195  -0.474  0.00  0.00    +0.021 A 
ATOM      9  C   UNL     1      10.911   4.210  -0.521  0.00  0.00    +0.011 A 
ATOM     10  C   UNL     1      10.757   3.060   0.203  0.00  0.00    +0.001 A 
ATOM     11  C   UNL     1       9.625   2.868   0.982  0.00  0.00    +0.004 A 
ATOM     12  C   UNL     1       8.638   3.829   1.042  0.00  0.00    +0.047 A 
ATOM     13  C   UNL     1       8.774   5.005   0.315  0.00  0.00    +0.136 A 
ATOM     14  O   UNL     1       8.002   6.102   0.179  0.00  0.00    -0.453 OA
ENDBRANCH   5   6
BRANCH   3  15
ATOM     15  C   UNL     1       8.086  11.749  -1.878  0.00  0.00    +0.065 A 
ATOM     16  C   UNL     1       7.090  12.668  -2.185  0.00  0.00    +0.028 A 
ATOM     17  C   UNL     1       7.425  13.976  -2.476  0.00  0.00    +0.002 A 
ATOM     18  C   UNL     1       8.750  14.369  -2.471  0.00  0.00    +0.000 A 
ATOM     19  C   UNL     1       9.745  13.456  -2.171  0.00  0.00    +0.002 A 
ATOM     20  C   UNL     1       9.416  12.148  -1.875  0.00  0.00    +0.028 A 
ENDBRANCH   3  15
BRANCH   1  22
ATOM     21  N   UNL     1       5.670   6.424  -0.754  0.00  0.00    -0.187 NA
ATOM     22  C   UNL     1       5.447   7.662  -1.076  0.00  0.00    +0.142 C 
BRANCH  21  25
ATOM     23  C   UNL     1       4.831   4.247  -0.283  0.00  0.00    +0.270 C 
ATOM     24  O   UNL     1       5.971   3.861  -0.101  0.00  0.00    -0.268 OA
ATOM     25  N   UNL     1       4.599   5.532  -0.617  0.00  0.00    -0.203 N 
ATOM     26  H   UNL     1       3.690   5.839  -0.762  0.00  0.00    +0.178 HD
BRANCH  23  34
ATOM     27  C   UNL     1       0.830  -1.998   1.259  0.00  0.00    +0.008 C 
ATOM     28  C   UNL     1       0.991  -0.489   1.066  0.00  0.00    -0.009 C 
ATOM     29  C   UNL     1       0.002  -0.004   0.002  0.00  0.00    +0.009 C 
ATOM     30  C   UNL     1      -0.019   1.531   0.011  0.00  0.00    +0.043 C 
ATOM     31  C   UNL     1       1.396   2.023  -0.000  0.00  0.00    -0.006 A 
ATOM     32  C   UNL     1       2.522   1.297   0.266  0.00  0.00    -0.036 A 
ATOM     33  C   UNL     1       3.730   1.971   0.193  0.00  0.00    +0.024 A 
ATOM     34  C   UNL     1       3.710   3.313  -0.139  0.00  0.00    +0.076 A 
ATOM     35  S   UNL     1       1.963   3.612  -0.347  0.00  0.00    -0.088 S 
ATOM     36  C   UNL     1       2.423  -0.183   0.624  0.00  0.00    +0.039 C 
ENDBRANCH  23  34
ENDBRANCH  21  25
ENDBRANCH   1  22
TORSDOF 5
