REMARK  Name = ZINC25463641
REMARK  9 active torsions:
REMARK  status: ('A' for Active; 'I' for Inactive)
REMARK    1  A    between atoms: C_1  and  C_2
REMARK    2  A    between atoms: C_2  and  C_3
REMARK    3  A    between atoms: C_2  and  C_4
REMARK    4  A    between atoms: C_2  and  N_25
REMARK    5  A    between atoms: C_4  and  N_5
REMARK    6  A    between atoms: C_6  and  C_8
REMARK    7  A    between atoms: N_11  and  S_14
REMARK    8  A    between atoms: S_14  and  C_17
REMARK    9  A    between atoms: C_18  and  C_19
REMARK                            x       y       z     vdW  Elec       q    Type
REMARK                         _______ _______ _______ _____ _____    ______ ____
ROOT
ATOM      1  N   UNL     1      -0.698   1.558   1.213  0.00  0.00    -0.316 N 
ATOM      2  C   UNL     1      -0.222   1.232   2.431  0.00  0.00    +0.216 C 
ATOM      3  O   UNL     1       0.774   0.548   2.529  0.00  0.00    -0.276 OA
ATOM      4  H   UNL     1      -1.602   2.179   1.124  0.00  0.00    +0.149 HD
ENDROOT
BRANCH   2   5
ATOM      5  C   UNL     1      -0.927   1.718   3.671  0.00  0.00    +0.077 C 
ATOM      6  C   UNL     1      -0.949   3.249   3.678  0.00  0.00    +0.030 C 
ATOM      7  C   UNL     1      -1.697   3.739   4.922  0.00  0.00    +0.110 C 
ATOM      8  N   UNL     1      -1.079   3.138   6.113  0.00  0.00    -0.177 NA
ATOM      9  C   UNL     1      -0.926   1.678   6.169  0.00  0.00    +0.110 C 
ATOM     10  C   UNL     1      -0.187   1.211   4.911  0.00  0.00    +0.030 C 
BRANCH   8  11
ATOM     11  S   UNL     1      -0.566   4.089   7.367  0.00  0.00    +0.054 S 
ATOM     12  O   UNL     1      -1.316   5.295   7.297  0.00  0.00    -0.153 OA
ATOM     13  O   UNL     1      -0.557   3.265   8.524  0.00  0.00    -0.153 OA
BRANCH  11  14
ATOM     14  C   UNL     1       1.111   4.520   7.042  0.00  0.00    +0.153 C 
ATOM     15  C   UNL     1       1.440   5.785   6.819  0.00  0.00    +0.028 C 
BRANCH  15  16
ATOM     16  C   UNL     1       2.847   6.146   6.547  0.00  0.00    -0.024 A 
ATOM     17  C   UNL     1       3.833   5.159   6.529  0.00  0.00    +0.008 A 
ATOM     18  C   UNL     1       5.143   5.502   6.268  0.00  0.00    +0.001 A 
ATOM     19  C   UNL     1       5.483   6.823   6.036  0.00  0.00    +0.000 A 
ATOM     20  C   UNL     1       4.511   7.807   6.058  0.00  0.00    +0.001 A 
ATOM     21  C   UNL     1       3.196   7.477   6.312  0.00  0.00    +0.008 A 
ENDBRANCH  15  16
ENDBRANCH  11  14
ENDBRANCH   8  11
ENDBRANCH   2   5
BRANCH   1  22
ATOM     22  C   UNL     1      -0.013   1.086   0.008  0.00  0.00    +0.092 C 
BRANCH  22  24
ATOM     23  C   UNL     1      -0.037   1.099  -2.490  0.00  0.00    -0.008 C 
ATOM     24  C   UNL     1      -0.753   1.593  -1.232  0.00  0.00    -0.055 C 
ATOM     25  C   UNL     1      -2.188   1.063  -1.221  0.00  0.00    -0.008 C 
BRANCH  24  26
ATOM     26  N   UNL     1      -0.773   3.062  -1.223  0.00  0.00    +0.387 N 
ATOM     27  C   UNL     1      -1.478   3.586  -2.404  0.00  0.00    -0.073 C 
ATOM     28  C   UNL     1      -1.790   5.064  -2.166  0.00  0.00    +0.017 C 
ATOM     29  C   UNL     1      -0.544   5.788  -1.723  0.00  0.00    -0.048 A 
ATOM     30  C   UNL     1      -0.523   7.173  -1.795  0.00  0.00    +0.004 A 
ATOM     31  C   UNL     1       0.596   7.875  -1.396  0.00  0.00    +0.000 A 
ATOM     32  C   UNL     1       1.702   7.194  -0.922  0.00  0.00    +0.000 A 
ATOM     33  C   UNL     1       1.683   5.816  -0.852  0.00  0.00    +0.002 A 
ATOM     34  C   UNL     1       0.559   5.108  -1.254  0.00  0.00    -0.061 A 
ATOM     35  C   UNL     1       0.588   3.605  -1.163  0.00  0.00    -0.042 C 
ATOM     36  H   UNL     1      -1.313   3.382  -0.321  0.00  0.00    -0.080 HD
ENDBRANCH  24  26
ENDBRANCH  22  24
ENDBRANCH   1  22
TORSDOF 7
