REMARK  Name = ZINC33916259
REMARK  7 active torsions:
REMARK  status: ('A' for Active; 'I' for Inactive)
REMARK    1  A    between atoms: C_1  and  C_2
REMARK    2  A    between atoms: C_2  and  C_4
REMARK    3  A    between atoms: C_7  and  N_10
REMARK    4  A    between atoms: C_15  and  C_33
REMARK    5  A    between atoms: C_18  and  C_23
REMARK    6  A    between atoms: C_18  and  C_30
REMARK    7  A    between atoms: C_23  and  C_24
REMARK                            x       y       z     vdW  Elec       q    Type
REMARK                         _______ _______ _______ _____ _____    ______ ____
ROOT
ATOM      1  N   UNL     1      -5.042  -2.712   0.150  0.00  0.00    -0.210 N 
ATOM      2  C   UNL     1      -6.326  -2.227   0.114  0.00  0.00    +0.229 C 
ATOM      3  O   UNL     1      -6.680  -1.085  -0.089  0.00  0.00    -0.275 OA
ATOM      4  C   UNL     1      -7.161  -3.374   0.371  0.00  0.00    +0.078 C 
ATOM      5  C   UNL     1      -8.546  -3.837   0.184  0.00  0.00    -0.020 C 
ATOM      6  N   UNL     1      -8.443  -5.294   0.543  0.00  0.00    +0.396 N 
ATOM      7  C   UNL     1      -7.021  -5.710   0.357  0.00  0.00    +0.048 C 
ATOM      8  C   UNL     1      -6.352  -4.523  -0.352  0.00  0.00    +0.086 C 
ATOM      9  C   UNL     1      -4.993  -4.077   0.111  0.00  0.00    +0.229 C 
ATOM     10  O   UNL     1      -4.049  -4.783   0.394  0.00  0.00    -0.275 OA
ATOM     11  H   UNL     1      -8.716  -5.429   1.505  0.00  0.00    -0.083 HD
ATOM     12  H   UNL     1      -9.040  -5.838  -0.062  0.00  0.00    -0.083 HD
ENDROOT
BRANCH   1  16
ATOM     13  C   UNL     1      -1.660  -0.283   0.341  0.00  0.00    +0.017 A 
ATOM     14  C   UNL     1      -2.936   0.292   0.313  0.00  0.00    +0.013 A 
ATOM     15  C   UNL     1      -4.050  -0.514   0.249  0.00  0.00    +0.024 A 
ATOM     16  C   UNL     1      -3.909  -1.898   0.213  0.00  0.00    +0.044 A 
ATOM     17  C   UNL     1      -2.642  -2.474   0.241  0.00  0.00    +0.024 A 
ATOM     18  C   UNL     1      -1.523  -1.676   0.298  0.00  0.00    +0.013 A 
BRANCH  13  20
ATOM     19  C   UNL     1      -0.618   2.072   0.454  0.00  0.00    +0.091 C 
ATOM     20  C   UNL     1      -0.468   0.573   0.408  0.00  0.00    +0.160 C 
ATOM     21  O   UNL     1       0.637   0.074   0.427  0.00  0.00    -0.292 OA
ENDBRANCH  13  20
ENDBRANCH   1  16
BRANCH   5  22
ATOM     22  C   UNL     1      -9.485  -3.118   1.118  0.00  0.00    -0.022 A 
ATOM     23  C   UNL     1     -10.310  -2.074   0.862  0.00  0.00    +0.011 A 
ATOM     24  C   UNL     1     -11.090  -1.568   1.885  0.00  0.00    +0.028 A 
ATOM     25  C   UNL     1     -11.007  -2.134   3.115  0.00  0.00    +0.078 A 
ATOM     26  S   UNL     1      -9.803  -3.425   2.848  0.00  0.00    -0.083 S 
ATOM     27 CL   UNL     1     -11.856  -1.715   4.571  0.00  0.00    -0.076 Cl
ENDBRANCH   5  22
BRANCH   7  28
ATOM     28  C   UNL     1      -6.946  -6.935  -0.517  0.00  0.00    +0.346 C 
ATOM     29  O   UNL     1      -7.960  -7.390  -1.018  0.00  0.00    -0.248 OA
ATOM     30  O   UNL     1      -5.870  -7.471  -0.724  0.00  0.00    -0.248 OA
ENDBRANCH   7  28
BRANCH   7  31
ATOM     31  C   UNL     1      -6.368  -5.985   1.714  0.00  0.00    +0.003 C 
BRANCH  31  32
ATOM     32  C   UNL     1      -7.223  -6.983   2.498  0.00  0.00    -0.012 C 
ATOM     33  C   UNL     1      -6.684  -7.105   3.925  0.00  0.00    +0.003 C 
ATOM     34  C   UNL     1      -7.538  -8.103   4.709  0.00  0.00    +0.000 C 
ATOM     35  C   UNL     1      -7.483  -9.470   4.024  0.00  0.00    +0.000 C 
ATOM     36  C   UNL     1      -8.021  -9.348   2.597  0.00  0.00    +0.000 C 
ATOM     37  C   UNL     1      -7.167  -8.351   1.813  0.00  0.00    +0.003 C 
ENDBRANCH  31  32
ENDBRANCH   7  31
TORSDOF 6
