REMARK  Name = ZINC66221268
REMARK  8 active torsions:
REMARK  status: ('A' for Active; 'I' for Inactive)
REMARK    1  A    between atoms: C_1  and  C_2
REMARK    2  A    between atoms: C_5  and  C_10
REMARK    3  A    between atoms: C_6  and  O_8
REMARK    4  A    between atoms: O_8  and  C_9
REMARK    5  A    between atoms: C_10  and  N_11
REMARK    6  A    between atoms: C_12  and  C_14
REMARK    7  A    between atoms: C_23  and  C_29
REMARK    8  A    between atoms: C_26  and  C_28
REMARK                            x       y       z     vdW  Elec       q    Type
REMARK                         _______ _______ _______ _____ _____    ______ ____
ROOT
ATOM      1  C   UNL     1      -2.970  -6.588   0.414  0.00  0.00    +0.306 C 
ATOM      2  O   UNL     1      -3.838  -5.796   0.717  0.00  0.00    -0.265 OA
ATOM      3  N   UNL     1      -3.192  -7.912   0.539  0.00  0.00    -0.261 N 
ATOM      4  C   UNL     1      -2.143  -8.826   0.395  0.00  0.00    +0.041 A 
ATOM      5  C   UNL     1      -0.832  -8.360   0.403  0.00  0.00    +0.024 A 
ATOM      6  C   UNL     1       0.217  -9.245   0.258  0.00  0.00    +0.002 A 
ATOM      7  C   UNL     1      -0.037 -10.597   0.104  0.00  0.00    +0.000 A 
ATOM      8  C   UNL     1      -1.338 -11.062   0.098  0.00  0.00    +0.006 A 
ATOM      9  C   UNL     1      -2.396 -10.181   0.245  0.00  0.00    -0.014 A 
ATOM     10  C   UNL     1      -3.801 -10.723   0.242  0.00  0.00    +0.108 C 
ATOM     11  C   UNL     1      -4.801  -9.616  -0.092  0.00  0.00    +0.040 C 
ATOM     12  C   UNL     1      -4.540  -8.417   0.836  0.00  0.00    +0.080 C 
ATOM     13  C   UNL     1      -5.574  -7.322   0.572  0.00  0.00    +0.028 C 
ENDROOT
BRANCH  10  14
ATOM     14  C   UNL     1      -3.912 -11.816  -0.789  0.00  0.00    +0.218 C 
ATOM     15  O   UNL     1      -4.133 -11.536  -1.948  0.00  0.00    -0.275 OA
ATOM     16  N   UNL     1      -3.764 -13.105  -0.423  0.00  0.00    -0.329 N 
ATOM     17  H   UNL     1      -3.659 -13.334   0.513  0.00  0.00    +0.145 HD
ATOM     18  H   UNL     1      -3.764 -13.803  -1.097  0.00  0.00    +0.145 HD
ENDBRANCH  10  14
BRANCH   1  20
ATOM     19  N   UNL     1      -1.016  -5.096   0.539  0.00  0.00    -0.303 N 
ATOM     20  C   UNL     1      -1.655  -6.097  -0.098  0.00  0.00    +0.300 C 
ATOM     21  O   UNL     1      -1.163  -6.600  -1.087  0.00  0.00    -0.265 OA
ATOM     22  H   UNL     1      -1.409  -4.695   1.329  0.00  0.00    +0.149 HD
BRANCH  19  23
ATOM     23  C   UNL     1       0.274  -4.615   0.037  0.00  0.00    +0.145 C 
BRANCH  23  28
ATOM     24  C   UNL     1       2.216  -0.469   3.494  0.00  0.00    +0.066 C 
ATOM     25  C   UNL     1       1.699  -1.543   2.571  0.00  0.00    +0.042 A 
ATOM     26  C   UNL     1       1.092  -1.186   1.383  0.00  0.00    +0.023 A 
ATOM     27  C   UNL     1       0.618  -2.179   0.538  0.00  0.00    +0.012 A 
ATOM     28  C   UNL     1       0.772  -3.501   0.920  0.00  0.00    +0.031 A 
ATOM     29  C   UNL     1       1.393  -3.786   2.130  0.00  0.00    +0.219 A 
ATOM     30  N   UNL     1       1.837  -2.811   2.906  0.00  0.00    -0.218 NA
BRANCH  29  31
ATOM     31  O   UNL     1       1.550  -5.077   2.516  0.00  0.00    -0.479 OA
ATOM     32  C   UNL     1       2.197  -5.305   3.770  0.00  0.00    +0.279 C 
ENDBRANCH  29  31
ENDBRANCH  23  28
ENDBRANCH  19  23
ENDBRANCH   1  20
TORSDOF 5
