REMARK  Name = ZINC36581729
REMARK  14 active torsions:
REMARK  status: ('A' for Active; 'I' for Inactive)
REMARK    1  A    between atoms: C_1  and  C_2
REMARK    2  A    between atoms: C_2  and  C_3
REMARK    3  A    between atoms: C_2  and  C_4
REMARK    4  A    between atoms: C_2  and  N_5
REMARK    5  A    between atoms: C_6  and  C_8
REMARK    6  A    between atoms: C_8  and  C_10
REMARK    7  A    between atoms: C_8  and  N_15
REMARK    8  A    between atoms: N_15  and  C_26
REMARK    9  A    between atoms: C_16  and  C_18
REMARK   10  A    between atoms: C_18  and  C_19
REMARK   11  A    between atoms: C_19  and  C_20
REMARK   12  A    between atoms: C_26  and  C_27
REMARK   13  A    between atoms: C_26  and  C_28
REMARK   14  A    between atoms: C_26  and  C_29
REMARK                            x       y       z     vdW  Elec       q    Type
REMARK                         _______ _______ _______ _____ _____    ______ ____
ROOT
ATOM      1  N   UNL     1       3.910  -0.696  -2.718  0.00  0.00    -0.278 N 
ATOM      2  C   UNL     1       3.769   0.153  -3.756  0.00  0.00    +0.217 C 
ATOM      3  O   UNL     1       2.883  -0.021  -4.566  0.00  0.00    -0.276 OA
ENDROOT
BRANCH   1   4
ATOM      4  C   UNL     1       5.025  -0.530  -1.783  0.00  0.00    +0.030 C 
ATOM      5  C   UNL     1       6.340  -0.860  -2.492  0.00  0.00    +0.031 C 
ATOM      6  C   UNL     1       5.063   0.917  -1.286  0.00  0.00    +0.031 C 
ATOM      7  C   UNL     1       4.837  -1.473  -0.593  0.00  0.00    +0.031 C 
ENDBRANCH   1   4
BRANCH   1   8
ATOM      8  C   UNL     1       2.948  -1.784  -2.526  0.00  0.00    +0.229 C 
BRANCH   8   9
ATOM      9  C   UNL     1       3.625  -3.105  -2.791  0.00  0.00    +0.134 A 
ATOM     10  C   UNL     1       3.092  -4.141  -3.463  0.00  0.00    +0.047 A 
ATOM     11  C   UNL     1       4.065  -5.166  -3.474  0.00  0.00    +0.041 A 
ATOM     12  C   UNL     1       5.134  -4.696  -2.807  0.00  0.00    +0.195 A 
ATOM     13  O   UNL     1       4.864  -3.444  -2.401  0.00  0.00    -0.465 OA
ENDBRANCH   8   9
BRANCH   8  15
ATOM     14  N   UNL     1       1.871  -2.859  -0.576  0.00  0.00    -0.309 N 
ATOM     15  C   UNL     1       2.436  -1.758  -1.109  0.00  0.00    +0.242 C 
ATOM     16  O   UNL     1       2.532  -0.745  -0.449  0.00  0.00    -0.273 OA
ATOM     17  H   UNL     1       1.794  -3.669  -1.105  0.00  0.00    +0.149 HD
BRANCH  14  19
ATOM     18  C   UNL     1       0.288  -1.762   0.931  0.00  0.00    +0.031 C 
ATOM     19  C   UNL     1       1.373  -2.833   0.801  0.00  0.00    +0.026 C 
ATOM     20  C   UNL     1       2.525  -2.511   1.754  0.00  0.00    +0.031 C 
ATOM     21  C   UNL     1       0.784  -4.200   1.156  0.00  0.00    +0.031 C 
ENDBRANCH  14  19
ENDBRANCH   8  15
ENDBRANCH   1   8
BRANCH   2  22
ATOM     22  C   UNL     1       4.711   1.319  -3.909  0.00  0.00    +0.096 C 
BRANCH  22  23
ATOM     23  C   UNL     1       4.410   2.049  -5.219  0.00  0.00    +0.013 C 
BRANCH  23  24
ATOM     24  C   UNL     1       5.367   3.233  -5.375  0.00  0.00    -0.011 C 
ATOM     25  C   UNL     1       6.800   2.715  -5.519  0.00  0.00    +0.003 C 
ATOM     26  C   UNL     1       7.756   3.899  -5.675  0.00  0.00    +0.000 C 
ATOM     27  C   UNL     1       7.376   4.702  -6.920  0.00  0.00    +0.000 C 
ATOM     28  C   UNL     1       5.943   5.220  -6.776  0.00  0.00    +0.000 C 
ATOM     29  C   UNL     1       4.987   4.036  -6.620  0.00  0.00    +0.003 C 
ENDBRANCH  23  24
ENDBRANCH  22  23
ENDBRANCH   2  22
TORSDOF 8
