REMARK  Name = ZINC01927103
REMARK  14 active torsions:
REMARK  status: ('A' for Active; 'I' for Inactive)
REMARK    1  A    between atoms: C_1  and  C_2
REMARK    2  A    between atoms: C_2  and  O_3
REMARK    3  A    between atoms: O_3  and  C_4
REMARK    4  A    between atoms: C_4  and  C_6
REMARK    5  A    between atoms: C_7  and  C_29
REMARK    6  A    between atoms: C_8  and  C_28
REMARK    7  A    between atoms: C_10  and  N_11
REMARK    8  A    between atoms: C_12  and  C_14
REMARK    9  A    between atoms: C_14  and  C_26
REMARK   10  A    between atoms: C_15  and  C_16
REMARK   11  A    between atoms: C_19  and  C_22
REMARK   12  A    between atoms: C_22  and  C_23
REMARK   13  A    between atoms: C_22  and  C_24
REMARK   14  A    between atoms: C_22  and  C_25
REMARK                            x       y       z     vdW  Elec       q    Type
REMARK                         _______ _______ _______ _____ _____    ______ ____
ROOT
ATOM      1  N   UNL     1      -1.300   3.442   0.158  0.00  0.00    -0.275 N 
ATOM      2  C   UNL     1      -1.288   2.097   0.066  0.00  0.00    +0.259 C 
ATOM      3  O   UNL     1      -2.334   1.486  -0.043  0.00  0.00    -0.269 OA
ATOM      4  H   UNL     1      -0.466   3.929   0.244  0.00  0.00    +0.156 HD
ENDROOT
BRANCH   1   9
ATOM      5  C   UNL     1      -2.717   5.500   0.210  0.00  0.00    +0.091 A 
ATOM      6  C   UNL     1      -4.090   5.946   0.154  0.00  0.00    -0.025 A 
ATOM      7  C   UNL     1      -5.038   5.000   0.029  0.00  0.00    -0.008 A 
ATOM      8  S   UNL     1      -4.103   3.485  -0.025  0.00  0.00    -0.078 S 
ATOM      9  C   UNL     1      -2.502   4.127   0.129  0.00  0.00    +0.087 A 
ATOM     10  C   UNL     1      -6.532   5.180  -0.053  0.00  0.00    +0.052 C 
ATOM     11  C   UNL     1      -4.444   7.408   0.233  0.00  0.00    +0.045 C 
BRANCH   5  12
ATOM     12  C   UNL     1      -1.607   6.445   0.346  0.00  0.00    +0.342 C 
ATOM     13  O   UNL     1      -1.079   6.910  -0.646  0.00  0.00    -0.245 OA
BRANCH  12  14
ATOM     14  O   UNL     1      -1.170   6.799   1.572  0.00  0.00    -0.461 OA
BRANCH  14  16
ATOM     15  C   UNL     1       0.289   8.020   3.093  0.00  0.00    +0.048 C 
ATOM     16  C   UNL     1      -0.066   7.740   1.631  0.00  0.00    +0.229 C 
ENDBRANCH  14  16
ENDBRANCH  12  14
ENDBRANCH   5  12
ENDBRANCH   1   9
BRANCH   2  17
ATOM     17  C   UNL     1      -0.010   1.368   0.096  0.00  0.00    +0.114 C 
ATOM     18  C   UNL     1       0.002  -0.004   0.002  0.00  0.00    +0.032 C 
BRANCH  18  19
ATOM     19  C   UNL     1       1.277  -0.720  -0.125  0.00  0.00    -0.024 A 
ATOM     20  C   UNL     1       2.370  -0.105  -0.748  0.00  0.00    +0.008 A 
ATOM     21  C   UNL     1       3.565  -0.784  -0.859  0.00  0.00    +0.005 A 
ATOM     22  C   UNL     1       3.683  -2.072  -0.365  0.00  0.00    -0.042 A 
ATOM     23  C   UNL     1       2.606  -2.688   0.248  0.00  0.00    +0.005 A 
ATOM     24  C   UNL     1       1.405  -2.023   0.371  0.00  0.00    +0.008 A 
BRANCH  22  25
ATOM     25  C   UNL     1       4.992  -2.807  -0.496  0.00  0.00    -0.013 C 
ATOM     26  C   UNL     1       4.781  -4.084  -1.312  0.00  0.00    +0.015 C 
ATOM     27  C   UNL     1       6.011  -1.912  -1.204  0.00  0.00    +0.015 C 
ATOM     28  C   UNL     1       5.513  -3.171   0.896  0.00  0.00    +0.015 C 
ENDBRANCH  22  25
ENDBRANCH  18  19
BRANCH  17  29
ATOM     29  C   UNL     1       1.222   2.088   0.218  0.00  0.00    +0.104 C 
ATOM     30  N   UNL     1       2.199   2.659   0.315  0.00  0.00    -0.191 NA
ENDBRANCH  17  29
ENDBRANCH   2  17
TORSDOF 8
