REMARK  Name = ZINC39939640
REMARK  6 active torsions:
REMARK  status: ('A' for Active; 'I' for Inactive)
REMARK    1  A    between atoms: C_7  and  C_10
REMARK    2  A    between atoms: C_13  and  S_19
REMARK    3  A    between atoms: N_15  and  C_16
REMARK    4  A    between atoms: S_19  and  C_20
REMARK    5  A    between atoms: C_20  and  C_21
REMARK    6  A    between atoms: N_23  and  C_24
REMARK                            x       y       z     vdW  Elec       q    Type
REMARK                         _______ _______ _______ _____ _____    ______ ____
ROOT
ATOM      1  C   UNL     1       0.551  -3.231   0.023  0.00  0.00    +0.147 C 
ATOM      2  N   UNL     1      -0.686  -3.000   0.376  0.00  0.00    -0.169 NA
ATOM      3  N   UNL     1      -1.479  -4.145   0.229  0.00  0.00    -0.237 N 
ATOM      4  C   UNL     1      -0.593  -5.204  -0.282  0.00  0.00    +0.237 C 
ATOM      5  N   UNL     1       0.721  -4.551  -0.404  0.00  0.00    -0.282 N 
ATOM      6  H   UNL     1      -2.425  -4.224   0.425  0.00  0.00    +0.171 HD
ENDROOT
BRANCH   1  13
ATOM      7  C   UNL     1       0.662   1.036   1.560  0.00  0.00    +0.001 A 
ATOM      8  C   UNL     1       1.905   1.653   1.407  0.00  0.00    +0.002 A 
ATOM      9  C   UNL     1       2.959   1.009   0.847  0.00  0.00    +0.026 A 
ATOM     10  C   UNL     1       2.812  -0.329   0.400  0.00  0.00    +0.043 A 
ATOM     11  N   UNL     1       3.666  -1.159  -0.167  0.00  0.00    -0.380 N 
ATOM     12  C   UNL     1       2.997  -2.436  -0.432  0.00  0.00    +0.152 C 
ATOM     13  C   UNL     1       1.577  -2.274   0.062  0.00  0.00    +0.022 C 
ATOM     14  C   UNL     1       1.499  -0.975   0.564  0.00  0.00    +0.006 A 
ATOM     15  C   UNL     1       0.448  -0.242   1.155  0.00  0.00    +0.010 A 
ATOM     16  H   UNL     1       4.591  -0.955  -0.376  0.00  0.00    +0.160 HD
ENDBRANCH   1  13
BRANCH   5  17
ATOM     17  C   UNL     1       1.963  -5.165  -0.878  0.00  0.00    +0.078 C 
ATOM     18  C   UNL     1       1.892  -6.610  -1.377  0.00  0.00    +0.024 C 
ATOM     19  C   UNL     1       2.558  -6.296  -0.036  0.00  0.00    +0.024 C 
ENDBRANCH   5  17
BRANCH   4  20
ATOM     20  S   UNL     1      -0.518  -6.588   0.888  0.00  0.00    -0.109 S 
BRANCH  20  21
ATOM     21  C   UNL     1       0.093  -5.834   2.421  0.00  0.00    +0.168 C 
BRANCH  21  22
ATOM     22  C   UNL     1       0.203  -6.889   3.491  0.00  0.00    +0.227 C 
ATOM     23  O   UNL     1      -0.100  -8.037   3.244  0.00  0.00    -0.275 OA
ATOM     24  N   UNL     1       0.640  -6.557   4.722  0.00  0.00    -0.285 N 
ATOM     25  H   UNL     1       0.811  -5.628   4.942  0.00  0.00    +0.155 HD
BRANCH  24  26
ATOM     26  C   UNL     1       0.845  -7.553   5.684  0.00  0.00    +0.034 A 
ATOM     27  C   UNL     1       1.292  -8.811   5.299  0.00  0.00    +0.023 A 
ATOM     28  C   UNL     1       1.493  -9.789   6.252  0.00  0.00    +0.006 A 
ATOM     29  C   UNL     1       1.251  -9.522   7.590  0.00  0.00    -0.044 A 
ATOM     30  C   UNL     1       0.807  -8.271   7.975  0.00  0.00    -0.042 A 
ATOM     31  C   UNL     1       0.609  -7.285   7.024  0.00  0.00    +0.027 A 
ATOM     32  C   UNL     1       0.619  -8.235   9.477  0.00  0.00    +0.036 C 
ATOM     33  C   UNL     1       0.575  -9.714   9.914  0.00  0.00    +0.009 C 
ATOM     34  C   UNL     1       1.393 -10.412   8.807  0.00  0.00    +0.036 C 
ENDBRANCH  24  26
ENDBRANCH  21  22
ENDBRANCH  20  21
ENDBRANCH   4  20
TORSDOF 6
