REMARK  Name = ZINC10032561
REMARK  7 active torsions:
REMARK  status: ('A' for Active; 'I' for Inactive)
REMARK    1  A    between atoms: C_1  and  C_2
REMARK    2  A    between atoms: C_2  and  O_3
REMARK    3  A    between atoms: O_3  and  C_4
REMARK    4  A    between atoms: C_7  and  C_10
REMARK    5  A    between atoms: C_13  and  C_27
REMARK    6  A    between atoms: C_23  and  C_25
REMARK    7  A    between atoms: C_23  and  C_26
REMARK                            x       y       z     vdW  Elec       q    Type
REMARK                         _______ _______ _______ _____ _____    ______ ____
ROOT
ATOM      1  C   UNL     1       1.109  -6.040  -1.847  0.00  0.00    +0.091 C 
ATOM      2  C   UNL     1       1.869  -6.622  -0.699  0.00  0.00    +0.049 A 
ATOM      3  C   UNL     1       3.216  -6.590  -0.351  0.00  0.00    +0.087 A 
ATOM      4  N   UNL     1       3.321  -7.271   0.763  0.00  0.00    -0.081 NA
ATOM      5  O   UNL     1       2.247  -7.703   1.134  0.00  0.00    -0.339 OA
ATOM      6  C   UNL     1       1.276  -7.359   0.294  0.00  0.00    +0.226 A 
ATOM      7  N   UNL     1      -0.080  -7.615   0.280  0.00  0.00    -0.286 N 
ATOM      8  C   UNL     1      -0.781  -7.379  -0.879  0.00  0.00    +0.019 C 
ATOM      9  C   UNL     1      -0.275  -6.653  -1.898  0.00  0.00    +0.024 C 
ATOM     10  C   UNL     1      -1.023  -6.430  -3.069  0.00  0.00    +0.162 C 
ATOM     11  O   UNL     1      -0.530  -5.789  -3.976  0.00  0.00    -0.292 OA
ATOM     12  C   UNL     1      -2.419  -6.967  -3.223  0.00  0.00    +0.086 C 
ATOM     13  C   UNL     1      -3.058  -7.091  -1.836  0.00  0.00    -0.023 C 
ATOM     14  C   UNL     1      -2.164  -7.982  -0.973  0.00  0.00    +0.058 C 
ATOM     15  C   UNL     1      -3.176  -5.706  -1.197  0.00  0.00    +0.011 C 
ATOM     16  C   UNL     1      -4.447  -7.720  -1.963  0.00  0.00    +0.011 C 
ATOM     17  C   UNL     1       4.330  -5.909  -1.104  0.00  0.00    +0.069 C 
ATOM     18  H   UNL     1      -0.529  -7.953   1.071  0.00  0.00    +0.155 HD
ENDROOT
BRANCH   1  22
ATOM     19  C   UNL     1       0.777  -1.810  -1.336  0.00  0.00    +0.121 A 
ATOM     20  C   UNL     1       0.253  -2.669  -0.381  0.00  0.00    +0.046 A 
ATOM     21  C   UNL     1       0.357  -4.036  -0.551  0.00  0.00    +0.008 A 
ATOM     22  C   UNL     1       0.992  -4.548  -1.667  0.00  0.00    -0.035 A 
ATOM     23  C   UNL     1       1.520  -3.695  -2.618  0.00  0.00    +0.008 A 
ATOM     24  C   UNL     1       1.414  -2.327  -2.455  0.00  0.00    +0.046 A 
BRANCH  19  25
ATOM     25  O   UNL     1       0.671  -0.465  -1.174  0.00  0.00    -0.492 OA
BRANCH  25  27
ATOM     26  C   UNL     1      -0.019   1.526   0.010  0.00  0.00    +0.048 C 
ATOM     27  C   UNL     1       0.002  -0.004   0.002  0.00  0.00    +0.225 C 
ENDBRANCH  25  27
ENDBRANCH  19  25
ENDBRANCH   1  22
TORSDOF 3
