REMARK  Name = ZINC49455516
REMARK  5 active torsions:
REMARK  status: ('A' for Active; 'I' for Inactive)
REMARK    1  A    between atoms: C_1  and  C_2
REMARK    2  A    between atoms: C_2  and  C_3
REMARK    3  A    between atoms: C_2  and  C_4
REMARK    4  A    between atoms: C_7  and  C_10
REMARK    5  A    between atoms: N_18  and  C_22
REMARK                            x       y       z     vdW  Elec       q    Type
REMARK                         _______ _______ _______ _____ _____    ______ ____
ROOT
ATOM      1  C   UNL     1       2.797  -1.919   4.683  0.00  0.00    +0.142 C 
ATOM      2  C   UNL     1       3.318  -3.309   4.380  0.00  0.00    +0.058 C 
ATOM      3  C   UNL     1       2.921  -4.317   5.183  0.00  0.00    +0.042 C 
ATOM      4  C   UNL     1       3.583  -5.569   4.654  0.00  0.00    +0.156 C 
ATOM      5  N   UNL     1       4.367  -5.121   3.493  0.00  0.00    -0.306 N 
ATOM      6  C   UNL     1       4.179  -3.794   3.374  0.00  0.00    +0.244 C 
ATOM      7  O   UNL     1       4.687  -3.102   2.510  0.00  0.00    -0.270 OA
ATOM      8  N   UNL     1       2.079  -4.093   6.235  0.00  0.00    -0.260 N 
ATOM      9  C   UNL     1       1.590  -2.887   6.550  0.00  0.00    +0.307 C 
ATOM     10  O   UNL     1       0.847  -2.784   7.506  0.00  0.00    -0.252 OA
ATOM     11  N   UNL     1       1.894  -1.784   5.839  0.00  0.00    -0.288 N 
ATOM     12  C   UNL     1       1.691  -5.236   7.065  0.00  0.00    +0.139 C 
ATOM     13  H   UNL     1       4.916  -5.678   2.920  0.00  0.00    +0.149 HD
ATOM     14  H   UNL     1       1.528  -0.919   6.084  0.00  0.00    +0.151 HD
ENDROOT
BRANCH   1  18
ATOM     15  C   UNL     1       0.731  -0.503   1.223  0.00  0.00    -0.045 A 
ATOM     16  C   UNL     1       2.050  -0.148   1.434  0.00  0.00    +0.004 A 
ATOM     17  C   UNL     1       2.719  -0.606   2.554  0.00  0.00    +0.006 A 
ATOM     18  C   UNL     1       2.068  -1.419   3.463  0.00  0.00    -0.023 A 
ATOM     19  C   UNL     1       0.749  -1.773   3.252  0.00  0.00    +0.006 A 
ATOM     20  C   UNL     1       0.079  -1.312   2.135  0.00  0.00    +0.004 A 
BRANCH  15  22
ATOM     21  C   UNL     1      -0.019   1.526   0.010  0.00  0.00    +0.012 C 
ATOM     22  C   UNL     1       0.002  -0.004   0.002  0.00  0.00    +0.013 C 
ATOM     23  C   UNL     1       0.718  -0.497  -1.257  0.00  0.00    +0.012 C 
ENDBRANCH  15  22
ENDBRANCH   1  18
TORSDOF 2
