REMARK  Name = ZINC56782317
REMARK  10 active torsions:
REMARK  status: ('A' for Active; 'I' for Inactive)
REMARK    1  A    between atoms: C_1  and  C_2
REMARK    2  A    between atoms: C_2  and  C_3
REMARK    3  A    between atoms: C_3  and  C_4
REMARK    4  A    between atoms: C_4  and  C_5
REMARK    5  A    between atoms: C_5  and  C_6
REMARK    6  A    between atoms: C_6  and  C_7
REMARK    7  A    between atoms: C_7  and  C_9
REMARK    8  A    between atoms: C_7  and  N_10
REMARK    9  A    between atoms: C_16  and  C_19
REMARK   10  A    between atoms: C_24  and  C_27
REMARK                            x       y       z     vdW  Elec       q    Type
REMARK                         _______ _______ _______ _____ _____    ______ ____
ROOT
ATOM      1  N   UNL     1       1.419  -4.161  -4.975  0.00  0.00    -0.297 N 
ATOM      2  C   UNL     1       2.035  -4.019  -6.165  0.00  0.00    +0.302 C 
ATOM      3  O   UNL     1       3.244  -4.119  -6.240  0.00  0.00    -0.253 OA
ATOM      4  N   UNL     1       1.310  -3.765  -7.273  0.00  0.00    -0.286 N 
ATOM      5  C   UNL     1      -0.137  -3.526  -7.183  0.00  0.00    +0.110 C 
ATOM      6  C   UNL     1      -0.855  -4.483  -8.139  0.00  0.00    +0.032 C 
ATOM      7  C   UNL     1      -0.278  -4.320  -9.547  0.00  0.00    +0.078 C 
ATOM      8  C   UNL     1       1.210  -4.677  -9.534  0.00  0.00    +0.032 C 
ATOM      9  C   UNL     1       1.953  -3.716  -8.593  0.00  0.00    +0.110 C 
ATOM     10  H   UNL     1       0.464  -4.009  -4.902  0.00  0.00    +0.151 HD
ENDROOT
BRANCH   7  11
ATOM     11  C   UNL     1      -1.006  -5.236 -10.497  0.00  0.00    +0.222 C 
ATOM     12  O   UNL     1      -1.898  -5.948 -10.088  0.00  0.00    -0.275 OA
ATOM     13  N   UNL     1      -0.665  -5.262 -11.801  0.00  0.00    -0.264 N 
ATOM     14  C   UNL     1      -1.337  -6.107 -12.677  0.00  0.00    +0.165 A 
ATOM     15  N   UNL     1      -1.139  -6.270 -13.968  0.00  0.00    -0.230 NA
ATOM     16  C   UNL     1      -1.868  -7.120 -14.667  0.00  0.00    +0.047 A 
ATOM     17  C   UNL     1      -2.822  -7.811 -13.996  0.00  0.00    +0.071 A 
ATOM     18  S   UNL     1      -2.594  -7.175 -12.344  0.00  0.00    -0.060 S 
ATOM     19  C   UNL     1      -1.650  -7.312 -16.146  0.00  0.00    +0.066 C 
ATOM     20  H   UNL     1       0.049  -4.692 -12.127  0.00  0.00    +0.157 HD
ENDBRANCH   7  11
BRANCH   1  21
ATOM     21  C   UNL     1       2.192  -4.546  -3.792  0.00  0.00    +0.071 C 
ATOM     22  C   UNL     1       2.322  -6.070  -3.741  0.00  0.00    +0.028 C 
BRANCH  21  23
ATOM     23  C   UNL     1       1.476  -4.054  -2.533  0.00  0.00    +0.022 C 
BRANCH  23  24
ATOM     24  C   UNL     1       1.456  -2.524  -2.522  0.00  0.00    +0.002 C 
BRANCH  24  25
ATOM     25  C   UNL     1       0.740  -2.032  -1.263  0.00  0.00    +0.000 C 
BRANCH  25  26
ATOM     26  C   UNL     1       0.720  -0.502  -1.253  0.00  0.00    -0.000 C 
BRANCH  26  28
ATOM     27  C   UNL     1      -0.016   1.520   0.016  0.00  0.00    +0.004 C 
ATOM     28  C   UNL     1       0.004  -0.009   0.006  0.00  0.00    -0.003 C 
ENDBRANCH  26  28
ENDBRANCH  25  26
ENDBRANCH  24  25
ENDBRANCH  23  24
ENDBRANCH  21  23
ENDBRANCH   1  21
TORSDOF 7
