REMARK  Name = ZINC55281816
REMARK  11 active torsions:
REMARK  status: ('A' for Active; 'I' for Inactive)
REMARK    1  A    between atoms: C_1  and  O_2
REMARK    2  A    between atoms: O_2  and  C_3
REMARK    3  A    between atoms: C_3  and  C_5
REMARK    4  A    between atoms: N_11  and  C_12
REMARK    5  A    between atoms: C_12  and  C_13
REMARK    6  A    between atoms: N_20  and  C_24
REMARK    7  A    between atoms: C_24  and  C_25
REMARK    8  A    between atoms: C_29  and  O_31
REMARK    9  A    between atoms: O_31  and  C_32
REMARK   10  A    between atoms: C_32  and  C_33
REMARK   11  A    between atoms: C_33  and  O_34
REMARK                            x       y       z     vdW  Elec       q    Type
REMARK                         _______ _______ _______ _____ _____    ______ ____
ROOT
ATOM      1  C   UNL     1       2.956  -1.989  -4.053  0.00  0.00    -0.033 A 
ATOM      2  C   UNL     1       3.687  -3.087  -4.470  0.00  0.00    +0.008 A 
ATOM      3  C   UNL     1       4.053  -3.214  -5.796  0.00  0.00    +0.046 A 
ATOM      4  C   UNL     1       3.687  -2.233  -6.707  0.00  0.00    +0.122 A 
ATOM      5  C   UNL     1       2.969  -1.132  -6.283  0.00  0.00    -0.022 A 
ATOM      6  C   UNL     1       2.590  -1.012  -4.962  0.00  0.00    +0.010 A 
ATOM      7  C   UNL     1       2.616  -0.042  -7.277  0.00  0.00    -0.039 C 
ATOM      8  N   UNL     1       1.630  -0.570  -8.226  0.00  0.00    +0.387 N 
ATOM      9  C   UNL     1       2.281  -1.282  -9.321  0.00  0.00    -0.036 C 
ATOM     10  C   UNL     1       2.922  -2.588  -8.912  0.00  0.00    +0.210 C 
ATOM     11  O   UNL     1       4.021  -2.359  -8.021  0.00  0.00    -0.494 OA
ATOM     12  H   UNL     1       1.011  -1.203  -7.742  0.00  0.00    -0.081 HD
ENDROOT
BRANCH   1  13
ATOM     13  C   UNL     1       2.552  -1.860  -2.607  0.00  0.00    +0.120 C 
BRANCH  13  19
ATOM     14  C   UNL     1       0.647  -2.086  -1.130  0.00  0.00    +0.166 C 
ATOM     15  C   UNL     1      -0.767  -2.660  -1.019  0.00  0.00    +0.030 C 
ATOM     16  C   UNL     1      -0.700  -4.188  -1.095  0.00  0.00    +0.003 C 
ATOM     17  C   UNL     1      -0.026  -4.597  -2.408  0.00  0.00    +0.015 C 
ATOM     18  C   UNL     1       1.367  -3.967  -2.478  0.00  0.00    +0.085 C 
ATOM     19  N   UNL     1       1.248  -2.505  -2.403  0.00  0.00    -0.286 NA
BRANCH  14  20
ATOM     20  C   UNL     1       0.584  -0.582  -1.075  0.00  0.00    +0.324 C 
ATOM     21  O   UNL     1       0.485   0.056  -2.097  0.00  0.00    -0.249 OA
BRANCH  20  23
ATOM     22  C   UNL     1       0.574   1.478   0.085  0.00  0.00    +0.280 C 
ATOM     23  O   UNL     1       0.638   0.050   0.108  0.00  0.00    -0.467 OA
ENDBRANCH  20  23
ENDBRANCH  14  20
ENDBRANCH  13  19
ENDBRANCH   1  13
BRANCH   8  24
ATOM     24  C   UNL     1       0.846   0.544  -8.775  0.00  0.00    -0.042 C 
BRANCH  24  25
ATOM     25  C   UNL     1      -0.249   0.001  -9.657  0.00  0.00    -0.060 A 
ATOM     26  C   UNL     1      -0.014  -0.201 -11.004  0.00  0.00    +0.002 A 
ATOM     27  C   UNL     1      -1.016  -0.699 -11.816  0.00  0.00    +0.004 A 
ATOM     28  C   UNL     1      -2.256  -0.995 -11.282  0.00  0.00    +0.045 A 
ATOM     29  C   UNL     1      -2.494  -0.794  -9.931  0.00  0.00    +0.121 A 
ATOM     30  C   UNL     1      -1.484  -0.300  -9.117  0.00  0.00    +0.047 A 
BRANCH  29  31
ATOM     31  O   UNL     1      -3.712  -1.085  -9.403  0.00  0.00    -0.490 OA
BRANCH  31  32
ATOM     32  C   UNL     1      -4.701  -1.596 -10.299  0.00  0.00    +0.256 C 
BRANCH  32  33
ATOM     33  C   UNL     1      -5.997  -1.863  -9.530  0.00  0.00    +0.196 C 
BRANCH  33  34
ATOM     34  O   UNL     1      -6.527  -0.627  -9.046  0.00  0.00    -0.392 OA
ATOM     35  H   UNL     1      -7.350  -0.720  -8.547  0.00  0.00    +0.210 HD
ENDBRANCH  33  34
ENDBRANCH  32  33
ENDBRANCH  31  32
ENDBRANCH  29  31
ENDBRANCH  24  25
ENDBRANCH   8  24
TORSDOF 10
