REMARK  Name = ZINC12412792
REMARK  6 active torsions:
REMARK  status: ('A' for Active; 'I' for Inactive)
REMARK    1  A    between atoms: C_1  and  C_2
REMARK    2  A    between atoms: C_2  and  O_3
REMARK    3  A    between atoms: O_3  and  C_4
REMARK    4  A    between atoms: C_4  and  C_6
REMARK    5  A    between atoms: C_7  and  N_29
REMARK    6  A    between atoms: C_20  and  C_22
REMARK                            x       y       z     vdW  Elec       q    Type
REMARK                         _______ _______ _______ _____ _____    ______ ____
ROOT
ATOM      1  C   UNL     1       4.817   1.482  -0.443  0.00  0.00    +0.105 C 
ATOM      2  C   UNL     1       4.773   0.126  -0.394  0.00  0.00    +0.195 C 
ATOM      3  O   UNL     1       3.667  -0.528  -0.000  0.00  0.00    -0.441 OA
ATOM      4  C   UNL     1       2.475   0.099  -0.011  0.00  0.00    +0.152 A 
ATOM      5  C   UNL     1       1.229  -0.682   0.007  0.00  0.00    +0.060 A 
ATOM      6  C   UNL     1       1.253  -2.078   0.035  0.00  0.00    +0.015 A 
ATOM      7  C   UNL     1       0.068  -2.779   0.052  0.00  0.00    +0.001 A 
ATOM      8  C   UNL     1      -1.144  -2.105   0.041  0.00  0.00    +0.004 A 
ATOM      9  C   UNL     1      -1.183  -0.727   0.013  0.00  0.00    +0.047 A 
ATOM     10  C   UNL     1       0.001  -0.001  -0.004  0.00  0.00    +0.143 A 
ATOM     11  O   UNL     1      -0.016   1.349  -0.031  0.00  0.00    -0.422 OA
ATOM     12  C   UNL     1       1.117   2.069  -0.047  0.00  0.00    +0.345 A 
ATOM     13  O   UNL     1       1.046   3.285  -0.072  0.00  0.00    -0.245 OA
ATOM     14  C   UNL     1       2.384   1.459  -0.038  0.00  0.00    +0.092 A 
ATOM     15  C   UNL     1       3.624   2.311  -0.056  0.00  0.00    +0.103 C 
ENDROOT
BRANCH  15  16
ATOM     16  C   UNL     1       3.847   2.897   1.315  0.00  0.00    -0.021 A 
ATOM     17  C   UNL     1       4.023   2.063   2.403  0.00  0.00    +0.005 A 
ATOM     18  C   UNL     1       4.233   2.601   3.659  0.00  0.00    +0.000 A 
ATOM     19  C   UNL     1       4.256   3.973   3.829  0.00  0.00    +0.001 A 
ATOM     20  C   UNL     1       4.075   4.807   2.742  0.00  0.00    +0.015 A 
ATOM     21  C   UNL     1       3.870   4.269   1.484  0.00  0.00    +0.022 A 
ATOM     22 BR   UNL     1       3.623   5.410  -0.003  0.00  0.00    -0.050 Br
ENDBRANCH  15  16
BRANCH   2  23
ATOM     23  N   UNL     1       5.882  -0.592  -0.755  0.00  0.00    -0.329 N 
ATOM     24  H   UNL     1       6.709  -0.133  -0.968  0.00  0.00    +0.145 HD
ATOM     25  H   UNL     1       5.840  -1.560  -0.798  0.00  0.00    +0.145 HD
ENDBRANCH   2  23
BRANCH   1  26
ATOM     26  C   UNL     1       5.995   2.121  -0.862  0.00  0.00    +0.341 C 
ATOM     27  O   UNL     1       6.081   2.557  -1.996  0.00  0.00    -0.245 OA
BRANCH  26  28
ATOM     28  O   UNL     1       7.032   2.252  -0.007  0.00  0.00    -0.462 OA
BRANCH  28  30
ATOM     29  C   UNL     1       9.259   2.965   0.602  0.00  0.00    +0.048 C 
ATOM     30  C   UNL     1       8.200   2.912  -0.500  0.00  0.00    +0.229 C 
ENDBRANCH  28  30
ENDBRANCH  26  28
ENDBRANCH   1  26
TORSDOF 5
