REMARK  Name = ZINC34749645
REMARK  7 active torsions:
REMARK  status: ('A' for Active; 'I' for Inactive)
REMARK    1  A    between atoms: C_1  and  C_2
REMARK    2  A    between atoms: C_2  and  C_4
REMARK    3  A    between atoms: C_4  and  N_5
REMARK    4  A    between atoms: C_15  and  C_18
REMARK    5  A    between atoms: N_26  and  C_27
REMARK    6  A    between atoms: C_27  and  C_28
REMARK    7  A    between atoms: N_30  and  C_31
REMARK                            x       y       z     vdW  Elec       q    Type
REMARK                         _______ _______ _______ _____ _____    ______ ____
ROOT
ATOM      1  N   UNL     1      -2.360  -0.239  -0.998  0.00  0.00    +0.384 N 
ATOM      2  C   UNL     1      -3.814  -0.201  -1.198  0.00  0.00    -0.059 C 
ATOM      3  C   UNL     1      -4.163  -0.881  -2.526  0.00  0.00    +0.089 C 
ATOM      4  N   UNL     1      -3.386  -0.239  -3.597  0.00  0.00    -0.304 N 
ATOM      5  C   UNL     1      -1.935  -0.088  -3.406  0.00  0.00    +0.089 C 
ATOM      6  C   UNL     1      -1.691   0.555  -2.036  0.00  0.00    -0.059 C 
ATOM      7  C   UNL     1      -3.997   0.205  -4.743  0.00  0.00    +0.202 A 
ATOM      8  N   UNL     1      -4.541   1.404  -4.766  0.00  0.00    -0.208 NA
ATOM      9  C   UNL     1      -5.139   1.861  -5.861  0.00  0.00    +0.118 A 
ATOM     10  C   UNL     1      -5.221   1.099  -7.038  0.00  0.00    +0.080 A 
ATOM     11  C   UNL     1      -5.910   1.749  -8.148  0.00  0.00    +0.004 A 
ATOM     12  C   UNL     1      -6.403   2.997  -7.967  0.00  0.00    +0.056 A 
ATOM     13  S   UNL     1      -5.966   3.374  -6.281  0.00  0.00    -0.076 S 
ATOM     14  C   UNL     1      -4.622  -0.198  -6.983  0.00  0.00    +0.265 A 
ATOM     15  O   UNL     1      -4.644  -0.930  -7.958  0.00  0.00    -0.267 OA
ATOM     16  N   UNL     1      -4.027  -0.598  -5.845  0.00  0.00    -0.271 N 
ATOM     17  H   UNL     1      -2.040  -1.194  -1.049  0.00  0.00    -0.081 HD
ENDROOT
BRANCH  11  18
ATOM     18  C   UNL     1      -6.067   1.057  -9.449  0.00  0.00    -0.017 A 
ATOM     19  C   UNL     1      -4.964   0.468 -10.066  0.00  0.00    +0.008 A 
ATOM     20  C   UNL     1      -5.117  -0.176 -11.277  0.00  0.00    +0.001 A 
ATOM     21  C   UNL     1      -6.361  -0.237 -11.880  0.00  0.00    +0.000 A 
ATOM     22  C   UNL     1      -7.458   0.346 -11.272  0.00  0.00    +0.001 A 
ATOM     23  C   UNL     1      -7.319   0.987 -10.058  0.00  0.00    +0.008 A 
ENDBRANCH  11  18
BRANCH   1  24
ATOM     24  C   UNL     1      -2.034   0.314   0.324  0.00  0.00    -0.048 C 
BRANCH  24  26
ATOM     25  C   UNL     1      -1.841  -1.809   1.829  0.00  0.00    +0.036 C 
ATOM     26  C   UNL     1      -2.600  -0.581   1.396  0.00  0.00    -0.096 C 
ATOM     27  C   UNL     1      -3.751  -0.292   1.951  0.00  0.00    +0.005 C 
ENDBRANCH  24  26
ENDBRANCH   1  24
BRANCH  16  28
ATOM     28  C   UNL     1      -3.406  -1.924  -5.785  0.00  0.00    +0.223 C 
BRANCH  28  29
ATOM     29  C   UNL     1      -4.452  -2.953  -5.443  0.00  0.00    +0.233 C 
ATOM     30  O   UNL     1      -5.603  -2.613  -5.266  0.00  0.00    -0.274 OA
ATOM     31  N   UNL     1      -4.109  -4.252  -5.333  0.00  0.00    -0.311 N 
ATOM     32  H   UNL     1      -3.189  -4.524  -5.474  0.00  0.00    +0.149 HD
BRANCH  31  33
ATOM     33  C   UNL     1      -5.126  -5.253  -5.000  0.00  0.00    +0.073 C 
ATOM     34  C   UNL     1      -5.296  -5.321  -3.481  0.00  0.00    +0.022 C 
ATOM     35  C   UNL     1      -6.358  -6.366  -3.134  0.00  0.00    +0.002 C 
ATOM     36  C   UNL     1      -5.919  -7.734  -3.660  0.00  0.00    +0.000 C 
ATOM     37  C   UNL     1      -5.748  -7.666  -5.179  0.00  0.00    +0.002 C 
ATOM     38  C   UNL     1      -4.686  -6.620  -5.526  0.00  0.00    +0.022 C 
ENDBRANCH  31  33
ENDBRANCH  28  29
ENDBRANCH  16  28
TORSDOF 6
