REMARK  Name = ZINC39686549
REMARK  9 active torsions:
REMARK  status: ('A' for Active; 'I' for Inactive)
REMARK    1  A    between atoms: C_1  and  C_2
REMARK    2  A    between atoms: C_2  and  C_4
REMARK    3  A    between atoms: C_2  and  N_13
REMARK    4  A    between atoms: C_4  and  C_5
REMARK    5  A    between atoms: C_10  and  O_11
REMARK    6  A    between atoms: O_11  and  C_12
REMARK    7  A    between atoms: C_14  and  C_16
REMARK    8  A    between atoms: C_27  and  C_29
REMARK    9  A    between atoms: C_29  and  C_35
REMARK                            x       y       z     vdW  Elec       q    Type
REMARK                         _______ _______ _______ _____ _____    ______ ____
ROOT
ATOM      1  C   UNL     1       2.752  -2.102   2.667  0.00  0.00    +0.100 C 
ATOM      2  C   UNL     1       2.462  -3.578   2.314  0.00  0.00    +0.121 C 
ATOM      3  N   UNL     1       3.691  -4.048   1.633  0.00  0.00    -0.300 N 
ATOM      4  C   UNL     1       4.798  -3.420   2.394  0.00  0.00    +0.115 C 
ATOM      5  C   UNL     1       4.286  -2.003   2.723  0.00  0.00    -0.004 C 
ATOM      6  C   UNL     1       4.739  -1.589   4.120  0.00  0.00    -0.010 C 
ATOM      7  C   UNL     1       6.263  -1.441   4.135  0.00  0.00    -0.082 C 
ATOM      8  N   UNL     1       6.668  -0.433   3.148  0.00  0.00    +0.379 N 
ATOM      9  C   UNL     1       6.312  -0.883   1.797  0.00  0.00    -0.082 C 
ATOM     10  C   UNL     1       4.790  -1.007   1.683  0.00  0.00    -0.010 C 
ATOM     11  C   UNL     1       3.783  -4.864   0.564  0.00  0.00    +0.222 C 
ATOM     12  O   UNL     1       2.778  -5.230  -0.007  0.00  0.00    -0.275 OA
ATOM     13  H   UNL     1       6.198   0.438   3.346  0.00  0.00    -0.086 HD
ATOM     14  H   UNL     1       7.666  -0.293   3.202  0.00  0.00    -0.086 HD
ENDROOT
BRANCH  11  15
ATOM     15  C   UNL     1       5.134  -5.322   0.080  0.00  0.00    +0.044 C 
ATOM     16  C   UNL     1       5.910  -4.125  -0.473  0.00  0.00    +0.016 C 
ATOM     17  C   UNL     1       5.133  -3.507  -1.637  0.00  0.00    +0.001 C 
ATOM     18  C   UNL     1       4.952  -4.551  -2.741  0.00  0.00    +0.000 C 
ATOM     19  C   UNL     1       4.176  -5.748  -2.188  0.00  0.00    +0.001 C 
ATOM     20  C   UNL     1       4.954  -6.366  -1.024  0.00  0.00    +0.016 C 
ATOM     21  C   UNL     1       5.912  -5.940   1.244  0.00  0.00    +0.021 C 
ENDBRANCH  11  15
BRANCH   1  23
ATOM     22  N   UNL     1       1.957   0.105   1.881  0.00  0.00    -0.312 N 
ATOM     23  C   UNL     1       2.207  -1.189   1.599  0.00  0.00    +0.218 C 
ATOM     24  O   UNL     1       1.992  -1.619   0.485  0.00  0.00    -0.275 OA
ATOM     25  H   UNL     1       2.196   0.467   2.749  0.00  0.00    +0.149 HD
BRANCH  22  27
ATOM     26  C   UNL     1       2.384   1.463  -0.107  0.00  0.00    +0.028 C 
ATOM     27  C   UNL     1       1.325   0.965   0.878  0.00  0.00    +0.074 C 
BRANCH  27  28
ATOM     28  C   UNL     1       0.669   2.161   1.571  0.00  0.00    +0.060 C 
BRANCH  28  29
ATOM     29  C   UNL     1      -0.472   1.681   2.430  0.00  0.00    -0.004 A 
ATOM     30  C   UNL     1      -1.749   1.611   1.907  0.00  0.00    +0.007 A 
ATOM     31  C   UNL     1      -2.797   1.171   2.694  0.00  0.00    +0.000 A 
ATOM     32  C   UNL     1      -2.570   0.799   4.006  0.00  0.00    +0.004 A 
ATOM     33  C   UNL     1      -1.295   0.866   4.534  0.00  0.00    +0.046 A 
ATOM     34  C   UNL     1      -0.241   1.303   3.744  0.00  0.00    +0.123 A 
BRANCH  34  35
ATOM     35  O   UNL     1       1.015   1.365   4.259  0.00  0.00    -0.495 OA
ATOM     36  C   UNL     1       1.161   1.073   5.651  0.00  0.00    +0.277 C 
ENDBRANCH  34  35
ENDBRANCH  28  29
ENDBRANCH  27  28
ENDBRANCH  22  27
ENDBRANCH   1  23
TORSDOF 6
