REMARK  Name = ZINC21350824
REMARK  10 active torsions:
REMARK  status: ('A' for Active; 'I' for Inactive)
REMARK    1  A    between atoms: C_1  and  C_2
REMARK    2  A    between atoms: C_4  and  C_23
REMARK    3  A    between atoms: C_7  and  N_8
REMARK    4  A    between atoms: C_9  and  C_11
REMARK    5  A    between atoms: N_16  and  C_18
REMARK    6  A    between atoms: C_18  and  C_19
REMARK    7  A    between atoms: C_18  and  C_20
REMARK    8  A    between atoms: C_18  and  C_21
REMARK    9  A    between atoms: C_23  and  C_25
REMARK   10  A    between atoms: C_23  and  C_27
REMARK                            x       y       z     vdW  Elec       q    Type
REMARK                         _______ _______ _______ _____ _____    ______ ____
ROOT
ATOM      1  C   UNL     1      -0.545  -3.788   3.733  0.00  0.00    +0.045 C 
ATOM      2  C   UNL     1       0.373  -2.872   4.500  0.00  0.00    -0.029 A 
ATOM      3  C   UNL     1       0.590  -3.081   5.848  0.00  0.00    +0.011 A 
ATOM      4  C   UNL     1       1.432  -2.241   6.553  0.00  0.00    -0.008 A 
ATOM      5  C   UNL     1       2.059  -1.187   5.912  0.00  0.00    +0.047 A 
ATOM      6  C   UNL     1       1.850  -0.976   4.562  0.00  0.00    +0.044 A 
ATOM      7  C   UNL     1       1.001  -1.816   3.853  0.00  0.00    +0.038 A 
ATOM      8 CL   UNL     1       3.114  -0.134   6.801  0.00  0.00    -0.083 Cl
ENDROOT
BRANCH   7   9
ATOM      9  N   UNL     1       0.783  -1.602   2.487  0.00  0.00    -0.285 N 
ATOM     10  C   UNL     1       0.954  -0.372   1.962  0.00  0.00    +0.222 C 
ATOM     11  O   UNL     1       1.193   0.570   2.688  0.00  0.00    -0.275 OA
ATOM     12  H   UNL     1       0.472  -2.437   1.842  0.00  0.00    +0.155 HD
BRANCH  10  13
ATOM     13  C   UNL     1       0.847  -0.167   0.473  0.00  0.00    +0.101 C 
ATOM     14  C   UNL     1      -0.564  -0.541  -0.038  0.00  0.00    +0.110 C 
ATOM     15  C   UNL     1      -1.324   0.767  -0.018  0.00  0.00    +0.217 C 
ATOM     16  O   UNL     1      -2.531   0.870  -0.081  0.00  0.00    -0.276 OA
ATOM     17  N   UNL     1      -0.467   1.798   0.073  0.00  0.00    -0.296 N 
ATOM     18  C   UNL     1       0.925   1.333   0.114  0.00  0.00    +0.121 C 
BRANCH  17  19
ATOM     19  C   UNL     1      -0.870   3.206   0.124  0.00  0.00    +0.029 C 
ATOM     20  C   UNL     1      -2.395   3.302   0.059  0.00  0.00    +0.031 C 
ATOM     21  C   UNL     1      -0.375   3.831   1.430  0.00  0.00    +0.031 C 
ATOM     22  C   UNL     1      -0.260   3.955  -1.063  0.00  0.00    +0.031 C 
ENDBRANCH  17  19
ENDBRANCH  10  13
ENDBRANCH   7   9
BRANCH   4  23
ATOM     23  C   UNL     1       1.666  -2.473   8.024  0.00  0.00    +0.153 C 
BRANCH  23  24
ATOM     24  C   UNL     1       2.374  -3.789   8.218  0.00  0.00    -0.026 A 
ATOM     25  C   UNL     1       1.644  -4.934   8.481  0.00  0.00    +0.006 A 
ATOM     26  C   UNL     1       2.293  -6.142   8.654  0.00  0.00    +0.020 A 
ATOM     27  C   UNL     1       3.672  -6.204   8.575  0.00  0.00    +0.041 A 
ATOM     28  C   UNL     1       4.402  -5.057   8.318  0.00  0.00    +0.020 A 
ATOM     29  C   UNL     1       3.753  -3.850   8.140  0.00  0.00    +0.006 A 
ATOM     30 CL   UNL     1       4.488  -7.720   8.800  0.00  0.00    -0.084 Cl
ENDBRANCH  23  24
BRANCH  23  31
ATOM     31  C   UNL     1       0.374  -2.502   8.728  0.00  0.00    +0.075 C 
ATOM     32  N   UNL     1      -0.624  -2.524   9.272  0.00  0.00    -0.196 NA
ENDBRANCH  23  31
ENDBRANCH   4  23
TORSDOF 6
