REMARK  Name = ZINC44785351
REMARK  5 active torsions:
REMARK  status: ('A' for Active; 'I' for Inactive)
REMARK    1  A    between atoms: C_1  and  C_2
REMARK    2  A    between atoms: C_2  and  C_3
REMARK    3  A    between atoms: C_10  and  C_12
REMARK    4  A    between atoms: C_12  and  C_19
REMARK    5  A    between atoms: N_20  and  O_21
REMARK                            x       y       z     vdW  Elec       q    Type
REMARK                         _______ _______ _______ _____ _____    ______ ____
ROOT
ATOM      1  C   UNL     1       3.046  -3.653  -3.848  0.00  0.00    +0.105 C 
ATOM      2  C   UNL     1       2.006  -4.410  -4.627  0.00  0.00    +0.024 C 
ATOM      3  C   UNL     1       0.988  -5.122  -3.715  0.00  0.00    +0.001 C 
ATOM      4  C   UNL     1       1.646  -5.791  -2.494  0.00  0.00    +0.000 C 
ATOM      5  C   UNL     1       2.932  -6.491  -2.844  0.00  0.00    +0.000 C 
ATOM      6  C   UNL     1       4.103  -5.522  -2.584  0.00  0.00    +0.001 C 
ATOM      7  C   UNL     1       4.279  -4.561  -3.664  0.00  0.00    +0.024 C 
ENDROOT
BRANCH   1  14
ATOM      8  C   UNL     1       3.749  -2.891   0.777  0.00  0.00    +0.006 C 
ATOM      9  C   UNL     1       5.153  -2.353   0.491  0.00  0.00    +0.006 C 
ATOM     10  C   UNL     1       5.603  -2.810  -0.898  0.00  0.00    +0.019 C 
ATOM     11  C   UNL     1       4.646  -2.246  -1.952  0.00  0.00    +0.108 C 
ATOM     12  N   UNL     1       3.273  -2.639  -1.603  0.00  0.00    -0.300 N 
ATOM     13  C   UNL     1       2.770  -2.329  -0.258  0.00  0.00    +0.111 C 
ATOM     14  C   UNL     1       2.491  -3.273  -2.499  0.00  0.00    +0.229 C 
ATOM     15  O   UNL     1       1.341  -3.537  -2.220  0.00  0.00    -0.275 OA
BRANCH   8  17
ATOM     16  C   UNL     1       4.218  -3.122   3.220  0.00  0.00    +0.004 C 
ATOM     17  C   UNL     1       3.313  -2.460   2.179  0.00  0.00    +0.002 C 
ENDBRANCH   8  17
ENDBRANCH   1  14
BRANCH   1  18
ATOM     18  C   UNL     1       3.443  -2.409  -4.601  0.00  0.00    +0.147 C 
ATOM     19  N   UNL     1       4.638  -2.295  -5.076  0.00  0.00    -0.076 NA
ATOM     20  N   UNL     1       2.530  -1.393  -4.782  0.00  0.00    -0.343 N 
ATOM     21  H   UNL     1       1.612  -1.508  -4.489  0.00  0.00    +0.144 HD
ATOM     22  H   UNL     1       2.805  -0.563  -5.202  0.00  0.00    +0.144 HD
BRANCH  19  23
ATOM     23  O   UNL     1       5.011  -1.126  -5.784  0.00  0.00    -0.408 OA
ATOM     24  H   UNL     1       5.924  -1.133  -6.101  0.00  0.00    +0.328 HD
ENDBRANCH  19  23
ENDBRANCH   1  18
TORSDOF 4
