REMARK  Name = ZINC12205194
REMARK  8 active torsions:
REMARK  status: ('A' for Active; 'I' for Inactive)
REMARK    1  A    between atoms: C_1  and  C_2
REMARK    2  A    between atoms: C_5  and  C_27
REMARK    3  A    between atoms: C_9  and  C_10
REMARK    4  A    between atoms: C_9  and  N_52
REMARK    5  A    between atoms: C_10  and  C_11
REMARK    6  A    between atoms: C_11  and  N_12
REMARK    7  A    between atoms: C_13  and  C_15
REMARK    8  A    between atoms: C_15  and  N_16
REMARK                            x       y       z     vdW  Elec       q    Type
REMARK                         _______ _______ _______ _____ _____    ______ ____
ROOT
ATOM      1  N   UNL     1       3.513   6.734  -1.664  0.00  0.00    -0.314 N 
ATOM      2  C   UNL     1       3.094   5.476  -1.420  0.00  0.00    +0.233 C 
ATOM      3  O   UNL     1       2.833   4.734  -2.343  0.00  0.00    -0.274 OA
ATOM      4  H   UNL     1       3.721   7.327  -0.925  0.00  0.00    +0.149 HD
ENDROOT
BRANCH   1   5
ATOM      5  C   UNL     1       3.655   7.204  -3.044  0.00  0.00    +0.102 C 
BRANCH   5   6
ATOM      6  C   UNL     1       4.143   8.654  -3.041  0.00  0.00    +0.000 C 
BRANCH   6   7
ATOM      7  C   UNL     1       4.291   9.145  -4.483  0.00  0.00    -0.077 C 
BRANCH   7  15
ATOM      8  C   UNL     1       5.543  12.822  -2.861  0.00  0.00    +0.005 C 
ATOM      9  C   UNL     1       4.322  12.845  -3.783  0.00  0.00    -0.031 C 
ATOM     10  C   UNL     1       4.738  13.341  -5.170  0.00  0.00    +0.003 C 
ATOM     11  C   UNL     1       5.756  12.366  -5.769  0.00  0.00    -0.031 C 
ATOM     12  C   UNL     1       5.139  10.967  -5.832  0.00  0.00    -0.076 C 
ATOM     13  C   UNL     1       3.747  11.431  -3.903  0.00  0.00    -0.076 C 
ATOM     14  C   UNL     1       6.132  12.823  -7.180  0.00  0.00    +0.005 C 
ATOM     15  N   UNL     1       4.784  10.538  -4.463  0.00  0.00    +0.380 N 
ATOM     16  H   UNL     1       5.621  10.587  -3.870  0.00  0.00    -0.082 HD
ENDBRANCH   7  15
ENDBRANCH   6   7
ENDBRANCH   5   6
ENDBRANCH   1   5
BRANCH   2  17
ATOM     17  C   UNL     1       2.947   4.993   0.000  0.00  0.00    +0.224 C 
BRANCH  17  18
ATOM     18  N   UNL     1       2.481   3.604  -0.003  0.00  0.00    -0.265 N 
ATOM     19  C   UNL     1       1.151   3.180   0.008  0.00  0.00    +0.091 A 
ATOM     20  C   UNL     1      -0.061   3.852   0.022  0.00  0.00    +0.031 A 
ATOM     21  C   UNL     1      -1.243   3.136   0.030  0.00  0.00    +0.022 A 
ATOM     22  C   UNL     1      -1.218   1.752   0.017  0.00  0.00    +0.045 A 
ATOM     23  C   UNL     1      -0.013   1.076   0.008  0.00  0.00    +0.068 A 
ATOM     24  C   UNL     1       1.178   1.786   0.000  0.00  0.00    +0.158 A 
ATOM     25  O   UNL     1       2.479   1.408  -0.014  0.00  0.00    -0.407 OA
ATOM     26  C   UNL     1       3.257   2.502  -0.015  0.00  0.00    +0.422 A 
ATOM     27  O   UNL     1       4.473   2.500  -0.026  0.00  0.00    -0.223 OA
ATOM     28 CL   UNL     1      -2.708   0.861   0.020  0.00  0.00    -0.083 Cl
ENDBRANCH  17  18
ENDBRANCH   2  17
TORSDOF 6
