REMARK  Name = ZINC39695315
REMARK  11 active torsions:
REMARK  status: ('A' for Active; 'I' for Inactive)
REMARK    1  A    between atoms: C_1  and  C_2
REMARK    2  A    between atoms: C_2  and  C_3
REMARK    3  A    between atoms: C_3  and  C_4
REMARK    4  A    between atoms: C_4  and  C_5
REMARK    5  A    between atoms: C_5  and  C_6
REMARK    6  A    between atoms: C_6  and  C_7
REMARK    7  A    between atoms: C_11  and  C_20
REMARK    8  A    between atoms: N_22  and  C_23
REMARK    9  A    between atoms: C_23  and  C_25
REMARK   10  A    between atoms: C_23  and  C_27
REMARK   11  A    between atoms: C_25  and  C_26
REMARK                            x       y       z     vdW  Elec       q    Type
REMARK                         _______ _______ _______ _____ _____    ______ ____
ROOT
ATOM      1  C   UNL     1       2.027  -4.486   3.343  0.00  0.00    +0.216 C 
ATOM      2  O   UNL     1       2.413  -3.643   4.125  0.00  0.00    -0.276 OA
ATOM      3  N   UNL     1       2.194  -5.793   3.624  0.00  0.00    -0.300 N 
ATOM      4  C   UNL     1       1.799  -6.958   2.798  0.00  0.00    +0.121 C 
ATOM      5  C   UNL     1       2.961  -7.964   2.960  0.00  0.00    +0.100 C 
ATOM      6  C   UNL     1       3.623  -7.588   4.296  0.00  0.00    -0.004 C 
ATOM      7  C   UNL     1       2.821  -6.391   4.828  0.00  0.00    +0.115 C 
ATOM      8  C   UNL     1       5.076  -7.183   4.070  0.00  0.00    -0.010 C 
ATOM      9  C   UNL     1       5.729  -6.869   5.419  0.00  0.00    -0.082 C 
ATOM     10  N   UNL     1       5.658  -8.051   6.286  0.00  0.00    +0.379 N 
ATOM     11  C   UNL     1       4.257  -8.378   6.574  0.00  0.00    -0.082 C 
ATOM     12  C   UNL     1       3.541  -8.756   5.274  0.00  0.00    -0.010 C 
ATOM     13  H   UNL     1       6.096  -8.833   5.823  0.00  0.00    -0.086 HD
ATOM     14  H   UNL     1       6.142  -7.861   7.151  0.00  0.00    -0.086 HD
ENDROOT
BRANCH   5  15
ATOM     15  C   UNL     1       3.942  -7.818   1.826  0.00  0.00    +0.219 C 
ATOM     16  O   UNL     1       4.064  -6.751   1.263  0.00  0.00    -0.275 OA
ATOM     17  N   UNL     1       4.684  -8.874   1.437  0.00  0.00    -0.308 N 
ATOM     18  H   UNL     1       4.569  -9.734   1.871  0.00  0.00    +0.149 HD
BRANCH  17  19
ATOM     19  C   UNL     1       5.664  -8.723   0.358  0.00  0.00    +0.103 C 
BRANCH  19  20
ATOM     20  C   UNL     1       5.773 -10.017  -0.406  0.00  0.00    -0.027 A 
ATOM     21  C   UNL     1       5.749 -11.223   0.269  0.00  0.00    +0.005 A 
ATOM     22  C   UNL     1       5.850 -12.410  -0.432  0.00  0.00    +0.000 A 
ATOM     23  C   UNL     1       5.974 -12.391  -1.808  0.00  0.00    +0.000 A 
ATOM     24  C   UNL     1       5.997 -11.186  -2.484  0.00  0.00    +0.000 A 
ATOM     25  C   UNL     1       5.892  -9.999  -1.783  0.00  0.00    +0.005 A 
ENDBRANCH  19  20
BRANCH  19  26
ATOM     26  C   UNL     1       7.027  -8.366   0.954  0.00  0.00    +0.024 C 
ATOM     27  C   UNL     1       6.968  -6.962   1.558  0.00  0.00    +0.006 C 
ENDBRANCH  19  26
ENDBRANCH  17  19
ENDBRANCH   5  15
BRANCH   1  28
ATOM     28  C   UNL     1       1.361  -4.072   2.056  0.00  0.00    +0.096 C 
BRANCH  28  29
ATOM     29  C   UNL     1       1.297  -2.545   1.984  0.00  0.00    +0.009 C 
BRANCH  29  30
ATOM     30  C   UNL     1       0.621  -2.124   0.677  0.00  0.00    +0.000 C 
BRANCH  30  31
ATOM     31  C   UNL     1       0.557  -0.597   0.605  0.00  0.00    -0.000 C 
BRANCH  31  33
ATOM     32  C   UNL     1      -0.183   1.351  -0.774  0.00  0.00    +0.004 C 
ATOM     33  C   UNL     1      -0.119  -0.176  -0.701  0.00  0.00    -0.003 C 
ENDBRANCH  31  33
ENDBRANCH  30  31
ENDBRANCH  29  30
ENDBRANCH  28  29
ENDBRANCH   1  28
TORSDOF 9
