REMARK  Name = ZINC12657746
REMARK  8 active torsions:
REMARK  status: ('A' for Active; 'I' for Inactive)
REMARK    1  A    between atoms: C_1  and  C_2
REMARK    2  A    between atoms: C_2  and  C_3
REMARK    3  A    between atoms: C_2  and  N_4
REMARK    4  A    between atoms: C_8  and  C_10
REMARK    5  A    between atoms: C_10  and  O_11
REMARK    6  A    between atoms: O_11  and  C_12
REMARK    7  A    between atoms: C_12  and  C_14
REMARK    8  A    between atoms: C_27  and  C_28
REMARK                            x       y       z     vdW  Elec       q    Type
REMARK                         _______ _______ _______ _____ _____    ______ ____
ROOT
ATOM      1  C   UNL     1       1.268   3.561   0.648  0.00  0.00    +0.073 A 
ATOM      2  C   UNL     1       1.184   2.128   0.361  0.00  0.00    +0.015 A 
ATOM      3  C   UNL     1      -0.033   1.442   0.404  0.00  0.00    +0.011 A 
ATOM      4  C   UNL     1      -0.064   0.106   0.130  0.00  0.00    +0.001 A 
ATOM      5  C   UNL     1       1.104  -0.582  -0.192  0.00  0.00    +0.002 A 
ATOM      6  C   UNL     1       2.305   0.056  -0.242  0.00  0.00    +0.028 A 
ATOM      7  C   UNL     1       2.376   1.434   0.035  0.00  0.00    +0.072 A 
ATOM      8  N   UNL     1       3.536   2.085  -0.007  0.00  0.00    -0.247 NA
ATOM      9  C   UNL     1       3.646   3.385   0.249  0.00  0.00    +0.072 A 
ATOM     10  C   UNL     1       2.520   4.156   0.581  0.00  0.00    -0.007 A 
ATOM     11  C   UNL     1       2.933   5.588   0.817  0.00  0.00    +0.043 C 
ATOM     12  C   UNL     1       4.451   5.639   0.597  0.00  0.00    +0.042 C 
ATOM     13  C   UNL     1       4.856   4.230   0.241  0.00  0.00    -0.021 C 
ATOM     14  C   UNL     1       6.104   3.816  -0.035  0.00  0.00    +0.013 C 
ENDROOT
BRANCH  14  15
ATOM     15  C   UNL     1       7.197   4.796  -0.151  0.00  0.00    -0.023 A 
ATOM     16  C   UNL     1       8.470   4.490   0.339  0.00  0.00    +0.009 A 
ATOM     17  C   UNL     1       9.489   5.412   0.228  0.00  0.00    +0.022 A 
ATOM     18  C   UNL     1       9.254   6.640  -0.368  0.00  0.00    +0.059 A 
ATOM     19  C   UNL     1       7.995   6.951  -0.857  0.00  0.00    +0.060 A 
ATOM     20  C   UNL     1       6.968   6.035  -0.757  0.00  0.00    +0.029 A 
ATOM     21 CL   UNL     1       7.711   8.493  -1.603  0.00  0.00    -0.082 Cl
ATOM     22 CL   UNL     1      10.543   7.795  -0.505  0.00  0.00    -0.082 Cl
ENDBRANCH  14  15
BRANCH   1  23
ATOM     23  C   UNL     1       0.064   4.345   0.995  0.00  0.00    +0.341 C 
ATOM     24  O   UNL     1      -0.275   4.454   2.156  0.00  0.00    -0.245 OA
BRANCH  23  25
ATOM     25  O   UNL     1      -0.657   4.938   0.024  0.00  0.00    -0.452 OA
BRANCH  25  26
ATOM     26  C   UNL     1      -1.827   5.691   0.439  0.00  0.00    +0.328 C 
BRANCH  26  31
ATOM     27  N   UNL     1      -5.335   8.291  -1.573  0.00  0.00    -0.297 N 
ATOM     28  C   UNL     1      -4.220   7.547  -1.716  0.00  0.00    +0.306 C 
ATOM     29  O   UNL     1      -3.760   7.349  -2.823  0.00  0.00    -0.252 OA
ATOM     30  N   UNL     1      -3.617   7.022  -0.631  0.00  0.00    -0.237 N 
ATOM     31  C   UNL     1      -2.502   6.278  -0.774  0.00  0.00    +0.258 C 
ATOM     32  O   UNL     1      -2.043   6.081  -1.879  0.00  0.00    -0.272 OA
ATOM     33  H   UNL     1      -5.702   8.449  -0.689  0.00  0.00    +0.151 HD
ATOM     34  H   UNL     1      -3.984   7.180   0.253  0.00  0.00    +0.159 HD
BRANCH  27  36
ATOM     35  C   UNL     1      -7.472   9.098  -2.447  0.00  0.00    +0.027 C 
ATOM     36  C   UNL     1      -5.991   8.862  -2.752  0.00  0.00    +0.068 C 
ATOM     37  C   UNL     1      -5.326  10.192  -3.112  0.00  0.00    +0.027 C 
ENDBRANCH  27  36
ENDBRANCH  26  31
ENDBRANCH  25  26
ENDBRANCH  23  25
ENDBRANCH   1  23
TORSDOF 6
