REMARK  Name = ZINC63581974
REMARK  5 active torsions:
REMARK  status: ('A' for Active; 'I' for Inactive)
REMARK    1  A    between atoms: C_1  and  C_2
REMARK    2  A    between atoms: C_6  and  N_8
REMARK    3  A    between atoms: C_9  and  O_33
REMARK    4  A    between atoms: C_12  and  O_32
REMARK    5  A    between atoms: C_13  and  C_17
REMARK                            x       y       z     vdW  Elec       q    Type
REMARK                         _______ _______ _______ _____ _____    ______ ____
ROOT
ATOM      1  N   UNL     1       0.052  -2.797   2.393  0.00  0.00    -0.225 N 
ATOM      2  C   UNL     1       0.153  -2.052   3.639  0.00  0.00    +0.338 C 
ATOM      3  N   UNL     1      -0.308  -2.828   4.779  0.00  0.00    -0.204 NA
ATOM      4  C   UNL     1      -0.398  -4.101   4.792  0.00  0.00    +0.200 C 
ATOM      5  C   UNL     1      -0.037  -4.955   3.612  0.00  0.00    +0.179 C 
ATOM      6  C   UNL     1      -0.032  -4.133   2.355  0.00  0.00    +0.237 C 
ATOM      7  O   UNL     1      -0.102  -4.693   1.281  0.00  0.00    -0.274 OA
ENDROOT
BRANCH   5   8
ATOM      8  C   UNL     1       1.353  -5.557   3.830  0.00  0.00    +0.101 C 
ATOM      9  C   UNL     1       1.323  -6.501   5.034  0.00  0.00    +0.124 C 
ATOM     10  C   UNL     1       2.768  -6.919   5.284  0.00  0.00    -0.036 C 
ATOM     11  C   UNL     1       2.780  -8.245   5.290  0.00  0.00    -0.001 A 
ATOM     12  C   UNL     1       3.851  -9.216   5.562  0.00  0.00    +0.010 A 
ATOM     13  C   UNL     1       3.511 -10.528   5.464  0.00  0.00    +0.001 A 
ATOM     14  C   UNL     1       2.227 -10.966   5.126  0.00  0.00    +0.002 A 
ATOM     15  C   UNL     1       1.180 -10.144   4.865  0.00  0.00    +0.026 A 
ATOM     16  C   UNL     1       1.412  -8.740   4.942  0.00  0.00    +0.043 A 
ATOM     17  N   UNL     1       0.580  -7.732   4.766  0.00  0.00    -0.376 N 
ATOM     18  C   UNL     1       3.880  -5.903   5.383  0.00  0.00    +0.048 C 
ATOM     19  C   UNL     1       3.705  -4.957   4.180  0.00  0.00    +0.085 C 
ATOM     20  N   UNL     1       2.320  -4.484   4.107  0.00  0.00    -0.310 NA
ATOM     21  H   UNL     1       2.229  -3.733   3.438  0.00  0.00    +0.122 HD
ATOM     22  H   UNL     1      -0.352  -7.786   4.504  0.00  0.00    +0.160 HD
ENDBRANCH   5   8
BRANCH   1  28
ATOM     23  C   UNL     1      -2.496  -0.704  -1.254  0.00  0.00    +0.044 C 
ATOM     24  C   UNL     1      -1.184  -1.062  -0.604  0.00  0.00    -0.049 A 
ATOM     25  C   UNL     1       0.007  -0.689  -1.200  0.00  0.00    +0.003 A 
ATOM     26  C   UNL     1       1.212  -1.015  -0.607  0.00  0.00    +0.002 A 
ATOM     27  C   UNL     1       1.231  -1.714   0.585  0.00  0.00    +0.023 A 
ATOM     28  C   UNL     1       0.037  -2.089   1.186  0.00  0.00    +0.041 A 
ATOM     29  C   UNL     1      -1.173  -1.756   0.590  0.00  0.00    +0.027 A 
ENDBRANCH   1  28
BRANCH   4  30
ATOM     30  O   UNL     1      -0.837  -4.705   5.915  0.00  0.00    -0.495 OA
ATOM     31  H   UNL     1      -1.051  -4.093   6.633  0.00  0.00    +0.293 HD
ENDBRANCH   4  30
BRANCH   2  32
ATOM     32  O   UNL     1      -0.637  -0.866   3.536  0.00  0.00    -0.356 OA
ATOM     33  H   UNL     1      -0.622  -0.314   4.330  0.00  0.00    +0.214 HD
ENDBRANCH   2  32
TORSDOF 4
