REMARK  Name = ZINC01961382
REMARK  8 active torsions:
REMARK  status: ('A' for Active; 'I' for Inactive)
REMARK    1  A    between atoms: C_1  and  C_2
REMARK    2  A    between atoms: C_7  and  N_8
REMARK    3  A    between atoms: C_9  and  C_11
REMARK    4  A    between atoms: C_11  and  N_12
REMARK    5  A    between atoms: C_23  and  C_27
REMARK    6  A    between atoms: C_27  and  C_28
REMARK    7  A    between atoms: C_27  and  C_29
REMARK    8  A    between atoms: C_27  and  C_30
REMARK                            x       y       z     vdW  Elec       q    Type
REMARK                         _______ _______ _______ _____ _____    ______ ____
ROOT
ATOM      1  N   UNL     1       4.307  -3.826  -5.606  0.00  0.00    -0.290 N 
ATOM      2  C   UNL     1       5.413  -3.051  -5.720  0.00  0.00    +0.203 A 
ATOM      3  N   UNL     1       5.602  -1.962  -5.008  0.00  0.00    -0.230 NA
ATOM      4  C   UNL     1       4.650  -1.625  -4.143  0.00  0.00    +0.116 A 
ATOM      5  C   UNL     1       3.462  -2.365  -3.952  0.00  0.00    +0.076 A 
ATOM      6  C   UNL     1       3.296  -3.548  -4.749  0.00  0.00    +0.263 A 
ATOM      7  O   UNL     1       2.308  -4.256  -4.661  0.00  0.00    -0.267 OA
ATOM      8  C   UNL     1       2.535  -1.845  -2.964  0.00  0.00    -0.023 A 
ATOM      9  C   UNL     1       2.901  -0.708  -2.328  0.00  0.00    -0.004 A 
ATOM     10  S   UNL     1       4.483  -0.282  -3.011  0.00  0.00    -0.073 S 
ATOM     11  C   UNL     1       2.132   0.030  -1.275  0.00  0.00    +0.046 C 
ATOM     12  C   UNL     1       0.687  -0.487  -1.275  0.00  0.00    -0.000 C 
ATOM     13  C   UNL     1       0.711  -2.019  -1.282  0.00  0.00    +0.009 C 
ATOM     14  C   UNL     1       1.207  -2.524  -2.636  0.00  0.00    +0.037 C 
ENDROOT
BRANCH  12  15
ATOM     15  C   UNL     1      -0.036   0.009  -0.021  0.00  0.00    -0.035 C 
ATOM     16  C   UNL     1      -0.051   1.539  -0.013  0.00  0.00    +0.011 C 
ATOM     17  C   UNL     1       0.693  -0.501   1.224  0.00  0.00    +0.011 C 
ATOM     18  C   UNL     1      -1.474  -0.515  -0.020  0.00  0.00    +0.011 C 
ENDBRANCH  12  15
BRANCH   1  19
ATOM     19  C   UNL     1       4.200  -5.019  -6.449  0.00  0.00    +0.222 C 
BRANCH  19  21
ATOM     20  N   UNL     1       3.314  -5.605  -8.682  0.00  0.00    -0.284 N 
ATOM     21  C   UNL     1       3.522  -4.659  -7.745  0.00  0.00    +0.237 C 
ATOM     22  O   UNL     1       3.163  -3.518  -7.946  0.00  0.00    -0.274 OA
ATOM     23  H   UNL     1       3.671  -6.498  -8.558  0.00  0.00    +0.155 HD
BRANCH  20  30
ATOM     24  C   UNL     1       3.773  -7.164 -11.018  0.00  0.00    +0.045 C 
ATOM     25  C   UNL     1       2.776  -6.034 -10.998  0.00  0.00    -0.029 A 
ATOM     26  C   UNL     1       2.053  -5.729 -12.134  0.00  0.00    +0.005 A 
ATOM     27  C   UNL     1       1.137  -4.693 -12.116  0.00  0.00    +0.000 A 
ATOM     28  C   UNL     1       0.943  -3.959 -10.960  0.00  0.00    +0.002 A 
ATOM     29  C   UNL     1       1.659  -4.262  -9.819  0.00  0.00    +0.023 A 
ATOM     30  C   UNL     1       2.583  -5.299  -9.836  0.00  0.00    +0.036 A 
ENDBRANCH  20  30
ENDBRANCH  19  21
ENDBRANCH   1  19
TORSDOF 4
