REMARK  Name = ZINC20618138
REMARK  12 active torsions:
REMARK  status: ('A' for Active; 'I' for Inactive)
REMARK    1  A    between atoms: C_1  and  C_2
REMARK    2  A    between atoms: C_2  and  C_3
REMARK    3  A    between atoms: C_3  and  C_5
REMARK    4  A    between atoms: C_3  and  N_6
REMARK    5  A    between atoms: N_6  and  C_7
REMARK    6  A    between atoms: N_6  and  C_32
REMARK    7  A    between atoms: C_7  and  C_8
REMARK    8  A    between atoms: C_8  and  N_9
REMARK    9  A    between atoms: C_10  and  C_12
REMARK   10  A    between atoms: C_12  and  C_13
REMARK   11  A    between atoms: C_16  and  N_19
REMARK   12  A    between atoms: C_32  and  C_33
REMARK                            x       y       z     vdW  Elec       q    Type
REMARK                         _______ _______ _______ _____ _____    ______ ____
ROOT
ATOM      1  C   UNL     1       1.773   7.538   7.263  0.00  0.00    +0.130 C 
ENDROOT
BRANCH   1   2
ATOM      2  C   UNL     1       1.900   7.967   8.702  0.00  0.00    -0.038 A 
ATOM      3  C   UNL     1       0.841   7.784   9.572  0.00  0.00    +0.006 A 
ATOM      4  C   UNL     1       0.956   8.172  10.893  0.00  0.00    +0.028 A 
ATOM      5  C   UNL     1       2.133   8.754  11.344  0.00  0.00    +0.067 A 
ATOM      6  C   UNL     1       3.193   8.941  10.466  0.00  0.00    +0.028 A 
ATOM      7  C   UNL     1       3.073   8.547   9.148  0.00  0.00    +0.006 A 
BRANCH   5   8
ATOM      8  N   UNL     1       2.251   9.152  12.680  0.00  0.00    -0.226 NA
ATOM      9  C   UNL     1       1.168   9.698  13.334  0.00  0.00    +0.155 C 
ATOM     10  N   UNL     1       1.091  10.009  14.589  0.00  0.00    -0.318 N 
ATOM     11  C   UNL     1      -0.119  10.559  15.172  0.00  0.00    +0.108 C 
ATOM     12  C   UNL     1      -0.562   9.661  16.351  0.00  0.00    +0.189 C 
ATOM     13  S   UNL     1      -2.397   9.790  16.263  0.00  0.00    -0.028 S 
ATOM     14  O   UNL     1      -2.837  10.988  16.887  0.00  0.00    -0.174 OA
ATOM     15  O   UNL     1      -2.964   8.545  16.647  0.00  0.00    -0.174 OA
ATOM     16  C   UNL     1      -2.517   9.976  14.430  0.00  0.00    +0.182 C 
ATOM     17  C   UNL     1      -1.229  10.768  14.132  0.00  0.00    +0.097 C 
ATOM     18  S   UNL     1      -0.410  10.126  12.625  0.00  0.00    -0.084 S 
ATOM     19  H   UNL     1       1.979   9.845  15.217  0.00  0.00    +0.148 HD
ENDBRANCH   5   8
ENDBRANCH   1   2
BRANCH   1  21
ATOM     20  N   UNL     1       2.213   5.512   5.913  0.00  0.00    -0.317 N 
ATOM     21  C   UNL     1       2.237   6.112   7.120  0.00  0.00    +0.217 C 
ATOM     22  O   UNL     1       2.632   5.503   8.092  0.00  0.00    -0.275 OA
ATOM     23  H   UNL     1       1.855   6.064   5.032  0.00  0.00    +0.149 HD
BRANCH  20  24
ATOM     24  C   UNL     1       2.665   4.125   5.775  0.00  0.00    +0.086 C 
BRANCH  24  25
ATOM     25  C   UNL     1       2.536   3.690   4.314  0.00  0.00    -0.059 C 
BRANCH  25  26
ATOM     26  N   UNL     1       2.869   2.264   4.197  0.00  0.00    +0.387 N 
ATOM     27  H   UNL     1       2.328   1.724   4.988  0.00  0.00    -0.081 HD
BRANCH  26  28
ATOM     28  C   UNL     1       4.306   2.041   4.399  0.00  0.00    -0.071 C 
ATOM     29  C   UNL     1       4.529   0.640   4.973  0.00  0.00    -0.013 C 
BRANCH  28  31
ATOM     30  C   UNL     1       4.884   3.591   2.527  0.00  0.00    +0.002 C 
ATOM     31  C   UNL     1       5.036   2.165   3.060  0.00  0.00    -0.019 C 
ENDBRANCH  28  31
ENDBRANCH  26  28
BRANCH  26  32
ATOM     32  C   UNL     1       2.430   1.726   2.902  0.00  0.00    -0.003 C 
BRANCH  32  33
ATOM     33  C   UNL     1       2.367   0.222   2.979  0.00  0.00    +0.089 A 
ATOM     34  C   UNL     1       1.335  -0.499   3.451  0.00  0.00    +0.042 A 
ATOM     35  C   UNL     1       1.700  -1.860   3.337  0.00  0.00    +0.041 A 
ATOM     36  C   UNL     1       2.933  -1.889   2.801  0.00  0.00    +0.195 A 
ATOM     37  O   UNL     1       3.332  -0.625   2.586  0.00  0.00    -0.470 OA
ENDBRANCH  32  33
ENDBRANCH  26  32
ENDBRANCH  25  26
ENDBRANCH  24  25
ENDBRANCH  20  24
ENDBRANCH   1  21
TORSDOF 10
