REMARK  Name = ZINC35840407
REMARK  3 active torsions:
REMARK  status: ('A' for Active; 'I' for Inactive)
REMARK    1  A    between atoms: C_1  and  C_2
REMARK    2  A    between atoms: N_21  and  C_24
REMARK    3  A    between atoms: C_29  and  C_30
REMARK                            x       y       z     vdW  Elec       q    Type
REMARK                         _______ _______ _______ _____ _____    ______ ____
ROOT
ATOM      1  C   UNL     1       0.068   1.602   0.133  0.00  0.00    +0.044 C 
ATOM      2  C   UNL     1       0.100   0.096   0.088  0.00  0.00    -0.050 A 
ATOM      3  C   UNL     1       0.041  -0.562  -1.127  0.00  0.00    +0.005 A 
ATOM      4  C   UNL     1       0.072  -1.940  -1.174  0.00  0.00    +0.024 A 
ATOM      5  C   UNL     1       0.162  -2.680   0.003  0.00  0.00    +0.039 A 
ATOM      6  C   UNL     1       0.218  -2.007   1.220  0.00  0.00    +0.004 A 
ATOM      7  C   UNL     1       0.194  -0.631   1.262  0.00  0.00    +0.011 A 
ATOM      8  C   UNL     1       0.302  -3.072   2.276  0.00  0.00    +0.138 C 
ATOM      9  C   UNL     1      -0.879  -2.987   3.250  0.00  0.00    +0.123 C 
ATOM     10  C   UNL     1      -0.316  -2.235   4.487  0.00  0.00    +0.107 C 
ATOM     11  C   UNL     1       1.159  -1.951   4.149  0.00  0.00    +0.071 C 
ATOM     12  N   UNL     1       1.521  -2.934   3.091  0.00  0.00    -0.281 NA
ATOM     13  C   UNL     1       1.773  -4.190   3.836  0.00  0.00    +0.086 C 
ATOM     14  C   UNL     1       2.463  -3.754   5.144  0.00  0.00    +0.017 C 
ATOM     15  C   UNL     1       2.035  -2.278   5.372  0.00  0.00    +0.021 C 
ATOM     16  C   UNL     1      -1.101  -0.943   4.497  0.00  0.00    +0.232 C 
ATOM     17  O   UNL     1      -0.973  -0.051   5.309  0.00  0.00    -0.274 OA
ATOM     18  N   UNL     1      -1.959  -0.936   3.471  0.00  0.00    -0.209 N 
ATOM     19  C   UNL     1      -1.927  -2.047   2.699  0.00  0.00    +0.233 C 
ATOM     20  O   UNL     1      -2.618  -2.260   1.726  0.00  0.00    -0.274 OA
ATOM     21  C   UNL     1       0.292  -4.373   1.519  0.00  0.00    +0.243 C 
ATOM     22  O   UNL     1       0.348  -5.488   1.995  0.00  0.00    -0.273 OA
ATOM     23  N   UNL     1       0.210  -4.060   0.212  0.00  0.00    -0.283 N 
ATOM     24  H   UNL     1       0.186  -4.717  -0.501  0.00  0.00    +0.155 HD
ENDROOT
BRANCH  18  25
ATOM     25  C   UNL     1      -2.828   0.134   3.216  0.00  0.00    +0.056 A 
ATOM     26  C   UNL     1      -2.486   1.099   2.279  0.00  0.00    +0.024 A 
ATOM     27  C   UNL     1      -3.345   2.152   2.030  0.00  0.00    +0.002 A 
ATOM     28  C   UNL     1      -4.543   2.245   2.714  0.00  0.00    +0.001 A 
ATOM     29  C   UNL     1      -4.886   1.285   3.648  0.00  0.00    +0.014 A 
ATOM     30  C   UNL     1      -4.035   0.227   3.896  0.00  0.00    +0.077 A 
BRANCH  30  31
ATOM     31  C   UNL     1      -4.412  -0.823   4.910  0.00  0.00    +0.419 C 
ATOM     32  F   UNL     1      -5.662  -0.515   5.457  0.00  0.00    -0.166 F 
ATOM     33  F   UNL     1      -4.472  -2.074   4.286  0.00  0.00    -0.166 F 
ATOM     34  F   UNL     1      -3.452  -0.855   5.927  0.00  0.00    -0.166 F 
ENDBRANCH  30  31
ENDBRANCH  18  25
TORSDOF 2
