REMARK  Name = ZINC13734811
REMARK  6 active torsions:
REMARK  status: ('A' for Active; 'I' for Inactive)
REMARK    1  A    between atoms: C_1  and  C_2
REMARK    2  A    between atoms: C_5  and  N_8
REMARK    3  A    between atoms: C_20  and  C_27
REMARK    4  A    between atoms: C_29  and  C_31
REMARK    5  A    between atoms: C_31  and  C_33
REMARK    6  A    between atoms: C_31  and  O_40
REMARK                            x       y       z     vdW  Elec       q    Type
REMARK                         _______ _______ _______ _____ _____    ______ ____
ROOT
ATOM      1  N   UNL     1       0.059  -4.172  -0.021  0.00  0.00    -0.210 N 
ATOM      2  C   UNL     1      -0.030  -4.891  -1.146  0.00  0.00    +0.232 C 
ATOM      3  O   UNL     1      -0.133  -4.433  -2.264  0.00  0.00    -0.274 OA
ATOM      4  C   UNL     1       0.018  -6.364  -0.807  0.00  0.00    +0.110 C 
ATOM      5  C   UNL     1       0.160  -6.370   0.741  0.00  0.00    +0.123 C 
ATOM      6  C   UNL     1       0.172  -4.901   1.096  0.00  0.00    +0.233 C 
ATOM      7  O   UNL     1       0.267  -4.452   2.218  0.00  0.00    -0.274 OA
ATOM      8  C   UNL     1      -1.127  -7.034   1.245  0.00  0.00    +0.136 C 
ATOM      9  C   UNL     1      -2.135  -6.015   1.693  0.00  0.00    +0.004 A 
ATOM     10  C   UNL     1      -2.768  -4.967   1.062  0.00  0.00    +0.011 A 
ATOM     11  C   UNL     1      -3.672  -4.184   1.758  0.00  0.00    -0.050 A 
ATOM     12  C   UNL     1      -3.939  -4.458   3.087  0.00  0.00    +0.005 A 
ATOM     13  C   UNL     1      -3.308  -5.506   3.723  0.00  0.00    +0.024 A 
ATOM     14  C   UNL     1      -2.395  -6.299   3.030  0.00  0.00    +0.039 A 
ATOM     15  N   UNL     1      -1.640  -7.397   3.446  0.00  0.00    -0.283 N 
ATOM     16  C   UNL     1      -0.867  -7.887   2.457  0.00  0.00    +0.243 C 
ATOM     17  O   UNL     1      -0.111  -8.832   2.529  0.00  0.00    -0.273 OA
ATOM     18  C   UNL     1      -4.365  -3.037   1.070  0.00  0.00    +0.044 C 
ATOM     19  N   UNL     1      -1.635  -7.840   0.119  0.00  0.00    -0.293 NA
ATOM     20  C   UNL     1      -1.361  -6.995  -1.096  0.00  0.00    +0.101 C 
ATOM     21  H   UNL     1      -1.667  -7.765   4.343  0.00  0.00    +0.155 HD
ATOM     22  H   UNL     1      -1.154  -8.725   0.062  0.00  0.00    +0.124 HD
ENDROOT
BRANCH   1  27
ATOM     23  C   UNL     1      -0.016   1.503   0.009  0.00  0.00    +0.044 C 
ATOM     24  C   UNL     1       0.004  -0.004   0.001  0.00  0.00    -0.050 A 
ATOM     25  C   UNL     1       1.145  -0.681   0.391  0.00  0.00    +0.005 A 
ATOM     26  C   UNL     1       1.166  -2.062   0.385  0.00  0.00    +0.024 A 
ATOM     27  C   UNL     1       0.040  -2.771  -0.013  0.00  0.00    +0.044 A 
ATOM     28  C   UNL     1      -1.104  -2.088  -0.404  0.00  0.00    +0.024 A 
ATOM     29  C   UNL     1      -1.121  -0.707  -0.391  0.00  0.00    +0.005 A 
ENDBRANCH   1  27
BRANCH  20  30
ATOM     30  C   UNL     1      -1.294  -7.870  -2.349  0.00  0.00    +0.162 C 
BRANCH  30  31
ATOM     31  C   UNL     1      -2.648  -8.475  -2.612  0.00  0.00    -0.018 A 
ATOM     32  C   UNL     1      -3.595  -7.765  -3.326  0.00  0.00    +0.007 A 
ATOM     33  C   UNL     1      -4.838  -8.320  -3.568  0.00  0.00    +0.020 A 
ATOM     34  C   UNL     1      -5.134  -9.586  -3.095  0.00  0.00    +0.041 A 
ATOM     35  C   UNL     1      -4.186 -10.296  -2.380  0.00  0.00    +0.020 A 
ATOM     36  C   UNL     1      -2.942  -9.743  -2.144  0.00  0.00    +0.007 A 
ATOM     37 CL   UNL     1      -6.695 -10.283  -3.397  0.00  0.00    -0.084 Cl
ENDBRANCH  30  31
BRANCH  30  38
ATOM     38  O   UNL     1      -0.904  -7.071  -3.468  0.00  0.00    -0.386 OA
ATOM     39  H   UNL     1      -1.509  -6.342  -3.660  0.00  0.00    +0.210 HD
ENDBRANCH  30  38
ENDBRANCH  20  30
TORSDOF 4
