REMARK  Name = ZINC12641120
REMARK  9 active torsions:
REMARK  status: ('A' for Active; 'I' for Inactive)
REMARK    1  A    between atoms: C_1  and  C_2
REMARK    2  A    between atoms: C_2  and  C_4
REMARK    3  A    between atoms: C_2  and  N_16
REMARK    4  A    between atoms: N_6  and  C_7
REMARK    5  A    between atoms: N_16  and  C_17
REMARK    6  A    between atoms: C_19  and  S_25
REMARK    7  A    between atoms: C_22  and  O_23
REMARK    8  A    between atoms: O_23  and  C_24
REMARK    9  A    between atoms: S_25  and  N_28
REMARK                            x       y       z     vdW  Elec       q    Type
REMARK                         _______ _______ _______ _____ _____    ______ ____
ROOT
ATOM      1  C   UNL     1      -1.451   1.825  -0.321  0.00  0.00    +0.072 A 
ATOM      2  C   UNL     1      -0.201   1.238  -0.189  0.00  0.00    +0.055 A 
ATOM      3  C   UNL     1       0.937   2.022  -0.221  0.00  0.00    +0.107 A 
ATOM      4  C   UNL     1       0.832   3.392  -0.379  0.00  0.00    +0.032 A 
ATOM      5  C   UNL     1      -0.411   3.984  -0.506  0.00  0.00    +0.049 A 
ATOM      6  C   UNL     1      -1.556   3.206  -0.474  0.00  0.00    +0.141 A 
ENDROOT
BRANCH   3   7
ATOM      7  S   UNL     1       2.524   1.274  -0.061  0.00  0.00    +0.061 S 
ATOM      8  O   UNL     1       3.401   2.282   0.425  0.00  0.00    -0.153 OA
ATOM      9  O   UNL     1       2.326   0.043   0.622  0.00  0.00    -0.153 OA
BRANCH   7  10
ATOM     10  N   UNL     1       3.041   0.891  -1.586  0.00  0.00    -0.177 NA
ATOM     11  C   UNL     1       2.716  -0.411  -2.122  0.00  0.00    +0.109 C 
ATOM     12  C   UNL     1       3.817  -1.425  -1.747  0.00  0.00    +0.017 C 
ATOM     13  C   UNL     1       5.045  -1.148  -2.509  0.00  0.00    +0.001 C 
ATOM     14  C   UNL     1       5.669   0.214  -2.222  0.00  0.00    +0.001 C 
ATOM     15  C   UNL     1       5.009   1.259  -3.088  0.00  0.00    +0.017 C 
ATOM     16  C   UNL     1       3.821   1.892  -2.341  0.00  0.00    +0.109 C 
ENDBRANCH   7  10
ENDBRANCH   3   7
BRANCH   1  17
ATOM     17  N   UNL     1      -2.605   1.033  -0.294  0.00  0.00    -0.330 N 
ATOM     18  H   UNL     1      -3.478   1.444  -0.386  0.00  0.00    +0.147 HD
BRANCH  17  20
ATOM     19  C   UNL     1      -2.253  -1.072  -1.490  0.00  0.00    +0.038 C 
ATOM     20  C   UNL     1      -2.493  -0.418  -0.127  0.00  0.00    +0.154 C 
BRANCH  20  21
ATOM     21  C   UNL     1      -3.769  -0.955   0.470  0.00  0.00    +0.237 C 
ATOM     22  O   UNL     1      -4.681  -0.200   0.730  0.00  0.00    -0.273 OA
ATOM     23  N   UNL     1      -3.895  -2.275   0.714  0.00  0.00    -0.284 N 
ATOM     24  H   UNL     1      -3.197  -2.888   0.437  0.00  0.00    +0.155 HD
BRANCH  23  25
ATOM     25  C   UNL     1      -5.035  -2.759   1.370  0.00  0.00    +0.037 A 
ATOM     26  C   UNL     1      -5.659  -1.987   2.340  0.00  0.00    +0.027 A 
ATOM     27  C   UNL     1      -6.785  -2.462   2.984  0.00  0.00    +0.051 A 
ATOM     28  C   UNL     1      -7.290  -3.714   2.671  0.00  0.00    +0.166 A 
ATOM     29  C   UNL     1      -6.663  -4.493   1.701  0.00  0.00    +0.168 A 
ATOM     30  C   UNL     1      -5.536  -4.014   1.053  0.00  0.00    +0.072 A 
ATOM     31  O   UNL     1      -7.345  -5.669   1.579  0.00  0.00    -0.453 OA
ATOM     32  C   UNL     1      -8.150  -5.772   2.767  0.00  0.00    +0.466 C 
ATOM     33  O   UNL     1      -8.365  -4.402   3.155  0.00  0.00    -0.453 OA
ENDBRANCH  23  25
ENDBRANCH  20  21
ENDBRANCH  17  20
ENDBRANCH   1  17
BRANCH   6  34
ATOM     34  O   UNL     1      -2.779   3.787  -0.599  0.00  0.00    -0.493 OA
ATOM     35  C   UNL     1      -2.809   5.207  -0.759  0.00  0.00    +0.277 C 
ENDBRANCH   6  34
TORSDOF 7
