REMARK  Name = ZINC05157921
REMARK  5 active torsions:
REMARK  status: ('A' for Active; 'I' for Inactive)
REMARK    1  A    between atoms: C_1  and  C_2
REMARK    2  A    between atoms: C_4  and  C_22
REMARK    3  A    between atoms: N_8  and  N_9
REMARK    4  A    between atoms: C_10  and  C_11
REMARK    5  A    between atoms: C_20  and  O_21
REMARK                            x       y       z     vdW  Elec       q    Type
REMARK                         _______ _______ _______ _____ _____    ______ ____
ROOT
ATOM      1  N   UNL     1       0.045  -1.962   3.551  0.00  0.00    -0.187 NA
ATOM      2  C   UNL     1       0.059  -2.596   4.686  0.00  0.00    +0.142 C 
ENDROOT
BRANCH   1  10
ATOM      3  C   UNL     1      -0.018   1.503   0.010  0.00  0.00    +0.066 C 
ATOM      4  C   UNL     1       0.002  -0.004   0.002  0.00  0.00    +0.044 A 
ATOM      5  C   UNL     1       0.006  -0.699  -1.198  0.00  0.00    +0.046 A 
ATOM      6  C   UNL     1       0.025  -2.085  -1.161  0.00  0.00    +0.044 A 
ATOM      7  N   UNL     1       0.039  -2.699   0.010  0.00  0.00    -0.218 NA
ATOM      8  C   UNL     1       0.035  -2.005   1.139  0.00  0.00    +0.235 A 
ATOM      9  N   UNL     1       0.022  -0.679   1.139  0.00  0.00    -0.218 NA
ATOM     10  N   UNL     1       0.049  -2.680   2.348  0.00  0.00    -0.205 N 
ATOM     11  C   UNL     1       0.029  -2.882  -2.440  0.00  0.00    +0.066 C 
ATOM     12  H   UNL     1       0.062  -3.650   2.361  0.00  0.00    +0.177 HD
ENDBRANCH   1  10
BRANCH   2  13
ATOM     13  C   UNL     1       0.055  -1.843   5.948  0.00  0.00    +0.044 A 
ATOM     14  C   UNL     1       0.076  -2.540   7.233  0.00  0.00    -0.006 A 
ATOM     15  C   UNL     1       0.102  -3.938   7.306  0.00  0.00    +0.009 A 
ATOM     16  C   UNL     1       0.122  -4.549   8.524  0.00  0.00    +0.001 A 
ATOM     17  C   UNL     1       0.117  -3.801   9.699  0.00  0.00    +0.001 A 
ATOM     18  C   UNL     1       0.092  -2.441   9.665  0.00  0.00    +0.008 A 
ATOM     19  C   UNL     1       0.072  -1.777   8.426  0.00  0.00    -0.017 A 
ATOM     20  C   UNL     1       0.047  -0.373   8.351  0.00  0.00    +0.012 A 
ATOM     21  C   UNL     1       0.027   0.259   7.147  0.00  0.00    +0.046 A 
ATOM     22  C   UNL     1       0.036  -0.449   5.946  0.00  0.00    +0.126 A 
BRANCH  22  23
ATOM     23  O   UNL     1       0.021   0.224   4.767  0.00  0.00    -0.506 OA
ATOM     24  H   UNL     1      -0.866   0.406   4.429  0.00  0.00    +0.292 HD
ENDBRANCH  22  23
ENDBRANCH   2  13
TORSDOF 3
