REMARK  Name = ZINC01480263
REMARK  8 active torsions:
REMARK  status: ('A' for Active; 'I' for Inactive)
REMARK    1  A    between atoms: C_1  and  C_2
REMARK    2  A    between atoms: C_2  and  O_3
REMARK    3  A    between atoms: O_3  and  C_4
REMARK    4  A    between atoms: C_4  and  C_6
REMARK    5  A    between atoms: C_7  and  C_29
REMARK    6  A    between atoms: N_13  and  C_18
REMARK    7  A    between atoms: N_16  and  C_17
REMARK    8  A    between atoms: C_19  and  C_21
REMARK                            x       y       z     vdW  Elec       q    Type
REMARK                         _______ _______ _______ _____ _____    ______ ____
ROOT
ATOM      1  C   UNL     1      -2.797  -2.419   0.177  0.00  0.00    +0.065 C 
ATOM      2  C   UNL     1      -2.937  -3.729  -0.087  0.00  0.00    +0.017 C 
ATOM      3  N   UNL     1      -4.176  -4.284  -0.254  0.00  0.00    -0.303 N 
ATOM      4  C   UNL     1      -5.263  -3.487  -0.520  0.00  0.00    +0.116 A 
ATOM      5  C   UNL     1      -5.215  -2.148  -0.271  0.00  0.00    +0.067 A 
ATOM      6  C   UNL     1      -6.344  -1.359  -0.560  0.00  0.00    +0.262 A 
ATOM      7  O   UNL     1      -6.323  -0.159  -0.350  0.00  0.00    -0.267 OA
ATOM      8  N   UNL     1      -7.447  -1.940  -1.072  0.00  0.00    -0.264 N 
ATOM      9  C   UNL     1      -7.476  -3.264  -1.307  0.00  0.00    +0.333 A 
ATOM     10  O   UNL     1      -8.482  -3.768  -1.768  0.00  0.00    -0.246 OA
ATOM     11  N   UNL     1      -6.409  -4.039  -1.040  0.00  0.00    -0.284 N 
ATOM     12  C   UNL     1      -6.468  -5.478  -1.307  0.00  0.00    +0.155 C 
ATOM     13  C   UNL     1      -8.624  -1.122  -1.375  0.00  0.00    +0.157 C 
ATOM     14  C   UNL     1      -3.985  -1.511   0.316  0.00  0.00    +0.097 C 
ATOM     15  C   UNL     1      -1.712  -4.599  -0.201  0.00  0.00    +0.061 C 
ATOM     16  H   UNL     1      -4.288  -5.245  -0.186  0.00  0.00    +0.153 HD
ENDROOT
BRANCH  14  17
ATOM     17  C   UNL     1      -4.219  -1.220   1.776  0.00  0.00    -0.017 A 
ATOM     18  C   UNL     1      -4.475  -2.256   2.654  0.00  0.00    +0.007 A 
ATOM     19  C   UNL     1      -4.690  -1.990   3.993  0.00  0.00    +0.020 A 
ATOM     20  C   UNL     1      -4.648  -0.686   4.455  0.00  0.00    +0.042 A 
ATOM     21  C   UNL     1      -4.391   0.351   3.577  0.00  0.00    +0.040 A 
ATOM     22  C   UNL     1      -4.172   0.083   2.237  0.00  0.00    +0.046 A 
ATOM     23 CL   UNL     1      -3.843   1.383   1.134  0.00  0.00    -0.083 Cl
ATOM     24 CL   UNL     1      -4.918  -0.352   6.137  0.00  0.00    -0.083 Cl
ENDBRANCH  14  17
BRANCH   1  25
ATOM     25  C   UNL     1      -1.498  -1.883   0.335  0.00  0.00    +0.338 C 
ATOM     26  O   UNL     1      -1.013  -1.196  -0.544  0.00  0.00    -0.245 OA
BRANCH  25  27
ATOM     27  O   UNL     1      -0.797  -2.134   1.461  0.00  0.00    -0.462 OA
BRANCH  27  29
ATOM     28  C   UNL     1       1.144  -1.951   2.889  0.00  0.00    +0.048 C 
ATOM     29  C   UNL     1       0.509  -1.560   1.553  0.00  0.00    +0.229 C 
ENDBRANCH  27  29
ENDBRANCH  25  27
ENDBRANCH   1  25
TORSDOF 4
