REMARK  Name = ZINC21076372
REMARK  9 active torsions:
REMARK  status: ('A' for Active; 'I' for Inactive)
REMARK    1  A    between atoms: C_1  and  C_2
REMARK    2  A    between atoms: C_2  and  N_3
REMARK    3  A    between atoms: N_3  and  C_4
REMARK    4  A    between atoms: N_3  and  C_6
REMARK    5  A    between atoms: C_4  and  C_5
REMARK    6  A    between atoms: C_9  and  C_12
REMARK    7  A    between atoms: N_13  and  N_14
REMARK    8  A    between atoms: C_17  and  S_20
REMARK    9  A    between atoms: S_20  and  C_21
REMARK                            x       y       z     vdW  Elec       q    Type
REMARK                         _______ _______ _______ _____ _____    ______ ____
ROOT
ATOM      1  N   UNL     1      -2.368  -2.092  -8.166  0.00  0.00    -0.205 N 
ATOM      2  C   UNL     1      -1.721  -2.543  -9.302  0.00  0.00    +0.232 A 
ATOM      3  N   UNL     1      -0.433  -2.794  -9.412  0.00  0.00    -0.186 NA
ATOM      4  C   UNL     1      -0.161  -3.214 -10.652  0.00  0.00    +0.210 A 
ATOM      5  N   UNL     1      -1.273  -3.237 -11.348  0.00  0.00    -0.144 NA
ATOM      6  N   UNL     1      -2.301  -2.811 -10.492  0.00  0.00    -0.245 N 
ATOM      7  H   UNL     1      -3.325  -1.940  -8.181  0.00  0.00    +0.177 HD
ATOM      8  H   UNL     1      -3.241  -2.723 -10.712  0.00  0.00    +0.192 HD
ENDROOT
BRANCH   1  10
ATOM      9  C   UNL     1      -2.246  -1.431  -5.926  0.00  0.00    +0.138 C 
ATOM     10  N   UNL     1      -1.639  -1.855  -6.993  0.00  0.00    -0.188 NA
BRANCH   9  14
ATOM     11  C   UNL     1      -0.038  -0.713  -2.372  0.00  0.00    +0.030 A 
ATOM     12  C   UNL     1      -1.411  -0.493  -2.392  0.00  0.00    +0.024 A 
ATOM     13  C   UNL     1      -2.131  -0.725  -3.543  0.00  0.00    +0.011 A 
ATOM     14  C   UNL     1      -1.479  -1.181  -4.692  0.00  0.00    -0.005 A 
ATOM     15  C   UNL     1      -0.099  -1.401  -4.668  0.00  0.00    +0.011 A 
ATOM     16  C   UNL     1       0.615  -1.161  -3.515  0.00  0.00    +0.024 A 
BRANCH  11  17
ATOM     17  N   UNL     1       0.688  -0.476  -1.203  0.00  0.00    -0.330 N 
BRANCH  17  19
ATOM     18  C   UNL     1      -0.019   1.526   0.010  0.00  0.00    +0.024 C 
ATOM     19  C   UNL     1       0.002  -0.004   0.002  0.00  0.00    +0.102 C 
ENDBRANCH  17  19
BRANCH  17  20
ATOM     20  C   UNL     1       2.135  -0.701  -1.182  0.00  0.00    +0.102 C 
ATOM     21  C   UNL     1       2.421  -2.145  -0.763  0.00  0.00    +0.024 C 
ENDBRANCH  17  20
ENDBRANCH  11  17
ENDBRANCH   9  14
ENDBRANCH   1  10
BRANCH   4  22
ATOM     22  S   UNL     1       1.433  -3.664 -11.253  0.00  0.00    -0.081 S 
BRANCH  22  23
ATOM     23  C   UNL     1       1.133  -4.135 -12.979  0.00  0.00    +0.054 C 
ATOM     24  C   UNL     1       0.248  -5.382 -13.021  0.00  0.00    +0.014 C 
ATOM     25  C   UNL     1      -0.004  -5.780 -14.477  0.00  0.00    +0.001 C 
ATOM     26  C   UNL     1       1.330  -6.078 -15.163  0.00  0.00    +0.000 C 
ATOM     27  C   UNL     1       2.216  -4.831 -15.121  0.00  0.00    +0.001 C 
ATOM     28  C   UNL     1       2.468  -4.434 -13.665  0.00  0.00    +0.014 C 
ENDBRANCH  22  23
ENDBRANCH   4  22
TORSDOF 7
