REMARK  Name = ZINC09647308
REMARK  6 active torsions:
REMARK  status: ('A' for Active; 'I' for Inactive)
REMARK    1  A    between atoms: C_1  and  C_2
REMARK    2  A    between atoms: C_2  and  C_4
REMARK    3  A    between atoms: C_2  and  N_54
REMARK    4  A    between atoms: C_10  and  C_15
REMARK    5  A    between atoms: N_23  and  S_26
REMARK    6  A    between atoms: S_26  and  C_29
REMARK                            x       y       z     vdW  Elec       q    Type
REMARK                         _______ _______ _______ _____ _____    ______ ____
ROOT
ATOM      1  C   UNL     1      -3.454   3.565  -1.132  0.00  0.00    -0.005 C 
ATOM      2  C   UNL     1      -2.553   3.943   0.045  0.00  0.00    -0.004 C 
ENDROOT
BRANCH   2   3
ATOM      3  C   UNL     1      -1.227   3.241  -0.092  0.00  0.00    +0.097 A 
ATOM      4  N   UNL     1      -1.199   1.892  -0.244  0.00  0.00    -0.312 N 
ATOM      5  H   UNL     1      -2.034   1.398  -0.263  0.00  0.00    +0.170 HD
ATOM      6  C   UNL     1      -0.036   1.226  -0.365  0.00  0.00    +0.260 A 
ATOM      7  O   UNL     1      -0.028   0.014  -0.497  0.00  0.00    -0.267 OA
ATOM      8  C   UNL     1       1.191   1.962  -0.342  0.00  0.00    +0.080 A 
ATOM      9  C   UNL     1       2.561   1.477  -0.458  0.00  0.00    +0.004 A 
ATOM     10  C   UNL     1       3.576   2.373  -0.408  0.00  0.00    +0.056 A 
ATOM     11  S   UNL     1       2.740   3.933  -0.200  0.00  0.00    -0.076 S 
ATOM     12  C   UNL     1       1.064   3.352  -0.185  0.00  0.00    +0.116 A 
ATOM     13  N   UNL     1      -0.124   3.940  -0.066  0.00  0.00    -0.228 NA
BRANCH   9  14
ATOM     14  C   UNL     1       2.838   0.030  -0.627  0.00  0.00    -0.017 A 
ATOM     15  C   UNL     1       2.255  -0.899   0.233  0.00  0.00    +0.008 A 
ATOM     16  C   UNL     1       2.513  -2.245   0.068  0.00  0.00    +0.001 A 
ATOM     17  C   UNL     1       3.356  -2.671  -0.943  0.00  0.00    +0.000 A 
ATOM     18  C   UNL     1       3.941  -1.753  -1.796  0.00  0.00    +0.001 A 
ATOM     19  C   UNL     1       3.687  -0.406  -1.644  0.00  0.00    +0.008 A 
ENDBRANCH   9  14
ENDBRANCH   2   3
BRANCH   2  25
ATOM     20  C   UNL     1      -3.538   6.104   0.517  0.00  0.00    -0.060 C 
ATOM     21  C   UNL     1      -3.217   7.594   0.680  0.00  0.00    +0.091 C 
ATOM     22  N   UNL     1      -2.655   8.092  -0.584  0.00  0.00    -0.180 NA
ATOM     23  C   UNL     1      -1.535   7.352  -1.187  0.00  0.00    +0.091 C 
ATOM     24  C   UNL     1      -1.922   5.872  -1.276  0.00  0.00    -0.060 C 
ATOM     25  N   UNL     1      -2.316   5.402   0.070  0.00  0.00    +0.388 N 
ATOM     26  H   UNL     1      -1.555   5.605   0.729  0.00  0.00    -0.081 HD
BRANCH  22  27
ATOM     27  S   UNL     1      -3.265   9.450  -1.309  0.00  0.00    +0.067 S 
ATOM     28  O   UNL     1      -3.887  10.213  -0.285  0.00  0.00    -0.152 OA
ATOM     29  O   UNL     1      -2.227   9.975  -2.127  0.00  0.00    -0.152 OA
BRANCH  27  30
ATOM     30  C   UNL     1      -4.548   8.927  -2.398  0.00  0.00    +0.143 A 
ATOM     31  C   UNL     1      -5.870   8.769  -2.145  0.00  0.00    +0.036 A 
ATOM     32  C   UNL     1      -6.702   8.347  -3.165  0.00  0.00    +0.010 A 
ATOM     33  C   UNL     1      -6.169   8.094  -4.386  0.00  0.00    +0.047 A 
ATOM     34  S   UNL     1      -4.442   8.460  -4.118  0.00  0.00    -0.077 S 
ENDBRANCH  27  30
ENDBRANCH  22  27
ENDBRANCH   2  25
TORSDOF 5
