REMARK  Name = ZINC04235267
REMARK  3 active torsions:
REMARK  status: ('A' for Active; 'I' for Inactive)
REMARK    1  A    between atoms: C_12  and  C_18
REMARK    2  A    between atoms: C_13  and  N_17
REMARK    3  A    between atoms: N_19  and  N_20
REMARK                            x       y       z     vdW  Elec       q    Type
REMARK                         _______ _______ _______ _____ _____    ______ ____
ROOT
ATOM      1  C   UNL     1      -9.925   5.397   0.096  0.00  0.00    +0.001 A 
ATOM      2  C   UNL     1      -9.921   4.018  -0.018  0.00  0.00    +0.001 A 
ATOM      3  C   UNL     1      -8.727   3.323  -0.074  0.00  0.00    +0.012 A 
ATOM      4  C   UNL     1      -7.519   4.013  -0.017  0.00  0.00    +0.033 A 
ATOM      5  C   UNL     1      -7.523   5.415   0.098  0.00  0.00    +0.033 A 
ATOM      6  C   UNL     1      -8.735   6.099   0.153  0.00  0.00    +0.012 A 
ATOM      7  C   UNL     1      -6.246   6.155   0.159  0.00  0.00    +0.195 C 
ATOM      8  O   UNL     1      -6.249   7.367   0.258  0.00  0.00    -0.287 OA
ATOM      9  C   UNL     1      -4.967   5.423   0.101  0.00  0.00    +0.035 A 
ATOM     10  C   UNL     1      -3.760   6.118   0.160  0.00  0.00    +0.013 A 
ATOM     11  C   UNL     1      -2.560   5.438   0.111  0.00  0.00    +0.012 A 
ATOM     12  C   UNL     1      -2.539   4.048  -0.008  0.00  0.00    +0.016 A 
ATOM     13  C   UNL     1      -3.750   3.328  -0.069  0.00  0.00    +0.045 A 
ATOM     14  C   UNL     1      -4.965   4.017  -0.014  0.00  0.00    +0.054 A 
ATOM     15  C   UNL     1      -6.238   3.279  -0.076  0.00  0.00    +0.196 C 
ATOM     16  O   UNL     1      -6.234   2.067  -0.175  0.00  0.00    -0.287 OA
ENDROOT
BRANCH  13  17
ATOM     17  N   UNL     1      -3.736   1.951  -0.182  0.00  0.00    -0.357 N 
ATOM     18  H   UNL     1      -3.061   1.433   0.285  0.00  0.00    +0.142 HD
ATOM     19  H   UNL     1      -4.401   1.502  -0.728  0.00  0.00    +0.142 HD
ENDBRANCH  13  17
BRANCH  12  20
ATOM     20  C   UNL     1      -1.255   3.335  -0.064  0.00  0.00    +0.140 C 
ATOM     21  N   UNL     1      -1.232   2.053  -0.281  0.00  0.00    -0.186 NA
BRANCH  21  22
ATOM     22  N   UNL     1      -0.009   1.373  -0.334  0.00  0.00    -0.191 N 
ATOM     23  C   UNL     1       0.014   0.044  -0.560  0.00  0.00    +0.317 C 
ATOM     24  O   UNL     1       1.076  -0.545  -0.611  0.00  0.00    -0.251 OA
ATOM     25  N   UNL     1      -1.140  -0.631  -0.728  0.00  0.00    -0.312 N 
ATOM     26  H   UNL     1       0.822   1.859  -0.213  0.00  0.00    +0.179 HD
ATOM     27  H   UNL     1      -1.988  -0.160  -0.687  0.00  0.00    +0.147 HD
ATOM     28  H   UNL     1      -1.124  -1.587  -0.890  0.00  0.00    +0.147 HD
ENDBRANCH  21  22
ENDBRANCH  12  20
TORSDOF 3
