REMARK  Name = ZINC34776163
REMARK  13 active torsions:
REMARK  status: ('A' for Active; 'I' for Inactive)
REMARK    1  A    between atoms: C_1  and  C_2
REMARK    2  A    between atoms: C_2  and  O_3
REMARK    3  A    between atoms: O_3  and  C_4
REMARK    4  A    between atoms: C_4  and  C_6
REMARK    5  A    between atoms: C_7  and  C_37
REMARK    6  A    between atoms: N_11  and  C_28
REMARK    7  A    between atoms: N_14  and  C_17
REMARK    8  A    between atoms: C_17  and  C_18
REMARK    9  A    between atoms: N_20  and  C_21
REMARK   10  A    between atoms: C_24  and  C_27
REMARK   11  A    between atoms: C_28  and  C_29
REMARK   12  A    between atoms: C_32  and  C_36
REMARK   13  A    between atoms: C_34  and  C_35
REMARK                            x       y       z     vdW  Elec       q    Type
REMARK                         _______ _______ _______ _____ _____    ______ ____
ROOT
ATOM      1  C   UNL     1      -2.718  -2.326   0.139  0.00  0.00    +0.102 A 
ATOM      2  C   UNL     1      -3.187  -3.604   0.019  0.00  0.00    -0.015 A 
ATOM      3  C   UNL     1      -4.576  -3.776   0.013  0.00  0.00    +0.074 A 
ATOM      4  C   UNL     1      -5.353  -5.035  -0.103  0.00  0.00    +0.265 A 
ATOM      5  O   UNL     1      -4.781  -6.103  -0.210  0.00  0.00    -0.267 OA
ATOM      6  N   UNL     1      -6.696  -4.979  -0.089  0.00  0.00    -0.256 N 
ATOM      7  C   UNL     1      -7.356  -3.816   0.028  0.00  0.00    +0.334 A 
ATOM      8  O   UNL     1      -8.571  -3.820   0.035  0.00  0.00    -0.246 OA
ATOM      9  N   UNL     1      -6.701  -2.644   0.137  0.00  0.00    -0.278 N 
ATOM     10  C   UNL     1      -5.336  -2.603   0.132  0.00  0.00    +0.098 A 
ATOM     11  S   UNL     1      -4.216  -1.368   0.249  0.00  0.00    -0.063 S 
ATOM     12  C   UNL     1      -2.249  -4.777  -0.101  0.00  0.00    +0.046 C 
ENDROOT
BRANCH   1  13
ATOM     13  C   UNL     1      -1.331  -1.862   0.175  0.00  0.00    +0.346 C 
ATOM     14  O   UNL     1      -0.419  -2.662   0.086  0.00  0.00    -0.244 OA
BRANCH  13  15
ATOM     15  O   UNL     1      -1.064  -0.546   0.306  0.00  0.00    -0.461 OA
BRANCH  15  17
ATOM     16  C   UNL     1       0.416   1.356   0.486  0.00  0.00    +0.048 C 
ATOM     17  C   UNL     1       0.312  -0.163   0.334  0.00  0.00    +0.229 C 
ENDBRANCH  15  17
ENDBRANCH  13  15
ENDBRANCH   1  13
BRANCH   9  18
ATOM     18  C   UNL     1      -7.463  -1.399   0.263  0.00  0.00    +0.223 C 
BRANCH  18  19
ATOM     19  C   UNL     1      -7.715  -1.109   1.720  0.00  0.00    +0.237 C 
ATOM     20  O   UNL     1      -7.299  -1.868   2.570  0.00  0.00    -0.274 OA
ATOM     21  N   UNL     1      -8.402  -0.006   2.079  0.00  0.00    -0.284 N 
ATOM     22  H   UNL     1      -8.801   0.558   1.399  0.00  0.00    +0.155 HD
BRANCH  21  23
ATOM     23  C   UNL     1      -8.538   0.323   3.432  0.00  0.00    +0.033 A 
ATOM     24  C   UNL     1      -9.710   0.912   3.890  0.00  0.00    +0.023 A 
ATOM     25  C   UNL     1      -9.841   1.236   5.226  0.00  0.00    +0.005 A 
ATOM     26  C   UNL     1      -8.808   0.976   6.107  0.00  0.00    -0.050 A 
ATOM     27  C   UNL     1      -7.640   0.390   5.654  0.00  0.00    +0.005 A 
ATOM     28  C   UNL     1      -7.505   0.058   4.320  0.00  0.00    +0.023 A 
ATOM     29  C   UNL     1      -8.955   1.331   7.564  0.00  0.00    +0.044 C 
ENDBRANCH  21  23
ENDBRANCH  18  19
ENDBRANCH   9  18
BRANCH   6  30
ATOM     30  C   UNL     1      -7.461  -6.223  -0.204  0.00  0.00    +0.165 C 
BRANCH  30  31
ATOM     31  C   UNL     1      -7.614  -6.847   1.159  0.00  0.00    -0.025 A 
ATOM     32  C   UNL     1      -6.979  -6.285   2.252  0.00  0.00    +0.006 A 
ATOM     33  C   UNL     1      -7.119  -6.857   3.502  0.00  0.00    +0.004 A 
ATOM     34  C   UNL     1      -7.894  -7.992   3.660  0.00  0.00    -0.050 A 
ATOM     35  C   UNL     1      -8.529  -8.553   2.569  0.00  0.00    +0.007 A 
ATOM     36  C   UNL     1      -8.393  -7.978   1.319  0.00  0.00    -0.045 A 
ATOM     37  C   UNL     1      -9.089  -8.587   0.129  0.00  0.00    +0.044 C 
ATOM     38  C   UNL     1      -8.046  -8.616   5.024  0.00  0.00    +0.044 C 
ENDBRANCH  30  31
ENDBRANCH   6  30
TORSDOF 8
