REMARK  Name = ZINC20446504
REMARK  8 active torsions:
REMARK  status: ('A' for Active; 'I' for Inactive)
REMARK    1  A    between atoms: C_1  and  C_2
REMARK    2  A    between atoms: C_4  and  C_33
REMARK    3  A    between atoms: N_13  and  C_26
REMARK    4  A    between atoms: C_14  and  C_17
REMARK    5  A    between atoms: C_20  and  N_23
REMARK    6  A    between atoms: C_26  and  C_27
REMARK    7  A    between atoms: C_33  and  O_34
REMARK    8  A    between atoms: O_34  and  C_35
REMARK                            x       y       z     vdW  Elec       q    Type
REMARK                         _______ _______ _______ _____ _____    ______ ____
ROOT
ATOM      1  C   UNL     1      -3.471  -4.245   1.913  0.00  0.00    +0.065 C 
ATOM      2  C   UNL     1      -2.598  -3.127   1.403  0.00  0.00    +0.040 A 
ATOM      3  C   UNL     1      -2.860  -1.833   1.817  0.00  0.00    +0.029 A 
ATOM      4  C   UNL     1      -2.103  -0.758   1.391  0.00  0.00    -0.009 A 
ATOM      5  C   UNL     1      -1.038  -1.063   0.502  0.00  0.00    +0.035 A 
ATOM      6  C   UNL     1      -0.107  -0.121  -0.085  0.00  0.00    +0.058 A 
ATOM      7  C   UNL     1       0.863  -0.662  -0.925  0.00  0.00    +0.098 A 
ATOM      8  S   UNL     1       0.537  -2.398  -0.948  0.00  0.00    -0.062 S 
ATOM      9  C   UNL     1      -0.855  -2.427   0.142  0.00  0.00    +0.111 A 
ATOM     10  N   UNL     1      -1.604  -3.417   0.574  0.00  0.00    -0.245 NA
ATOM     11  C   UNL     1       1.860   0.096  -1.566  0.00  0.00    +0.257 C 
ATOM     12  O   UNL     1       2.575  -0.368  -2.436  0.00  0.00    -0.269 OA
ATOM     13  N   UNL     1       1.967   1.385  -1.143  0.00  0.00    -0.270 N 
ATOM     14  C   UNL     1       1.239   1.823   0.045  0.00  0.00    +0.193 C 
ATOM     15  N   UNL     1      -0.113   1.268   0.124  0.00  0.00    -0.321 N 
ATOM     16  H   UNL     1      -0.969   1.930   0.326  0.00  0.00    +0.148 HD
ENDROOT
BRANCH  14  17
ATOM     17  C   UNL     1       1.145   3.327   0.029  0.00  0.00    -0.009 A 
ATOM     18  C   UNL     1       0.048   3.946  -0.540  0.00  0.00    +0.009 A 
ATOM     19  C   UNL     1      -0.040   5.325  -0.550  0.00  0.00    +0.033 A 
ATOM     20  C   UNL     1       0.975   6.087  -0.001  0.00  0.00    +0.126 A 
ATOM     21  C   UNL     1       2.075   5.468   0.563  0.00  0.00    +0.033 A 
ATOM     22  C   UNL     1       2.160   4.088   0.578  0.00  0.00    +0.009 A 
BRANCH  20  23
ATOM     23  N   UNL     1       0.884   7.564  -0.017  0.00  0.00    +0.056 N 
ATOM     24  O   UNL     1       1.778   8.234   0.467  0.00  0.00    -0.126 OA
ATOM     25  O   UNL     1      -0.085   8.109  -0.514  0.00  0.00    -0.126 OA
ENDBRANCH  20  23
ENDBRANCH  14  17
BRANCH  13  26
ATOM     26  C   UNL     1       2.812   2.330  -1.877  0.00  0.00    +0.145 C 
BRANCH  26  27
ATOM     27  C   UNL     1       2.045   2.881  -3.052  0.00  0.00    -0.030 A 
ATOM     28  C   UNL     1       1.966   2.158  -4.227  0.00  0.00    +0.005 A 
ATOM     29  C   UNL     1       1.259   2.661  -5.303  0.00  0.00    +0.000 A 
ATOM     30  C   UNL     1       0.639   3.893  -5.207  0.00  0.00    +0.000 A 
ATOM     31  C   UNL     1       0.722   4.619  -4.033  0.00  0.00    +0.000 A 
ATOM     32  C   UNL     1       1.425   4.113  -2.956  0.00  0.00    +0.005 A 
ENDBRANCH  26  27
ENDBRANCH  13  26
BRANCH   4  33
ATOM     33  C   UNL     1      -2.389   0.651   1.841  0.00  0.00    +0.195 C 
BRANCH  33  34
ATOM     34  O   UNL     1      -3.510   0.649   2.727  0.00  0.00    -0.378 OA
ATOM     35  C   UNL     1      -3.867   1.944   3.215  0.00  0.00    +0.194 C 
ENDBRANCH  33  34
ENDBRANCH   4  33
TORSDOF 6
