REMARK  Name = ZINC03318875
REMARK  7 active torsions:
REMARK  status: ('A' for Active; 'I' for Inactive)
REMARK    1  A    between atoms: C_4  and  N_7
REMARK    2  A    between atoms: C_9  and  C_22
REMARK    3  A    between atoms: C_10  and  C_12
REMARK    4  A    between atoms: N_23  and  N_24
REMARK    5  A    between atoms: N_24  and  C_25
REMARK    6  A    between atoms: C_25  and  N_27
REMARK    7  A    between atoms: N_27  and  C_28
REMARK                            x       y       z     vdW  Elec       q    Type
REMARK                         _______ _______ _______ _____ _____    ______ ____
ROOT
ATOM      1  N   UNL     1      -5.171  -2.456  -0.171  0.00  0.00    -0.239 N 
ATOM      2  C   UNL     1      -5.750  -1.555   0.650  0.00  0.00    +0.124 A 
ATOM      3  C   UNL     1      -4.846  -0.556   0.886  0.00  0.00    +0.040 A 
ATOM      4  C   UNL     1      -3.638  -0.897   0.131  0.00  0.00    +0.102 A 
ATOM      5  N   UNL     1      -3.874  -2.038  -0.481  0.00  0.00    -0.166 NA
ENDROOT
BRANCH   4   6
ATOM      6  C   UNL     1      -2.384  -0.109   0.072  0.00  0.00    +0.006 A 
ATOM      7  C   UNL     1      -2.436   1.280  -0.039  0.00  0.00    +0.014 A 
ATOM      8  C   UNL     1      -1.268   2.011  -0.097  0.00  0.00    +0.050 A 
ATOM      9  C   UNL     1      -0.038   1.370  -0.039  0.00  0.00    +0.162 A 
ATOM     10  C   UNL     1       0.020  -0.016   0.074  0.00  0.00    +0.163 A 
ATOM     11  C   UNL     1      -1.150  -0.754   0.129  0.00  0.00    +0.059 A 
ATOM     12  O   UNL     1       1.218  -0.660   0.133  0.00  0.00    -0.485 OA
ATOM     13  C   UNL     1       2.367   0.076  -0.301  0.00  0.00    +0.270 C 
ATOM     14  C   UNL     1       2.309   1.472   0.332  0.00  0.00    +0.270 C 
ATOM     15  O   UNL     1       1.103   2.111  -0.100  0.00  0.00    -0.485 OA
ENDBRANCH   4   6
BRANCH   1  19
ATOM     16  C   UNL     1      -6.972  -5.947  -1.564  0.00  0.00    +0.000 A 
ATOM     17  C   UNL     1      -5.678  -5.639  -1.943  0.00  0.00    +0.002 A 
ATOM     18  C   UNL     1      -5.079  -4.483  -1.483  0.00  0.00    +0.028 A 
ATOM     19  C   UNL     1      -5.777  -3.629  -0.639  0.00  0.00    +0.065 A 
ATOM     20  C   UNL     1      -7.074  -3.944  -0.256  0.00  0.00    +0.028 A 
ATOM     21  C   UNL     1      -7.670  -5.098  -0.724  0.00  0.00    +0.002 A 
ENDBRANCH   1  19
BRANCH   3  22
ATOM     22  C   UNL     1      -5.050   0.633   1.733  0.00  0.00    +0.142 C 
ATOM     23  N   UNL     1      -6.145   0.763   2.417  0.00  0.00    -0.188 NA
BRANCH  23  24
ATOM     24  N   UNL     1      -6.384   1.941   3.138  0.00  0.00    -0.218 N 
ATOM     25  H   UNL     1      -5.702   2.628   3.185  0.00  0.00    +0.176 HD
BRANCH  24  26
ATOM     26  C   UNL     1      -7.564   2.118   3.765  0.00  0.00    +0.150 C 
ATOM     27  S   UNL     1      -7.909   3.608   4.535  0.00  0.00    -0.017 S 
BRANCH  26  28
ATOM     28  N   UNL     1      -8.472   1.122   3.788  0.00  0.00    -0.322 N 
ATOM     29  H   UNL     1      -8.253   0.257   3.407  0.00  0.00    +0.148 HD
BRANCH  28  30
ATOM     30  C   UNL     1      -9.790   1.346   4.386  0.00  0.00    +0.072 C 
ATOM     31  C   UNL     1      -9.704   1.140   5.900  0.00  0.00    +0.022 C 
ATOM     32  C   UNL     1     -11.081   1.374   6.525  0.00  0.00    +0.002 C 
ATOM     33  C   UNL     1     -12.086   0.384   5.932  0.00  0.00    +0.000 C 
ATOM     34  C   UNL     1     -12.171   0.590   4.418  0.00  0.00    +0.002 C 
ATOM     35  C   UNL     1     -10.795   0.356   3.793  0.00  0.00    +0.022 C 
ENDBRANCH  28  30
ENDBRANCH  26  28
ENDBRANCH  24  26
ENDBRANCH  23  24
ENDBRANCH   3  22
TORSDOF 7
