REMARK  Name = ZINC02803447
REMARK  7 active torsions:
REMARK  status: ('A' for Active; 'I' for Inactive)
REMARK    1  A    between atoms: C_1  and  C_2
REMARK    2  A    between atoms: C_2  and  C_3
REMARK    3  A    between atoms: C_2  and  C_4
REMARK    4  A    between atoms: C_2  and  C_5
REMARK    5  A    between atoms: C_11  and  C_14
REMARK    6  A    between atoms: N_16  and  C_17
REMARK    7  A    between atoms: C_17  and  C_18
REMARK                            x       y       z     vdW  Elec       q    Type
REMARK                         _______ _______ _______ _____ _____    ______ ____
ROOT
ATOM      1  C   UNL     1       0.319  -8.659   1.646  0.00  0.00    -0.001 C 
ATOM      2  C   UNL     1      -1.116  -9.018   1.251  0.00  0.00    +0.012 C 
ATOM      3  C   UNL     1      -1.399  -8.528  -0.175  0.00  0.00    +0.078 C 
ATOM      4  C   UNL     1      -0.982  -7.084  -0.271  0.00  0.00    +0.141 A 
ATOM      5  C   UNL     1      -0.169  -6.475   0.624  0.00  0.00    +0.027 A 
ATOM      6  C   UNL     1      -0.051  -5.151   0.153  0.00  0.00    +0.171 A 
ATOM      7  N   UNL     1      -0.784  -5.096  -0.938  0.00  0.00    -0.073 NA
ATOM      8  O   UNL     1      -1.300  -6.167  -1.183  0.00  0.00    -0.359 OA
ATOM      9  C   UNL     1       0.436  -7.138   1.826  0.00  0.00    +0.045 C 
ENDROOT
BRANCH   1  11
ATOM     10  C   UNL     1      -0.285  -8.898   4.058  0.00  0.00    +0.011 C 
ATOM     11  C   UNL     1       0.676  -9.357   2.959  0.00  0.00    -0.035 C 
ATOM     12  C   UNL     1       0.560 -10.872   2.780  0.00  0.00    +0.011 C 
ATOM     13  C   UNL     1       2.110  -8.999   3.354  0.00  0.00    +0.011 C 
ENDBRANCH   1  11
BRANCH   6  14
ATOM     14  C   UNL     1       0.731  -4.049   0.764  0.00  0.00    +0.266 C 
ATOM     15  O   UNL     1       1.362  -4.245   1.783  0.00  0.00    -0.268 OA
ATOM     16  N   UNL     1       0.742  -2.831   0.188  0.00  0.00    -0.308 N 
ATOM     17  H   UNL     1       0.238  -2.675  -0.626  0.00  0.00    +0.149 HD
BRANCH  16  18
ATOM     18  C   UNL     1       1.514  -1.742   0.791  0.00  0.00    +0.136 C 
BRANCH  18  19
ATOM     19  C   UNL     1       1.358  -0.476  -0.054  0.00  0.00    +0.135 C 
ATOM     20  C   UNL     1       2.211   0.674   0.537  0.00  0.00    +0.035 C 
ATOM     21  C   UNL     1       1.448   1.915  -0.002  0.00  0.00    +0.031 C 
ATOM     22  C   UNL     1      -0.017   1.428   0.010  0.00  0.00    +0.160 C 
ATOM     23  O   UNL     1       0.002  -0.004   0.002  0.00  0.00    -0.375 OA
ENDBRANCH  18  19
ENDBRANCH  16  18
ENDBRANCH   6  14
TORSDOF 4
