REMARK  Name = ZINC07539125
REMARK  9 active torsions:
REMARK  status: ('A' for Active; 'I' for Inactive)
REMARK    1  A    between atoms: C_1  and  O_2
REMARK    2  A    between atoms: O_2  and  C_3
REMARK    3  A    between atoms: C_3  and  C_5
REMARK    4  A    between atoms: C_8  and  C_11
REMARK    5  A    between atoms: C_14  and  C_16
REMARK    6  A    between atoms: C_16  and  N_43
REMARK    7  A    between atoms: C_17  and  C_18
REMARK    8  A    between atoms: C_17  and  N_43
REMARK    9  A    between atoms: C_21  and  C_24
REMARK                            x       y       z     vdW  Elec       q    Type
REMARK                         _______ _______ _______ _____ _____    ______ ____
ROOT
ATOM      1  C   UNL     1       0.417   6.616   4.867  0.00  0.00    +0.135 A 
ATOM      2  C   UNL     1       1.777   6.654   4.896  0.00  0.00    +0.050 A 
ATOM      3  C   UNL     1       2.222   6.258   3.620  0.00  0.00    +0.043 A 
ATOM      4  C   UNL     1       1.124   6.000   2.882  0.00  0.00    +0.089 A 
ATOM      5  O   UNL     1       0.036   6.221   3.636  0.00  0.00    -0.462 OA
ENDROOT
BRANCH   1   9
ATOM      6  C   UNL     1      -2.171   7.585   8.082  0.00  0.00    +0.059 A 
ATOM      7  C   UNL     1      -2.703   7.181   6.853  0.00  0.00    +0.015 A 
ATOM      8  C   UNL     1      -1.869   6.869   5.817  0.00  0.00    +0.012 A 
ATOM      9  C   UNL     1      -0.484   6.953   5.986  0.00  0.00    +0.017 A 
ATOM     10  C   UNL     1       0.049   7.350   7.216  0.00  0.00    +0.012 A 
ATOM     11  C   UNL     1      -0.785   7.668   8.250  0.00  0.00    +0.015 A 
BRANCH   6  12
ATOM     12  C   UNL     1      -3.071   7.921   9.200  0.00  0.00    +0.339 C 
ATOM     13  O   UNL     1      -4.275   7.848   9.055  0.00  0.00    -0.245 OA
BRANCH  12  15
ATOM     14  C   UNL     1      -3.503   8.625  11.441  0.00  0.00    +0.280 C 
ATOM     15  O   UNL     1      -2.558   8.309  10.384  0.00  0.00    -0.464 OA
ENDBRANCH  12  15
ENDBRANCH   6  12
ENDBRANCH   1   9
BRANCH   4  16
ATOM     16  C   UNL     1       1.119   5.543   1.446  0.00  0.00    -0.006 C 
BRANCH  16  17
ATOM     17  N   UNL     1       1.146   4.069   1.407  0.00  0.00    +0.386 N 
ATOM     18  H   UNL     1       0.319   3.702   1.892  0.00  0.00    -0.085 HD
ATOM     19  H   UNL     1       1.995   3.733   1.876  0.00  0.00    -0.085 HD
BRANCH  17  20
ATOM     20  C   UNL     1       1.142   3.593   0.011  0.00  0.00    -0.046 C 
BRANCH  20  21
ATOM     21  C   UNL     1       1.170   2.086   0.002  0.00  0.00    -0.064 A 
ATOM     22  C   UNL     1      -0.017   1.375   0.010  0.00  0.00    +0.002 A 
ATOM     23  C   UNL     1       0.002  -0.004   0.002  0.00  0.00    +0.015 A 
ATOM     24  C   UNL     1       1.222  -0.682  -0.013  0.00  0.00    +0.063 A 
ATOM     25  C   UNL     1       2.416   0.042  -0.021  0.00  0.00    +0.015 A 
ATOM     26  C   UNL     1       2.383   1.421  -0.013  0.00  0.00    +0.002 A 
BRANCH  24  27
ATOM     27  C   UNL     1       1.250  -2.159  -0.021  0.00  0.00    +0.387 C 
ATOM     28  O   UNL     1       0.210  -2.787  -0.014  0.00  0.00    -0.241 OA
ATOM     29  O   UNL     1       2.429  -2.811  -0.036  0.00  0.00    -0.241 OA
ENDBRANCH  24  27
ENDBRANCH  20  21
ENDBRANCH  17  20
ENDBRANCH  16  17
ENDBRANCH   4  16
TORSDOF 8
