REMARK  Name = ZINC42813512
REMARK  3 active torsions:
REMARK  status: ('A' for Active; 'I' for Inactive)
REMARK    1  A    between atoms: C_1  and  C_2
REMARK    2  A    between atoms: C_9  and  C_11
REMARK    3  A    between atoms: C_11  and  C_12
REMARK                            x       y       z     vdW  Elec       q    Type
REMARK                         _______ _______ _______ _____ _____    ______ ____
ROOT
ATOM      1  C   UNL     1       1.625  -4.241   1.440  0.00  0.00    +0.127 C 
ENDROOT
BRANCH   1   9
ATOM      2  C   UNL     1      -0.019   1.526   0.010  0.00  0.00    +0.009 C 
ATOM      3  C   UNL     1       0.002  -0.004   0.002  0.00  0.00    +0.003 C 
ATOM      4  C   UNL     1      -1.433  -0.534   0.015  0.00  0.00    +0.006 C 
ATOM      5  C   UNL     1      -1.414  -2.064  -0.027  0.00  0.00    +0.019 C 
ATOM      6  C   UNL     1      -0.692  -2.596   1.215  0.00  0.00    +0.108 C 
ATOM      7  N   UNL     1       0.639  -1.977   1.288  0.00  0.00    -0.301 N 
ATOM      8  C   UNL     1       0.742  -0.512   1.244  0.00  0.00    +0.111 C 
ATOM      9  C   UNL     1       1.746  -2.740   1.395  0.00  0.00    +0.218 C 
ATOM     10  O   UNL     1       2.838  -2.217   1.455  0.00  0.00    -0.276 OA
ENDBRANCH   1   9
BRANCH   1  11
ATOM     11  C   UNL     1       3.018  -4.861   1.562  0.00  0.00    +0.169 C 
ATOM     12  C   UNL     1       2.929  -6.374   1.573  0.00  0.00    +0.241 C 
ATOM     13  O   UNL     1       2.497  -7.089   0.694  0.00  0.00    -0.273 OA
ATOM     14  N   UNL     1       3.431  -6.760   2.763  0.00  0.00    -0.239 N 
ATOM     15  C   UNL     1       3.820  -5.712   3.497  0.00  0.00    +0.307 C 
ATOM     16  O   UNL     1       4.305  -5.808   4.608  0.00  0.00    -0.252 OA
ATOM     17  N   UNL     1       3.617  -4.537   2.868  0.00  0.00    -0.287 N 
ATOM     18  H   UNL     1       3.500  -7.684   3.051  0.00  0.00    +0.159 HD
ATOM     19  H   UNL     1       3.824  -3.652   3.207  0.00  0.00    +0.151 HD
ENDBRANCH   1  11
TORSDOF 2
