REMARK  Name = ZINC09129835
REMARK  5 active torsions:
REMARK  status: ('A' for Active; 'I' for Inactive)
REMARK    1  A    between atoms: C_1  and  O_2
REMARK    2  A    between atoms: O_2  and  C_3
REMARK    3  A    between atoms: C_7  and  N_9
REMARK    4  A    between atoms: C_14  and  C_31
REMARK    5  A    between atoms: C_31  and  C_32
REMARK                            x       y       z     vdW  Elec       q    Type
REMARK                         _______ _______ _______ _____ _____    ______ ____
ROOT
ATOM      1  N   UNL     1       0.210  -4.461  -2.301  0.00  0.00    -0.210 N 
ATOM      2  C   UNL     1       1.166  -5.164  -1.682  0.00  0.00    +0.228 C 
ATOM      3  O   UNL     1       1.319  -6.363  -1.767  0.00  0.00    -0.275 OA
ATOM      4  C   UNL     1       2.025  -4.229  -0.861  0.00  0.00    +0.074 C 
ATOM      5  C   UNL     1       1.779  -4.502   0.639  0.00  0.00    -0.053 C 
ATOM      6  C   UNL     1       0.845  -2.397   0.243  0.00  0.00    +0.050 C 
ATOM      7  C   UNL     1       1.389  -2.836  -1.121  0.00  0.00    +0.088 C 
ATOM      8  C   UNL     1       0.241  -3.146  -2.056  0.00  0.00    +0.229 C 
ATOM      9  O   UNL     1      -0.530  -2.330  -2.512  0.00  0.00    -0.275 OA
ATOM     10  C   UNL     1       0.987  -0.915   0.444  0.00  0.00    -0.025 A 
ATOM     11  C   UNL     1       2.066  -0.059   0.449  0.00  0.00    +0.043 A 
ATOM     12  C   UNL     1       1.874   1.296   0.666  0.00  0.00    +0.124 A 
ATOM     13  C   UNL     1       0.595   1.785   0.877  0.00  0.00    +0.040 A 
ATOM     14  C   UNL     1      -0.486   0.929   0.872  0.00  0.00    +0.026 A 
ATOM     15  C   UNL     1      -0.302  -0.434   0.654  0.00  0.00    +0.036 A 
ATOM     16  N   UNL     1      -1.223  -1.483   0.602  0.00  0.00    -0.286 N 
ATOM     17  C   UNL     1      -0.630  -2.668   0.361  0.00  0.00    +0.211 C 
ATOM     18  O   UNL     1      -1.179  -3.745   0.260  0.00  0.00    -0.277 OA
ATOM     19  F   UNL     1       2.931   2.138   0.672  0.00  0.00    -0.205 F 
ATOM     20  H   UNL     1      -2.179  -1.371   0.725  0.00  0.00    +0.155 HD
ATOM     21  N   UNL     1       1.600  -3.167   1.216  0.00  0.00    +0.394 N 
ATOM     22  H   UNL     1       2.513  -2.729   1.384  0.00  0.00    -0.083 HD
ATOM     23  H   UNL     1       1.082  -3.229   2.100  0.00  0.00    -0.083 HD
ENDROOT
BRANCH   1  28
ATOM     24  C   UNL     1      -2.643  -6.494  -3.434  0.00  0.00    +0.122 A 
ATOM     25  C   UNL     1      -2.633  -6.222  -4.795  0.00  0.00    +0.046 A 
ATOM     26  C   UNL     1      -1.683  -5.369  -5.323  0.00  0.00    +0.005 A 
ATOM     27  C   UNL     1      -0.744  -4.780  -4.498  0.00  0.00    +0.024 A 
ATOM     28  C   UNL     1      -0.746  -5.053  -3.137  0.00  0.00    +0.047 A 
ATOM     29  C   UNL     1      -1.699  -5.910  -2.604  0.00  0.00    +0.069 A 
BRANCH  24  31
ATOM     30  C   UNL     1      -4.520  -7.899  -3.829  0.00  0.00    +0.277 C 
ATOM     31  O   UNL     1      -3.578  -7.333  -2.916  0.00  0.00    -0.495 OA
ENDBRANCH  24  31
ENDBRANCH   1  28
BRANCH   5  32
ATOM     32  C   UNL     1       2.981  -5.220   1.254  0.00  0.00    +0.022 C 
BRANCH  32  33
ATOM     33  C   UNL     1       2.671  -5.585   2.683  0.00  0.00    -0.024 A 
ATOM     34  C   UNL     1       2.988  -4.873   3.776  0.00  0.00    +0.087 A 
ATOM     35  N   UNL     1       2.543  -5.518   4.898  0.00  0.00    -0.360 N 
ATOM     36  H   UNL     1       2.655  -5.196   5.807  0.00  0.00    +0.165 HD
ATOM     37  C   UNL     1       1.913  -6.690   4.546  0.00  0.00    +0.047 A 
ATOM     38  C   UNL     1       1.960  -6.781   3.143  0.00  0.00    +0.003 A 
ATOM     39  C   UNL     1       1.398  -7.884   2.497  0.00  0.00    +0.010 A 
ATOM     40  C   UNL     1       0.793  -8.864   3.232  0.00  0.00    +0.001 A 
ATOM     41  C   UNL     1       0.739  -8.777   4.616  0.00  0.00    +0.002 A 
ATOM     42  C   UNL     1       1.293  -7.700   5.274  0.00  0.00    +0.026 A 
ENDBRANCH  32  33
ENDBRANCH   5  32
TORSDOF 4
