REMARK  Name = ZINC13121308
REMARK  10 active torsions:
REMARK  status: ('A' for Active; 'I' for Inactive)
REMARK    1  A    between atoms: C_1  and  C_2
REMARK    2  A    between atoms: C_2  and  O_3
REMARK    3  A    between atoms: O_3  and  C_4
REMARK    4  A    between atoms: C_4  and  C_6
REMARK    5  A    between atoms: C_7  and  C_35
REMARK    6  A    between atoms: C_8  and  C_29
REMARK    7  A    between atoms: C_10  and  N_11
REMARK    8  A    between atoms: C_12  and  C_14
REMARK    9  A    between atoms: C_14  and  N_65
REMARK   10  A    between atoms: C_17  and  C_20
REMARK                            x       y       z     vdW  Elec       q    Type
REMARK                         _______ _______ _______ _____ _____    ______ ____
ROOT
ATOM      1  N   UNL     1       4.791   8.885  -1.166  0.00  0.00    -0.281 N 
ATOM      2  C   UNL     1       4.386   7.619  -0.944  0.00  0.00    +0.201 C 
ATOM      3  O   UNL     1       4.705   6.736  -1.712  0.00  0.00    -0.278 OA
ATOM      4  H   UNL     1       4.537   9.591  -0.551  0.00  0.00    +0.155 HD
ENDROOT
BRANCH   1   9
ATOM      5  C   UNL     1       6.080  10.412  -2.674  0.00  0.00    +0.091 A 
ATOM      6  C   UNL     1       6.851  10.446  -3.837  0.00  0.00    -0.020 A 
ATOM      7  C   UNL     1       7.043   9.275  -4.503  0.00  0.00    +0.025 A 
ATOM      8  S   UNL     1       6.150   8.102  -3.501  0.00  0.00    -0.072 S 
ATOM      9  C   UNL     1       5.572   9.178  -2.272  0.00  0.00    +0.087 A 
ATOM     10  C   UNL     1       7.444  11.736  -4.341  0.00  0.00    +0.046 C 
BRANCH   7  11
ATOM     11  C   UNL     1       7.803   9.036  -5.748  0.00  0.00    -0.011 A 
ATOM     12  C   UNL     1       7.615   9.867  -6.854  0.00  0.00    +0.009 A 
ATOM     13  C   UNL     1       8.331   9.641  -8.011  0.00  0.00    +0.001 A 
ATOM     14  C   UNL     1       9.226   8.588  -8.081  0.00  0.00    +0.000 A 
ATOM     15  C   UNL     1       9.412   7.758  -6.989  0.00  0.00    +0.001 A 
ATOM     16  C   UNL     1       8.707   7.976  -5.824  0.00  0.00    +0.009 A 
ENDBRANCH   7  11
BRANCH   5  17
ATOM     17  C   UNL     1       5.819  11.629  -1.901  0.00  0.00    +0.342 C 
ATOM     18  O   UNL     1       6.580  11.960  -1.012  0.00  0.00    -0.245 OA
BRANCH  17  19
ATOM     19  O   UNL     1       4.733  12.381  -2.174  0.00  0.00    -0.461 OA
BRANCH  19  21
ATOM     20  C   UNL     1       3.264  14.291  -1.821  0.00  0.00    +0.048 C 
ATOM     21  C   UNL     1       4.537  13.573  -1.368  0.00  0.00    +0.229 C 
ENDBRANCH  19  21
ENDBRANCH  17  19
ENDBRANCH   5  17
ENDBRANCH   1   9
BRANCH   2  22
ATOM     22  C   UNL     1       3.537   7.300   0.260  0.00  0.00    +0.019 C 
BRANCH  22  28
ATOM     23  C   UNL     1       2.610   5.472   1.548  0.00  0.00    -0.078 C 
ATOM     24  C   UNL     1       2.439   3.951   1.588  0.00  0.00    -0.009 C 
ATOM     25  C   UNL     1       1.561   3.511   0.413  0.00  0.00    +0.041 C 
ATOM     26  C   UNL     1       2.204   3.973  -0.897  0.00  0.00    -0.009 C 
ATOM     27  C   UNL     1       2.383   5.493  -0.864  0.00  0.00    -0.078 C 
ATOM     28  N   UNL     1       3.257   5.849   0.274  0.00  0.00    +0.385 N 
ATOM     29  H   UNL     1       4.143   5.338   0.186  0.00  0.00    -0.081 HD
BRANCH  25  30
ATOM     30  C   UNL     1       1.438   2.009   0.412  0.00  0.00    +0.082 A 
ATOM     31  N   UNL     1       0.358   1.286   0.508  0.00  0.00    -0.244 NA
ATOM     32  C   UNL     1       0.385  -0.063   0.493  0.00  0.00    +0.078 A 
ATOM     33  C   UNL     1      -0.689  -0.976   0.587  0.00  0.00    +0.029 A 
ATOM     34  C   UNL     1      -0.465  -2.317   0.553  0.00  0.00    +0.002 A 
ATOM     35  C   UNL     1       0.815  -2.838   0.427  0.00  0.00    +0.001 A 
ATOM     36  C   UNL     1       1.893  -1.978   0.332  0.00  0.00    +0.017 A 
ATOM     37  C   UNL     1       1.677  -0.622   0.365  0.00  0.00    +0.039 A 
ATOM     38  S   UNL     1       2.701   0.825   0.281  0.00  0.00    -0.072 S 
ENDBRANCH  25  30
ENDBRANCH  22  28
ENDBRANCH   2  22
TORSDOF 8
