REMARK  Name = ZINC00094309
REMARK  2 active torsions:
REMARK  status: ('A' for Active; 'I' for Inactive)
REMARK    1  A    between atoms: C_4  and  O_21
REMARK    2  A    between atoms: C_5  and  C_7
REMARK                            x       y       z     vdW  Elec       q    Type
REMARK                         _______ _______ _______ _____ _____    ______ ____
ROOT
ATOM      1  C   UNL     1       1.248  -2.161  -0.022  0.00  0.00    +0.128 C 
ATOM      2  N   UNL     1       2.288  -2.945  -0.031  0.00  0.00    -0.178 NA
ATOM      3  N   UNL     1       2.191  -4.325  -0.039  0.00  0.00    -0.239 N 
ATOM      4  C   UNL     1       0.823  -4.844  -0.036  0.00  0.00    +0.203 C 
ATOM      5  S   UNL     1      -0.140  -3.289  -0.015  0.00  0.00    -0.062 S 
ATOM      6  C   UNL     1       0.498  -5.681  -1.232  0.00  0.00    +0.018 A 
ATOM      7  C   UNL     1       0.564  -5.474  -2.592  0.00  0.00    +0.009 A 
ATOM      8  C   UNL     1       0.180  -6.475  -3.466  0.00  0.00    +0.000 A 
ATOM      9  C   UNL     1      -0.269  -7.686  -2.971  0.00  0.00    +0.002 A 
ATOM     10  C   UNL     1      -0.338  -7.899  -1.610  0.00  0.00    +0.024 A 
ATOM     11  C   UNL     1       0.045  -6.896  -0.722  0.00  0.00    +0.040 A 
ATOM     12  N   UNL     1       0.063  -6.872   0.675  0.00  0.00    -0.282 N 
ATOM     13  C   UNL     1       0.509  -5.692   1.157  0.00  0.00    +0.257 C 
ATOM     14  O   UNL     1       0.631  -5.382   2.323  0.00  0.00    -0.272 OA
ATOM     15  H   UNL     1       2.970  -4.904  -0.046  0.00  0.00    +0.170 HD
ATOM     16  H   UNL     1      -0.212  -7.615   1.233  0.00  0.00    +0.155 HD
ENDROOT
BRANCH   1  21
ATOM     17  C   UNL     1      -0.017   1.375   0.010  0.00  0.00    +0.001 A 
ATOM     18  C   UNL     1       1.169   2.089   0.002  0.00  0.00    +0.004 A 
ATOM     19  C   UNL     1       2.383   1.427  -0.013  0.00  0.00    +0.046 A 
ATOM     20  C   UNL     1       2.418   0.042  -0.021  0.00  0.00    +0.127 A 
ATOM     21  C   UNL     1       1.221  -0.683  -0.013  0.00  0.00    +0.050 A 
ATOM     22  C   UNL     1       0.002  -0.004   0.002  0.00  0.00    +0.014 A 
BRANCH  20  23
ATOM     23  O   UNL     1       3.610  -0.609  -0.036  0.00  0.00    -0.506 OA
ATOM     24  H   UNL     1       3.964  -0.802   0.843  0.00  0.00    +0.292 HD
ENDBRANCH  20  23
ENDBRANCH   1  21
TORSDOF 2
