REMARK  Name = ZINC63707962
REMARK  8 active torsions:
REMARK  status: ('A' for Active; 'I' for Inactive)
REMARK    1  A    between atoms: C_1  and  C_2
REMARK    2  A    between atoms: C_5  and  C_8
REMARK    3  A    between atoms: C_8  and  N_9
REMARK    4  A    between atoms: C_10  and  C_12
REMARK    5  A    between atoms: C_12  and  S_13
REMARK    6  A    between atoms: S_13  and  C_14
REMARK    7  A    between atoms: C_24  and  C_29
REMARK    8  A    between atoms: C_29  and  C_30
REMARK                            x       y       z     vdW  Elec       q    Type
REMARK                         _______ _______ _______ _____ _____    ______ ____
ROOT
ATOM      1  C   UNL     1       4.876  -8.769  -0.073  0.00  0.00    +0.169 C 
ATOM      2  N   UNL     1       5.744  -7.795  -0.067  0.00  0.00    -0.225 NA
ATOM      3  C   UNL     1       7.082  -8.019  -0.075  0.00  0.00    +0.077 A 
ATOM      4  C   UNL     1       7.996  -6.962  -0.068  0.00  0.00    +0.028 A 
ATOM      5  C   UNL     1       9.347  -7.227  -0.076  0.00  0.00    +0.002 A 
ATOM      6  C   UNL     1       9.815  -8.534  -0.092  0.00  0.00    +0.001 A 
ATOM      7  C   UNL     1       8.931  -9.593  -0.099  0.00  0.00    +0.013 A 
ATOM      8  C   UNL     1       7.562  -9.345  -0.090  0.00  0.00    +0.041 A 
ATOM      9  C   UNL     1       6.577 -10.448  -0.097  0.00  0.00    +0.139 C 
ATOM     10  N   UNL     1       6.755 -11.739  -0.111  0.00  0.00    -0.255 NA
ATOM     11  C   UNL     1       5.431 -12.376  -0.111  0.00  0.00    +0.198 C 
ATOM     12  C   UNL     1       4.465 -11.211  -0.096  0.00  0.00    +0.252 C 
ATOM     13  O   UNL     1       3.253 -11.262  -0.091  0.00  0.00    -0.272 OA
ATOM     14  N   UNL     1       5.237 -10.101  -0.082  0.00  0.00    -0.200 N 
ENDROOT
BRANCH   1  15
ATOM     15  S   UNL     1       3.161  -8.365  -0.061  0.00  0.00    -0.080 S 
BRANCH  15  16
ATOM     16  C   UNL     1       3.137  -6.551  -0.051  0.00  0.00    +0.172 C 
BRANCH  16  18
ATOM     17  N   UNL     1       1.447  -4.746  -0.032  0.00  0.00    -0.311 N 
ATOM     18  C   UNL     1       1.710  -6.067  -0.040  0.00  0.00    +0.224 C 
ATOM     19  O   UNL     1       0.799  -6.867  -0.040  0.00  0.00    -0.275 OA
ATOM     20  H   UNL     1       2.176  -4.106  -0.032  0.00  0.00    +0.149 HD
BRANCH  17  21
ATOM     21  C   UNL     1       0.059  -4.275  -0.021  0.00  0.00    +0.139 C 
BRANCH  21  26
ATOM     22  C   UNL     1      -0.018   1.503   0.010  0.00  0.00    +0.044 C 
ATOM     23  C   UNL     1       0.002  -0.004   0.002  0.00  0.00    -0.050 A 
ATOM     24  C   UNL     1       0.006  -0.689  -1.199  0.00  0.00    +0.003 A 
ATOM     25  C   UNL     1       0.025  -2.071  -1.206  0.00  0.00    +0.005 A 
ATOM     26  C   UNL     1       0.040  -2.768  -0.013  0.00  0.00    -0.030 A 
ATOM     27  C   UNL     1       0.037  -2.084   1.188  0.00  0.00    +0.005 A 
ATOM     28  C   UNL     1       0.023  -0.702   1.195  0.00  0.00    +0.003 A 
ENDBRANCH  21  26
ENDBRANCH  17  21
ENDBRANCH  16  18
ENDBRANCH  15  16
ENDBRANCH   1  15
BRANCH  11  29
ATOM     29  C   UNL     1       5.252 -13.242   1.137  0.00  0.00    +0.069 C 
BRANCH  29  30
ATOM     30  C   UNL     1       6.207 -14.407   1.082  0.00  0.00    -0.039 C 
ATOM     31  C   UNL     1       7.431 -14.483   1.652  0.00  0.00    -0.001 A 
ATOM     32  C   UNL     1       8.210 -13.539   2.463  0.00  0.00    +0.010 A 
ATOM     33  C   UNL     1       9.436 -13.908   2.901  0.00  0.00    +0.001 A 
ATOM     34  C   UNL     1       9.979 -15.165   2.600  0.00  0.00    +0.002 A 
ATOM     35  C   UNL     1       9.323 -16.084   1.861  0.00  0.00    +0.026 A 
ATOM     36  C   UNL     1       8.027 -15.804   1.349  0.00  0.00    +0.043 A 
ATOM     37  N   UNL     1       7.203 -16.517   0.620  0.00  0.00    -0.380 N 
ATOM     38  C   UNL     1       5.987 -15.730   0.383  0.00  0.00    +0.144 C 
ATOM     39  H   UNL     1       7.367 -17.416   0.295  0.00  0.00    +0.160 HD
ENDBRANCH  29  30
ENDBRANCH  11  29
TORSDOF 7
