REMARK  Name = ZINC43746603
REMARK  7 active torsions:
REMARK  status: ('A' for Active; 'I' for Inactive)
REMARK    1  A    between atoms: C_1  and  C_2
REMARK    2  A    between atoms: C_2  and  C_3
REMARK    3  A    between atoms: C_2  and  C_4
REMARK    4  A    between atoms: C_4  and  C_6
REMARK    5  A    between atoms: C_4  and  N_14
REMARK    6  A    between atoms: N_8  and  C_9
REMARK    7  A    between atoms: C_15  and  C_17
REMARK                            x       y       z     vdW  Elec       q    Type
REMARK                         _______ _______ _______ _____ _____    ______ ____
ROOT
ATOM      1  C   UNL     1      -2.107  -3.833   1.924  0.00  0.00    +0.167 C 
ATOM      2  C   UNL     1      -1.175  -4.819   1.206  0.00  0.00    +0.069 C 
ATOM      3  C   UNL     1       0.135  -4.930   1.943  0.00  0.00    -0.015 A 
ATOM      4  C   UNL     1       1.380  -5.486   1.443  0.00  0.00    +0.003 A 
ATOM      5  C   UNL     1       1.738  -6.041   0.210  0.00  0.00    +0.010 A 
ATOM      6  C   UNL     1       3.033  -6.479   0.081  0.00  0.00    +0.001 A 
ATOM      7  C   UNL     1       3.950  -6.383   1.115  0.00  0.00    +0.002 A 
ATOM      8  C   UNL     1       3.622  -5.837   2.344  0.00  0.00    +0.026 A 
ATOM      9  C   UNL     1       2.315  -5.382   2.504  0.00  0.00    +0.047 A 
ATOM     10  N   UNL     1       1.670  -4.800   3.557  0.00  0.00    -0.356 N 
ATOM     11  H   UNL     1       2.070  -4.610   4.420  0.00  0.00    +0.166 HD
ATOM     12  C   UNL     1       0.376  -4.524   3.210  0.00  0.00    +0.046 A 
ATOM     13  C   UNL     1      -0.666  -3.847   4.067  0.00  0.00    +0.155 C 
ATOM     14  N   UNL     1      -1.959  -4.043   3.368  0.00  0.00    -0.273 N 
ATOM     15  C   UNL     1      -2.868  -4.456   4.262  0.00  0.00    +0.248 C 
ATOM     16  O   UNL     1      -4.068  -4.495   4.074  0.00  0.00    -0.270 OA
ATOM     17  C   UNL     1      -2.192  -4.853   5.501  0.00  0.00    +0.042 A 
ATOM     18  C   UNL     1      -0.811  -4.484   5.406  0.00  0.00    -0.009 A 
ATOM     19  C   UNL     1       0.093  -4.730   6.415  0.00  0.00    +0.006 A 
ATOM     20  C   UNL     1      -0.394  -5.343   7.566  0.00  0.00    +0.000 A 
ATOM     21  C   UNL     1      -1.723  -5.689   7.699  0.00  0.00    +0.001 A 
ATOM     22  C   UNL     1      -2.687  -5.465   6.655  0.00  0.00    +0.013 A 
ENDROOT
BRANCH   1  24
ATOM     23  N   UNL     1      -1.767  -2.007   0.290  0.00  0.00    -0.302 N 
ATOM     24  C   UNL     1      -1.722  -2.419   1.573  0.00  0.00    +0.235 C 
ATOM     25  O   UNL     1      -1.371  -1.651   2.444  0.00  0.00    -0.274 OA
ATOM     26  H   UNL     1      -2.048  -2.621  -0.407  0.00  0.00    +0.150 HD
BRANCH  23  27
ATOM     27  C   UNL     1      -1.393  -0.633  -0.052  0.00  0.00    +0.161 C 
BRANCH  27  28
ATOM     28  C   UNL     1      -2.074  -0.231  -1.335  0.00  0.00    +0.234 C 
ATOM     29  O   UNL     1      -2.506  -1.081  -2.084  0.00  0.00    -0.274 OA
ATOM     30  N   UNL     1      -2.204   1.073  -1.649  0.00  0.00    -0.311 N 
ATOM     31  H   UNL     1      -1.924   1.754  -1.018  0.00  0.00    +0.149 HD
BRANCH  30  32
ATOM     32  C   UNL     1      -2.768   1.462  -2.944  0.00  0.00    +0.073 C 
ATOM     33  C   UNL     1      -1.651   1.542  -4.004  0.00  0.00    +0.022 C 
ATOM     34  C   UNL     1      -2.051   2.750  -4.888  0.00  0.00    +0.002 C 
ATOM     35  C   UNL     1      -2.621   3.754  -3.855  0.00  0.00    +0.002 C 
ATOM     36  C   UNL     1      -3.385   2.869  -2.849  0.00  0.00    +0.022 C 
ENDBRANCH  30  32
ENDBRANCH  27  28
BRANCH  27  38
ATOM     37  C   UNL     1       0.814  -0.888   1.091  0.00  0.00    +0.009 C 
ATOM     38  C   UNL     1       0.124  -0.547  -0.231  0.00  0.00    +0.012 C 
ATOM     39  C   UNL     1       0.567  -1.538  -1.309  0.00  0.00    +0.009 C 
ENDBRANCH  27  38
ENDBRANCH  23  27
ENDBRANCH   1  24
TORSDOF 5
