REMARK  Name = ZINC08622039
REMARK  10 active torsions:
REMARK  status: ('A' for Active; 'I' for Inactive)
REMARK    1  A    between atoms: C_1  and  C_2
REMARK    2  A    between atoms: C_2  and  C_4
REMARK    3  A    between atoms: C_2  and  S_16
REMARK    4  A    between atoms: N_6  and  C_7
REMARK    5  A    between atoms: C_10  and  N_13
REMARK    6  A    between atoms: N_13  and  C_14
REMARK    7  A    between atoms: N_13  and  C_15
REMARK    8  A    between atoms: S_16  and  C_17
REMARK    9  A    between atoms: C_20  and  C_23
REMARK   10  A    between atoms: N_21  and  N_22
REMARK                            x       y       z     vdW  Elec       q    Type
REMARK                         _______ _______ _______ _____ _____    ______ ____
ROOT
ATOM      1  S   UNL     1      -0.738   1.817   1.481  0.00  0.00    -0.072 S 
ENDROOT
BRANCH   1   2
ATOM      2  C   UNL     1       0.117   0.917   2.732  0.00  0.00    +0.209 A 
ATOM      3  N   UNL     1       1.037  -0.002   2.540  0.00  0.00    -0.121 NA
ATOM      4  N   UNL     1       1.451  -0.454   3.669  0.00  0.00    -0.127 NA
ATOM      5  C   UNL     1       0.822   0.148   4.651  0.00  0.00    +0.183 A 
ATOM      6  N   UNL     1      -0.048   1.049   4.081  0.00  0.00    -0.224 N 
BRANCH   5   7
ATOM      7  C   UNL     1       1.016  -0.092   6.097  0.00  0.00    +0.039 A 
ATOM      8  C   UNL     1      -0.089  -0.243   6.936  0.00  0.00    +0.014 A 
ATOM      9  C   UNL     1       0.098  -0.473   8.283  0.00  0.00    +0.021 A 
ATOM     10  C   UNL     1       1.379  -0.542   8.806  0.00  0.00    +0.042 A 
ATOM     11  C   UNL     1       2.479  -0.387   7.981  0.00  0.00    +0.040 A 
ATOM     12  C   UNL     1       2.305  -0.163   6.629  0.00  0.00    +0.053 A 
ATOM     13 CL   UNL     1       3.686   0.032   5.595  0.00  0.00    -0.083 Cl
ATOM     14 CL   UNL     1       1.605  -0.823  10.504  0.00  0.00    -0.083 Cl
ENDBRANCH   5   7
BRANCH   6  15
ATOM     15  N   UNL     1      -0.900   1.897   4.730  0.00  0.00    -0.295 N 
ATOM     16  H   UNL     1      -1.766   1.432   4.960  0.00  0.00    +0.163 HD
ATOM     17  H   UNL     1      -0.467   2.284   5.555  0.00  0.00    +0.163 HD
ENDBRANCH   6  15
ENDBRANCH   1   2
BRANCH   1  19
ATOM     18  C   UNL     1       1.508   1.460  -0.033  0.00  0.00    +0.029 C 
ATOM     19  C   UNL     1       0.021   1.100   0.003  0.00  0.00    +0.137 C 
BRANCH  19  20
ATOM     20  C   UNL     1      -0.658   1.647  -1.226  0.00  0.00    +0.230 C 
ATOM     21  O   UNL     1      -1.215   2.724  -1.183  0.00  0.00    -0.274 OA
ATOM     22  N   UNL     1      -0.647   0.939  -2.373  0.00  0.00    -0.285 N 
ATOM     23  H   UNL     1      -0.265   0.048  -2.390  0.00  0.00    +0.155 HD
BRANCH  22  24
ATOM     24  C   UNL     1      -1.189   1.491  -3.542  0.00  0.00    +0.034 A 
ATOM     25  C   UNL     1      -2.307   2.310  -3.470  0.00  0.00    +0.025 A 
ATOM     26  C   UNL     1      -2.837   2.859  -4.620  0.00  0.00    +0.025 A 
ATOM     27  C   UNL     1      -2.258   2.582  -5.852  0.00  0.00    +0.029 A 
ATOM     28  C   UNL     1      -1.142   1.758  -5.925  0.00  0.00    +0.025 A 
ATOM     29  C   UNL     1      -0.609   1.214  -4.773  0.00  0.00    +0.025 A 
BRANCH  27  30
ATOM     30  N   UNL     1      -2.797   3.134  -7.019  0.00  0.00    -0.336 N 
ATOM     31  C   UNL     1      -2.186   2.843  -8.318  0.00  0.00    +0.129 C 
ATOM     32  C   UNL     1      -3.974   4.003  -6.942  0.00  0.00    +0.129 C 
ENDBRANCH  27  30
ENDBRANCH  22  24
ENDBRANCH  19  20
ENDBRANCH   1  19
TORSDOF 7
