REMARK  Name = ZINC33600236
REMARK  13 active torsions:
REMARK  status: ('A' for Active; 'I' for Inactive)
REMARK    1  A    between atoms: C_1  and  C_2
REMARK    2  A    between atoms: C_2  and  C_3
REMARK    3  A    between atoms: C_3  and  C_4
REMARK    4  A    between atoms: C_3  and  C_5
REMARK    5  A    between atoms: C_3  and  C_6
REMARK    6  A    between atoms: N_12  and  C_17
REMARK    7  A    between atoms: C_17  and  C_18
REMARK    8  A    between atoms: C_20  and  C_23
REMARK    9  A    between atoms: N_25  and  C_26
REMARK   10  A    between atoms: C_26  and  C_27
REMARK   11  A    between atoms: C_27  and  C_28
REMARK   12  A    between atoms: C_28  and  N_29
REMARK   13  A    between atoms: C_34  and  C_36
REMARK                            x       y       z     vdW  Elec       q    Type
REMARK                         _______ _______ _______ _____ _____    ______ ____
ROOT
ATOM      1  C   UNL     1       4.496   9.803   0.257  0.00  0.00    +0.097 A 
ATOM      2  N   UNL     1       4.546   8.511   0.454  0.00  0.00    -0.238 NA
ATOM      3  C   UNL     1       5.715   7.922   0.711  0.00  0.00    +0.133 A 
ATOM      4  C   UNL     1       6.832   8.717   0.746  0.00  0.00    +0.080 A 
ATOM      5  S   UNL     1       6.155  10.280   0.415  0.00  0.00    -0.078 S 
ENDROOT
BRANCH   3   6
ATOM      6  C   UNL     1       5.804   6.470   0.944  0.00  0.00    +0.263 C 
ATOM      7  O   UNL     1       6.882   5.956   1.171  0.00  0.00    -0.269 OA
ATOM      8  N   UNL     1       4.690   5.712   0.903  0.00  0.00    -0.310 N 
ATOM      9  H   UNL     1       3.715   6.178   0.697  0.00  0.00    +0.149 HD
BRANCH   8  10
ATOM     10  C   UNL     1       4.778   4.268   1.134  0.00  0.00    +0.103 C 
BRANCH  10  11
ATOM     11  C   UNL     1       3.382   3.650   1.034  0.00  0.00    +0.000 C 
BRANCH  11  12
ATOM     12  C   UNL     1       3.474   2.142   1.275  0.00  0.00    -0.077 C 
BRANCH  12  13
ATOM     13  N   UNL     1       2.134   1.548   1.179  0.00  0.00    +0.381 N 
ATOM     14  C   UNL     1       1.419   2.052  -0.001  0.00  0.00    -0.078 C 
ATOM     15  C   UNL     1      -0.019   1.527   0.010  0.00  0.00    -0.019 C 
ATOM     16  C   UNL     1       0.002  -0.004   0.002  0.00  0.00    -0.003 C 
ATOM     17  C   UNL     1       0.794  -0.503   1.214  0.00  0.00    -0.016 C 
ATOM     18  C   UNL     1       2.208   0.081   1.168  0.00  0.00    -0.072 C 
ATOM     19  C   UNL     1       2.998  -0.398   2.388  0.00  0.00    -0.013 C 
ATOM     20  H   UNL     1       1.565   1.848   2.070  0.00  0.00    -0.081 HD
ENDBRANCH  12  13
ENDBRANCH  11  12
ENDBRANCH  10  11
ENDBRANCH   8  10
ENDBRANCH   3   6
BRANCH   1  21
ATOM     21  C   UNL     1       3.294  10.662  -0.040  0.00  0.00    +0.176 C 
BRANCH  21  28
ATOM     22  C   UNL     1       4.286  14.456   1.599  0.00  0.00    -0.040 A 
ATOM     23  C   UNL     1       3.980  14.737   2.918  0.00  0.00    +0.008 A 
ATOM     24  C   UNL     1       3.257  13.832   3.673  0.00  0.00    +0.048 A 
ATOM     25  C   UNL     1       2.837  12.640   3.107  0.00  0.00    +0.143 A 
ATOM     26  C   UNL     1       3.147  12.357   1.777  0.00  0.00    +0.079 A 
ATOM     27  C   UNL     1       3.872  13.268   1.026  0.00  0.00    +0.031 A 
ATOM     28  N   UNL     1       2.717  11.146   1.216  0.00  0.00    -0.259 N 
ATOM     29  C   UNL     1       1.758  10.435   1.849  0.00  0.00    +0.258 C 
ATOM     30  O   UNL     1       1.389   9.373   1.396  0.00  0.00    -0.271 OA
ATOM     31  C   UNL     1       1.153  10.966   3.124  0.00  0.00    +0.325 C 
ATOM     32  O   UNL     1       2.123  11.740   3.834  0.00  0.00    -0.481 OA
BRANCH  22  33
ATOM     33  C   UNL     1       5.075  15.448   0.783  0.00  0.00    -0.010 C 
ATOM     34  C   UNL     1       6.372  14.796   0.301  0.00  0.00    +0.016 C 
ATOM     35  C   UNL     1       4.246  15.889  -0.425  0.00  0.00    +0.016 C 
BRANCH  33  37
ATOM     36  C   UNL     1       6.208  17.675   0.818  0.00  0.00    +0.005 C 
ATOM     37  C   UNL     1       5.407  16.668   1.645  0.00  0.00    +0.007 C 
ENDBRANCH  33  37
ENDBRANCH  22  33
ENDBRANCH  21  28
ENDBRANCH   1  21
TORSDOF 9
