REMARK  Name = ZINC04237226
REMARK  6 active torsions:
REMARK  status: ('A' for Active; 'I' for Inactive)
REMARK    1  A    between atoms: C_1  and  N_69
REMARK    2  A    between atoms: C_2  and  N_69
REMARK    3  A    between atoms: C_3  and  C_4
REMARK    4  A    between atoms: C_3  and  N_69
REMARK    5  A    between atoms: C_9  and  C_10
REMARK    6  A    between atoms: N_28  and  C_29
REMARK                            x       y       z     vdW  Elec       q    Type
REMARK                         _______ _______ _______ _____ _____    ______ ____
ROOT
ATOM      1  C   UNL     1      -0.527  -1.082  -1.208  0.00  0.00    +0.047 A 
ATOM      2  C   UNL     1      -0.800  -1.885  -2.305  0.00  0.00    +0.015 A 
ATOM      3  C   UNL     1      -2.036  -2.531  -2.371  0.00  0.00    +0.022 A 
ATOM      4  C   UNL     1      -2.966  -2.355  -1.393  0.00  0.00    +0.027 A 
ATOM      5  N   UNL     1      -2.741  -1.499  -0.369  0.00  0.00    -0.311 N 
ATOM      6  C   UNL     1      -1.523  -0.923  -0.219  0.00  0.00    +0.259 A 
ATOM      7  O   UNL     1      -1.286  -0.261   0.778  0.00  0.00    -0.267 OA
ATOM      8  C   UNL     1      -3.781  -1.101   0.581  0.00  0.00    +0.130 C 
ATOM      9  C   UNL     1      -4.928  -2.093   0.634  0.00  0.00    +0.027 C 
ATOM     10  C   UNL     1      -5.377  -2.444  -0.785  0.00  0.00    +0.018 C 
ATOM     11  C   UNL     1      -4.231  -3.177  -1.487  0.00  0.00    +0.054 C 
ATOM     12  C   UNL     1      -3.983  -4.505  -0.752  0.00  0.00    +0.119 C 
ATOM     13  N   UNL     1      -3.612  -4.163   0.630  0.00  0.00    -0.285 N 
ATOM     14  C   UNL     1      -4.546  -3.345   1.412  0.00  0.00    +0.114 C 
ATOM     15  C   UNL     1      -2.462  -4.607   1.174  0.00  0.00    +0.302 C 
ATOM     16  O   UNL     1      -1.650  -5.194   0.486  0.00  0.00    -0.253 OA
ATOM     17  N   UNL     1      -2.212  -4.399   2.482  0.00  0.00    -0.296 N 
ATOM     18  H   UNL     1      -2.889  -3.996   3.047  0.00  0.00    +0.151 HD
ENDROOT
BRANCH   1  24
ATOM     19  C   UNL     1       1.754  -0.910  -0.218  0.00  0.00    -0.056 A 
ATOM     20  C   UNL     1       2.972  -0.270  -0.102  0.00  0.00    +0.002 A 
ATOM     21  C   UNL     1       3.228   0.873  -0.837  0.00  0.00    +0.000 A 
ATOM     22  C   UNL     1       2.267   1.384  -1.691  0.00  0.00    +0.001 A 
ATOM     23  C   UNL     1       1.046   0.754  -1.816  0.00  0.00    +0.009 A 
ATOM     24  C   UNL     1       0.782  -0.400  -1.078  0.00  0.00    -0.011 A 
BRANCH  19  25
ATOM     25  C   UNL     1       1.476  -2.156   0.582  0.00  0.00    -0.043 C 
BRANCH  25  28
ATOM     26  C   UNL     1       2.061  -4.500   0.736  0.00  0.00    -0.096 C 
ATOM     27  C   UNL     1       1.151  -3.612  -1.325  0.00  0.00    -0.096 C 
ATOM     28  N   UNL     1       2.007  -3.322  -0.155  0.00  0.00    +0.379 N 
ATOM     29  H   UNL     1       2.956  -3.107  -0.481  0.00  0.00    -0.082 HD
ENDBRANCH  25  28
ENDBRANCH  19  25
ENDBRANCH   1  24
BRANCH  17  30
ATOM     30  C   UNL     1      -0.916  -4.781   3.050  0.00  0.00    +0.074 C 
ATOM     31  C   UNL     1      -0.952  -6.256   3.454  0.00  0.00    +0.022 C 
ATOM     32  C   UNL     1       0.400  -6.656   4.047  0.00  0.00    +0.002 C 
ATOM     33  C   UNL     1       0.692  -5.796   5.279  0.00  0.00    +0.000 C 
ATOM     34  C   UNL     1       0.728  -4.321   4.874  0.00  0.00    +0.002 C 
ATOM     35  C   UNL     1      -0.625  -3.921   4.281  0.00  0.00    +0.022 C 
ENDBRANCH  17  30
TORSDOF 4
