REMARK  Name = ZINC20583404
REMARK  7 active torsions:
REMARK  status: ('A' for Active; 'I' for Inactive)
REMARK    1  A    between atoms: C_1  and  C_2
REMARK    2  A    between atoms: C_2  and  C_3
REMARK    3  A    between atoms: C_3  and  C_4
REMARK    4  A    between atoms: C_4  and  O_5
REMARK    5  A    between atoms: O_5  and  C_6
REMARK    6  A    between atoms: C_6  and  C_8
REMARK    7  A    between atoms: C_9  and  N_29
REMARK                            x       y       z     vdW  Elec       q    Type
REMARK                         _______ _______ _______ _____ _____    ______ ____
ROOT
ATOM      1  C   UNL     1      -1.917   1.817  -1.114  0.00  0.00    +0.117 C 
ATOM      2  C   UNL     1      -3.261   1.977  -1.243  0.00  0.00    +0.196 C 
ATOM      3  O   UNL     1      -4.054   2.189  -0.182  0.00  0.00    -0.441 OA
ATOM      4  C   UNL     1      -3.624   1.877   1.066  0.00  0.00    +0.135 A 
ATOM      5  C   UNL     1      -4.552   1.726   2.089  0.00  0.00    +0.048 A 
ATOM      6  C   UNL     1      -4.130   1.407   3.364  0.00  0.00    +0.019 A 
ATOM      7  C   UNL     1      -2.782   1.236   3.625  0.00  0.00    +0.018 A 
ATOM      8  C   UNL     1      -1.857   1.387   2.609  0.00  0.00    +0.024 A 
ATOM      9  C   UNL     1      -2.274   1.707   1.330  0.00  0.00    +0.020 A 
ATOM     10  C   UNL     1      -1.260   1.869   0.233  0.00  0.00    +0.141 C 
ATOM     11  C   UNL     1      -0.486   3.142   0.408  0.00  0.00    +0.036 C 
ATOM     12  C   UNL     1       0.816   2.785   0.586  0.00  0.00    +0.019 C 
ATOM     13  C   UNL     1       1.899   3.822   0.802  0.00  0.00    +0.052 C 
ATOM     14  C   UNL     1       1.254   5.060   1.434  0.00  0.00    +0.014 C 
ATOM     15  C   UNL     1       0.105   5.565   0.560  0.00  0.00    +0.080 C 
ATOM     16  C   UNL     1      -0.930   4.473   0.397  0.00  0.00    +0.162 C 
ATOM     17  O   UNL     1      -2.107   4.740   0.261  0.00  0.00    -0.292 OA
ATOM     18  N   UNL     1       0.967   1.435   0.543  0.00  0.00    -0.287 N 
ATOM     19  C   UNL     1      -0.201   0.791   0.342  0.00  0.00    +0.237 C 
ATOM     20  O   UNL     1      -0.368  -0.407   0.259  0.00  0.00    -0.274 OA
ATOM     21 BR   UNL     1      -2.205   0.797   5.372  0.00  0.00    -0.050 Br
ATOM     22  H   UNL     1       1.965   0.990   0.667  0.00  0.00    +0.155 HD
ENDROOT
BRANCH   2  23
ATOM     23  N   UNL     1      -3.820   1.920  -2.491  0.00  0.00    -0.329 N 
ATOM     24  H   UNL     1      -4.906   2.048  -2.614  0.00  0.00    +0.145 HD
ATOM     25  H   UNL     1      -3.184   1.747  -3.372  0.00  0.00    +0.145 HD
ENDBRANCH   2  23
BRANCH   1  26
ATOM     26  C   UNL     1      -1.134   1.600  -2.257  0.00  0.00    +0.342 C 
ATOM     27  O   UNL     1      -1.668   1.440  -3.340  0.00  0.00    -0.245 OA
BRANCH  26  28
ATOM     28  O   UNL     1       0.213   1.568  -2.157  0.00  0.00    -0.461 OA
BRANCH  28  29
ATOM     29  C   UNL     1       0.948   1.343  -3.361  0.00  0.00    +0.232 C 
BRANCH  29  30
ATOM     30  C   UNL     1       2.446   1.340  -3.052  0.00  0.00    +0.041 C 
BRANCH  30  32
ATOM     31  C   UNL     1       4.731   1.096  -4.032  0.00  0.00    +0.004 C 
ATOM     32  C   UNL     1       3.233   1.099  -4.342  0.00  0.00    -0.000 C 
ENDBRANCH  30  32
ENDBRANCH  29  30
ENDBRANCH  28  29
ENDBRANCH  26  28
ENDBRANCH   1  26
TORSDOF 6
