REMARK  Name = ZINC12412580
REMARK  9 active torsions:
REMARK  status: ('A' for Active; 'I' for Inactive)
REMARK    1  A    between atoms: C_1  and  C_2
REMARK    2  A    between atoms: C_2  and  O_3
REMARK    3  A    between atoms: O_3  and  C_4
REMARK    4  A    between atoms: C_4  and  C_6
REMARK    5  A    between atoms: C_7  and  C_23
REMARK    6  A    between atoms: C_12  and  C_14
REMARK    7  A    between atoms: C_23  and  N_66
REMARK    8  A    between atoms: C_24  and  C_25
REMARK    9  A    between atoms: C_24  and  N_66
REMARK                            x       y       z     vdW  Elec       q    Type
REMARK                         _______ _______ _______ _____ _____    ______ ____
ROOT
ATOM      1  C   UNL     1      -2.795  -2.411   0.128  0.00  0.00    +0.076 C 
ATOM      2  C   UNL     1      -2.985  -3.730  -0.090  0.00  0.00    +0.007 C 
ATOM      3  N   UNL     1      -4.242  -4.254  -0.193  0.00  0.00    -0.274 N 
ATOM      4  C   UNL     1      -5.360  -3.526  -0.090  0.00  0.00    +0.304 C 
ATOM      5  O   UNL     1      -6.436  -4.082  -0.195  0.00  0.00    -0.252 OA
ATOM      6  N   UNL     1      -5.333  -2.196   0.127  0.00  0.00    -0.288 N 
ATOM      7  C   UNL     1      -4.024  -1.534   0.259  0.00  0.00    +0.144 C 
ATOM      8  H   UNL     1      -4.329  -5.207  -0.349  0.00  0.00    +0.156 HD
ATOM      9  H   UNL     1      -6.156  -1.687   0.198  0.00  0.00    +0.151 HD
ENDROOT
BRANCH   7  10
ATOM     10  C   UNL     1      -3.973  -0.862   1.607  0.00  0.00    -0.019 A 
ATOM     11  C   UNL     1      -4.363  -1.553   2.738  0.00  0.00    +0.009 A 
ATOM     12  C   UNL     1      -4.317  -0.941   3.977  0.00  0.00    +0.050 A 
ATOM     13  C   UNL     1      -3.880   0.369   4.087  0.00  0.00    +0.166 A 
ATOM     14  C   UNL     1      -3.487   1.066   2.947  0.00  0.00    +0.167 A 
ATOM     15  C   UNL     1      -3.530   0.444   1.710  0.00  0.00    +0.055 A 
ATOM     16  O   UNL     1      -3.102   2.323   3.315  0.00  0.00    -0.453 OA
ATOM     17  C   UNL     1      -2.876   2.255   4.735  0.00  0.00    +0.466 C 
ATOM     18  O   UNL     1      -3.742   1.190   5.169  0.00  0.00    -0.453 OA
ENDBRANCH   7  10
BRANCH   1  19
ATOM     19  C   UNL     1      -1.494  -1.867   0.235  0.00  0.00    +0.339 C 
ATOM     20  O   UNL     1      -1.001  -1.278  -0.708  0.00  0.00    -0.245 OA
BRANCH  19  21
ATOM     21  O   UNL     1      -0.799  -2.002   1.384  0.00  0.00    -0.462 OA
BRANCH  21  23
ATOM     22  C   UNL     1       1.137  -1.681   2.795  0.00  0.00    +0.048 C 
ATOM     23  C   UNL     1       0.509  -1.429   1.423  0.00  0.00    +0.229 C 
ENDBRANCH  21  23
ENDBRANCH  19  21
ENDBRANCH   1  19
BRANCH   2  24
ATOM     24  C   UNL     1      -1.790  -4.639  -0.222  0.00  0.00    -0.030 C 
BRANCH  24  25
ATOM     25  N   UNL     1      -1.777  -5.587   0.909  0.00  0.00    +0.383 N 
ATOM     26  H   UNL     1      -2.640  -6.142   0.896  0.00  0.00    -0.085 HD
ATOM     27  H   UNL     1      -1.720  -5.062   1.790  0.00  0.00    -0.085 HD
BRANCH  25  28
ATOM     28  C   UNL     1      -0.615  -6.490   0.806  0.00  0.00    -0.075 C 
BRANCH  28  29
ATOM     29  C   UNL     1      -0.628  -7.460   1.990  0.00  0.00    -0.044 C 
ATOM     30  C   UNL     1      -1.921  -8.278   1.965  0.00  0.00    +0.008 C 
ATOM     31  C   UNL     1      -1.933  -9.247   3.149  0.00  0.00    -0.010 C 
ATOM     32  C   UNL     1      -0.732 -10.189   3.050  0.00  0.00    +0.007 C 
ATOM     33  C   UNL     1       0.561  -9.370   3.075  0.00  0.00    -0.010 C 
ATOM     34  C   UNL     1       0.574  -8.401   1.891  0.00  0.00    +0.008 C 
ATOM     35  C   UNL     1       0.639  -8.579   4.383  0.00  0.00    +0.007 C 
ATOM     36  C   UNL     1      -0.563  -7.638   4.481  0.00  0.00    -0.010 C 
ATOM     37  C   UNL     1      -1.855  -8.456   4.457  0.00  0.00    +0.007 C 
ATOM     38  C   UNL     1      -0.550  -6.669   3.298  0.00  0.00    +0.008 C 
ENDBRANCH  28  29
ENDBRANCH  25  28
ENDBRANCH  24  25
ENDBRANCH   2  24
TORSDOF 8
