REMARK  Name = ZINC09475156
REMARK  8 active torsions:
REMARK  status: ('A' for Active; 'I' for Inactive)
REMARK    1  A    between atoms: C_1  and  C_2
REMARK    2  A    between atoms: C_4  and  C_34
REMARK    3  A    between atoms: C_6  and  N_8
REMARK    4  A    between atoms: C_9  and  C_11
REMARK    5  A    between atoms: C_12  and  C_33
REMARK    6  A    between atoms: C_22  and  C_25
REMARK    7  A    between atoms: C_28  and  O_32
REMARK    8  A    between atoms: C_29  and  O_31
REMARK                            x       y       z     vdW  Elec       q    Type
REMARK                         _______ _______ _______ _____ _____    ______ ____
ROOT
ATOM      1  C   UNL     1      -4.785   0.317   0.194  0.00  0.00    +0.080 A 
ATOM      2  C   UNL     1      -3.724  -0.530   0.328  0.00  0.00    -0.017 A 
ATOM      3  C   UNL     1      -2.420  -0.027   0.289  0.00  0.00    +0.078 A 
ATOM      4  C   UNL     1      -2.309   1.372   0.107  0.00  0.00    +0.117 A 
ATOM      5  S   UNL     1      -3.998   1.908   0.003  0.00  0.00    -0.064 S 
ATOM      6  N   UNL     1      -1.134   1.976   0.044  0.00  0.00    -0.214 NA
ATOM      7  C   UNL     1      -0.014   1.297   0.166  0.00  0.00    +0.194 A 
ATOM      8  N   UNL     1      -0.012  -0.062   0.356  0.00  0.00    -0.171 N 
ATOM      9  C   UNL     1      -1.181  -0.738   0.410  0.00  0.00    +0.284 A 
ATOM     10  O   UNL     1      -1.181  -1.946   0.562  0.00  0.00    -0.265 OA
ATOM     11  N   UNL     1       1.179  -0.774   0.502  0.00  0.00    -0.165 NA
ATOM     12  C   UNL     1       2.292  -0.295   0.939  0.00  0.00    +0.080 C 
ATOM     13  C   UNL     1       2.417   1.159   1.340  0.00  0.00    +0.135 C 
ATOM     14  S   UNL     1       1.542   2.135   0.078  0.00  0.00    -0.080 S 
ATOM     15  C   UNL     1      -3.958  -2.007   0.516  0.00  0.00    +0.046 C 
ENDROOT
BRANCH  12  16
ATOM     16  C   UNL     1       3.466  -1.179   1.052  0.00  0.00    +0.002 A 
ATOM     17  C   UNL     1       4.680  -0.675   1.525  0.00  0.00    +0.013 A 
ATOM     18  C   UNL     1       5.776  -1.504   1.631  0.00  0.00    +0.050 A 
ATOM     19  C   UNL     1       5.678  -2.840   1.268  0.00  0.00    +0.158 A 
ATOM     20  C   UNL     1       4.470  -3.349   0.796  0.00  0.00    +0.159 A 
ATOM     21  C   UNL     1       3.365  -2.526   0.692  0.00  0.00    +0.059 A 
BRANCH  20  22
ATOM     22  O   UNL     1       4.377  -4.659   0.442  0.00  0.00    -0.503 OA
ATOM     23  H   UNL     1       4.114  -5.244   1.165  0.00  0.00    +0.292 HD
ENDBRANCH  20  22
BRANCH  19  24
ATOM     24  O   UNL     1       6.761  -3.653   1.375  0.00  0.00    -0.503 OA
ATOM     25  H   UNL     1       6.839  -4.095   2.231  0.00  0.00    +0.292 HD
ENDBRANCH  19  24
ENDBRANCH  12  16
BRANCH   1  27
ATOM     26  N   UNL     1      -7.123   0.984   0.057  0.00  0.00    -0.281 N 
ATOM     27  C   UNL     1      -6.214   0.001   0.205  0.00  0.00    +0.255 C 
ATOM     28  O   UNL     1      -6.581  -1.151   0.348  0.00  0.00    -0.269 OA
ATOM     29  H   UNL     1      -6.835   1.910   0.019  0.00  0.00    +0.155 HD
BRANCH  26  35
ATOM     30  C   UNL     1     -11.813   2.161   0.942  0.00  0.00    +0.044 C 
ATOM     31  C   UNL     1     -10.778   1.223   0.377  0.00  0.00    -0.048 A 
ATOM     32  C   UNL     1     -11.171   0.050  -0.241  0.00  0.00    +0.006 A 
ATOM     33  C   UNL     1     -10.224  -0.813  -0.760  0.00  0.00    -0.048 A 
ATOM     34  C   UNL     1      -8.881  -0.506  -0.663  0.00  0.00    +0.026 A 
ATOM     35  C   UNL     1      -8.482   0.671  -0.043  0.00  0.00    +0.034 A 
ATOM     36  C   UNL     1      -9.436   1.533   0.482  0.00  0.00    +0.026 A 
ATOM     37  C   UNL     1     -10.658  -2.090  -1.433  0.00  0.00    +0.044 C 
ENDBRANCH  26  35
ENDBRANCH   1  27
TORSDOF 5
