REMARK  Name = ZINC17043705
REMARK  5 active torsions:
REMARK  status: ('A' for Active; 'I' for Inactive)
REMARK    1  A    between atoms: C_1  and  C_2
REMARK    2  A    between atoms: C_2  and  C_3
REMARK    3  A    between atoms: C_3  and  C_5
REMARK    4  A    between atoms: C_3  and  N_16
REMARK    5  A    between atoms: N_7  and  C_8
REMARK                            x       y       z     vdW  Elec       q    Type
REMARK                         _______ _______ _______ _____ _____    ______ ____
ROOT
ATOM      1  C   UNL     1      -0.754   3.126   1.266  0.00  0.00    +0.181 C 
ENDROOT
BRANCH   1   2
ATOM      2  N   UNL     1       0.614   3.638   1.373  0.00  0.00    -0.248 N 
ATOM      3  C   UNL     1       1.102   4.434   0.397  0.00  0.00    +0.265 A 
ATOM      4  O   UNL     1       0.421   4.728  -0.567  0.00  0.00    -0.267 OA
ATOM      5  C   UNL     1       2.482   4.936   0.529  0.00  0.00    +0.063 A 
ATOM      6  C   UNL     1       3.057   5.761  -0.434  0.00  0.00    +0.015 A 
ATOM      7  C   UNL     1       4.351   6.205  -0.264  0.00  0.00    +0.001 A 
ATOM      8  C   UNL     1       5.078   5.834   0.858  0.00  0.00    +0.002 A 
ATOM      9  C   UNL     1       4.520   5.016   1.820  0.00  0.00    +0.026 A 
ATOM     10  C   UNL     1       3.219   4.561   1.665  0.00  0.00    +0.056 A 
ATOM     11  N   UNL     1       2.621   3.738   2.609  0.00  0.00    -0.307 N 
ATOM     12  H   UNL     1       3.181   3.429   3.503  0.00  0.00    +0.170 HD
ATOM     13  C   UNL     1       1.357   3.312   2.442  0.00  0.00    +0.330 A 
ATOM     14  O   UNL     1       0.867   2.596   3.294  0.00  0.00    -0.246 OA
ENDBRANCH   1   2
BRANCH   1  15
ATOM     15  C   UNL     1      -1.562   3.600   2.446  0.00  0.00    +0.240 C 
ATOM     16  O   UNL     1      -1.046   4.298   3.294  0.00  0.00    -0.273 OA
ATOM     17  N   UNL     1      -2.859   3.250   2.560  0.00  0.00    -0.281 N 
ATOM     18  H   UNL     1      -3.347   2.680   1.756  0.00  0.00    +0.155 HD
BRANCH  17  19
ATOM     19  C   UNL     1      -3.584   3.612   3.702  0.00  0.00    +0.069 A 
ATOM     20  C   UNL     1      -3.326   4.820   4.336  0.00  0.00    +0.027 A 
ATOM     21  C   UNL     1      -4.043   5.175   5.462  0.00  0.00    +0.017 A 
ATOM     22  C   UNL     1      -5.018   4.329   5.960  0.00  0.00    +0.021 A 
ATOM     23  C   UNL     1      -5.279   3.124   5.331  0.00  0.00    +0.055 A 
ATOM     24  C   UNL     1      -4.568   2.765   4.200  0.00  0.00    +0.146 A 
ATOM     25  F   UNL     1      -4.826   1.592   3.583  0.00  0.00    -0.204 F 
ATOM     26 BR   UNL     1      -5.997   4.819   7.502  0.00  0.00    -0.050 Br
ENDBRANCH  17  19
ENDBRANCH   1  15
BRANCH   1  28
ATOM     27  C   UNL     1      -0.013   1.113  -0.016  0.00  0.00    +0.006 C 
ATOM     28  C   UNL     1      -0.727   1.596   1.248  0.00  0.00    +0.031 C 
ENDBRANCH   1  28
TORSDOF 4
