REMARK  Name = ZINC64707623
REMARK  10 active torsions:
REMARK  status: ('A' for Active; 'I' for Inactive)
REMARK    1  A    between atoms: C_1  and  C_2
REMARK    2  A    between atoms: C_2  and  C_3
REMARK    3  A    between atoms: C_3  and  C_33
REMARK    4  A    between atoms: N_6  and  C_10
REMARK    5  A    between atoms: C_10  and  C_11
REMARK    6  A    between atoms: N_13  and  C_14
REMARK    7  A    between atoms: C_14  and  C_15
REMARK    8  A    between atoms: C_15  and  C_17
REMARK    9  A    between atoms: C_15  and  C_24
REMARK   10  A    between atoms: C_33  and  C_34
REMARK                            x       y       z     vdW  Elec       q    Type
REMARK                         _______ _______ _______ _____ _____    ______ ____
ROOT
ATOM      1  C   UNL     1       6.202   0.130  -5.123  0.00  0.00    +0.116 C 
ENDROOT
BRANCH   1   4
ATOM      2  C   UNL     1       4.250   0.572  -3.732  0.00  0.00    +0.231 C 
ATOM      3  O   UNL     1       3.851  -0.544  -3.988  0.00  0.00    -0.274 OA
ATOM      4  N   UNL     1       5.416   1.006  -4.250  0.00  0.00    -0.313 N 
ATOM      5  H   UNL     1       5.735   1.899  -4.045  0.00  0.00    +0.149 HD
BRANCH   2   6
ATOM      6  C   UNL     1       3.442   1.474  -2.834  0.00  0.00    +0.213 C 
BRANCH   6  10
ATOM      7  C   UNL     1       0.718  -0.497  -1.257  0.00  0.00    +0.112 C 
ATOM      8  C   UNL     1       2.144   0.016  -1.295  0.00  0.00    +0.247 C 
ATOM      9  O   UNL     1       3.025  -0.210  -0.494  0.00  0.00    -0.273 OA
ATOM     10  N   UNL     1       2.228   0.775  -2.405  0.00  0.00    -0.215 N 
ATOM     11  C   UNL     1       1.066   0.812  -3.067  0.00  0.00    +0.310 C 
ATOM     12  O   UNL     1       0.895   1.432  -4.099  0.00  0.00    -0.252 OA
ATOM     13  N   UNL     1       0.107   0.087  -2.463  0.00  0.00    -0.285 N 
ATOM     14  H   UNL     1      -0.807  -0.029  -2.764  0.00  0.00    +0.151 HD
BRANCH   7  16
ATOM     15  C   UNL     1      -0.019   1.526   0.010  0.00  0.00    +0.006 C 
ATOM     16  C   UNL     1       0.002  -0.004   0.002  0.00  0.00    +0.032 C 
ENDBRANCH   7  16
BRANCH   7  17
ATOM     17  C   UNL     1       0.691  -2.026  -1.326  0.00  0.00    +0.032 C 
ATOM     18  C   UNL     1       1.412  -2.492  -2.592  0.00  0.00    +0.006 C 
ENDBRANCH   7  17
ENDBRANCH   6  10
ENDBRANCH   2   6
ENDBRANCH   1   4
BRANCH   1  19
ATOM     19  C   UNL     1       7.470   0.859  -5.571  0.00  0.00    +0.066 C 
BRANCH  19  20
ATOM     20  C   UNL     1       8.216   0.006  -6.564  0.00  0.00    -0.033 C 
ATOM     21  C   UNL     1       8.527   0.328  -7.840  0.00  0.00    -0.000 A 
ATOM     22  C   UNL     1       8.272   1.522  -8.655  0.00  0.00    +0.010 A 
ATOM     23  C   UNL     1       8.716   1.552  -9.932  0.00  0.00    +0.001 A 
ATOM     24  C   UNL     1       9.411   0.473 -10.496  0.00  0.00    +0.002 A 
ATOM     25  C   UNL     1       9.683  -0.657  -9.811  0.00  0.00    +0.026 A 
ATOM     26  C   UNL     1       9.263  -0.797  -8.459  0.00  0.00    +0.043 A 
ATOM     27  N   UNL     1       9.402  -1.776  -7.599  0.00  0.00    -0.380 N 
ATOM     28  C   UNL     1       8.774  -1.380  -6.333  0.00  0.00    +0.145 C 
ATOM     29  H   UNL     1       9.849  -2.620  -7.769  0.00  0.00    +0.160 HD
ENDBRANCH  19  20
BRANCH  19  30
ATOM     30  C   UNL     1       8.348   1.122  -4.374  0.00  0.00    -0.020 A 
ATOM     31  C   UNL     1       8.825   0.065  -3.622  0.00  0.00    +0.006 A 
ATOM     32  C   UNL     1       9.630   0.305  -2.525  0.00  0.00    +0.000 A 
ATOM     33  C   UNL     1       9.959   1.603  -2.179  0.00  0.00    +0.001 A 
ATOM     34  C   UNL     1       9.483   2.660  -2.930  0.00  0.00    +0.020 A 
ATOM     35  C   UNL     1       8.681   2.420  -4.032  0.00  0.00    +0.045 A 
ATOM     36 CL   UNL     1       8.088   3.747  -4.980  0.00  0.00    -0.083 Cl
ENDBRANCH  19  30
ENDBRANCH   1  19
TORSDOF 8
