REMARK  Name = ZINC01431814
REMARK  7 active torsions:
REMARK  status: ('A' for Active; 'I' for Inactive)
REMARK    1  A    between atoms: C_1  and  C_2
REMARK    2  A    between atoms: C_2  and  O_22
REMARK    3  A    between atoms: C_3  and  C_20
REMARK    4  A    between atoms: C_3  and  C_21
REMARK    5  A    between atoms: N_7  and  C_8
REMARK    6  A    between atoms: C_8  and  C_9
REMARK    7  A    between atoms: C_9  and  C_10
REMARK                            x       y       z     vdW  Elec       q    Type
REMARK                         _______ _______ _______ _____ _____    ______ ____
ROOT
ATOM      1  C   UNL     1       2.126  -0.558   1.437  0.00  0.00    +0.119 C 
ENDROOT
BRANCH   1   8
ATOM      2  C   UNL     1      -0.019   1.526   0.010  0.00  0.00    +0.068 C 
ATOM      3  C   UNL     1       0.002  -0.004   0.002  0.00  0.00    +0.174 C 
ATOM      4  C   UNL     1      -1.427  -0.575   0.158  0.00  0.00    +0.155 C 
ATOM      5  O   UNL     1      -1.514  -0.783   1.581  0.00  0.00    -0.440 OA
ATOM      6  C   UNL     1      -0.269  -0.971   2.050  0.00  0.00    +0.406 C 
ATOM      7  O   UNL     1      -0.026  -1.487   3.123  0.00  0.00    -0.226 OA
ATOM      8  N   UNL     1       0.680  -0.527   1.205  0.00  0.00    -0.235 N 
ATOM      9  C   UNL     1      -1.573  -1.898  -0.598  0.00  0.00    +0.060 C 
ATOM     10  C   UNL     1      -2.474   0.437  -0.311  0.00  0.00    +0.060 C 
BRANCH   3  11
ATOM     11  O   UNL     1       0.624  -0.496  -1.187  0.00  0.00    -0.368 OA
ATOM     12  H   UNL     1       1.537  -0.200  -1.304  0.00  0.00    +0.212 HD
ENDBRANCH   3  11
ENDBRANCH   1   8
BRANCH   1  13
ATOM     13  C   UNL     1       2.560   0.738   2.125  0.00  0.00    +0.056 C 
BRANCH  13  14
ATOM     14  C   UNL     1       4.048   0.706   2.363  0.00  0.00    -0.021 A 
ATOM     15  C   UNL     1       5.091   1.091   1.410  0.00  0.00    +0.004 A 
ATOM     16  C   UNL     1       5.078   1.569   0.098  0.00  0.00    +0.030 A 
ATOM     17  C   UNL     1       6.268   1.845  -0.538  0.00  0.00    +0.042 A 
ATOM     18  C   UNL     1       7.477   1.650   0.118  0.00  0.00    +0.022 A 
ATOM     19  C   UNL     1       7.506   1.180   1.412  0.00  0.00    +0.027 A 
ATOM     20  C   UNL     1       6.316   0.895   2.074  0.00  0.00    +0.047 A 
ATOM     21  N   UNL     1       6.023   0.425   3.336  0.00  0.00    -0.360 N 
ATOM     22  C   UNL     1       4.668   0.325   3.491  0.00  0.00    +0.087 A 
ATOM     23 CL   UNL     1       6.257   2.438  -2.170  0.00  0.00    -0.084 Cl
ATOM     24  H   UNL     1       6.680   0.203   4.014  0.00  0.00    +0.165 HD
ENDBRANCH  13  14
ENDBRANCH   1  13
TORSDOF 4
