REMARK  Name = ZINC09113437
REMARK  8 active torsions:
REMARK  status: ('A' for Active; 'I' for Inactive)
REMARK    1  A    between atoms: C_4  and  C_7
REMARK    2  A    between atoms: C_7  and  O_8
REMARK    3  A    between atoms: O_8  and  C_9
REMARK    4  A    between atoms: C_18  and  C_30
REMARK    5  A    between atoms: C_20  and  C_26
REMARK    6  A    between atoms: C_20  and  C_28
REMARK    7  A    between atoms: C_21  and  N_25
REMARK    8  A    between atoms: C_22  and  C_23
REMARK                            x       y       z     vdW  Elec       q    Type
REMARK                         _______ _______ _______ _____ _____    ______ ____
ROOT
ATOM      1  C   UNL     1       0.599   2.536   0.192  0.00  0.00    +0.403 C 
ATOM      2  O   UNL     1       1.539   1.802  -0.042  0.00  0.00    -0.226 OA
ATOM      3  N   UNL     1       0.793   3.865   0.304  0.00  0.00    -0.263 N 
ATOM      4  C   UNL     1      -0.324   4.784   0.586  0.00  0.00    +0.138 C 
ATOM      5  C   UNL     1       0.042   5.561   1.825  0.00  0.00    -0.003 C 
ATOM      6  C   UNL     1       1.300   5.776   2.153  0.00  0.00    -0.026 C 
ATOM      7  C   UNL     1       2.477   5.328   1.337  0.00  0.00    +0.048 C 
ATOM      8  C   UNL     1       2.127   4.458   0.157  0.00  0.00    +0.120 C 
ATOM      9  C   UNL     1       3.478   4.644   2.270  0.00  0.00    +0.068 C 
ATOM     10  C   UNL     1       3.984   5.666   3.288  0.00  0.00    +0.188 C 
ATOM     11  C   UNL     1       2.853   6.388   3.955  0.00  0.00    +0.054 C 
ATOM     12  C   UNL     1       1.600   6.461   3.439  0.00  0.00    +0.074 C 
ENDROOT
BRANCH   9  13
ATOM     13  C   UNL     1       2.801   3.505   2.988  0.00  0.00    -0.041 A 
ATOM     14  C   UNL     1       2.060   3.750   4.129  0.00  0.00    +0.007 A 
ATOM     15  C   UNL     1       1.435   2.707   4.786  0.00  0.00    +0.038 A 
ATOM     16  C   UNL     1       1.560   1.414   4.307  0.00  0.00    +0.123 A 
ATOM     17  C   UNL     1       2.306   1.169   3.167  0.00  0.00    +0.038 A 
ATOM     18  C   UNL     1       2.926   2.214   2.509  0.00  0.00    +0.007 A 
ATOM     19  F   UNL     1       0.953   0.393   4.950  0.00  0.00    -0.205 F 
ENDBRANCH   9  13
BRANCH  11  20
ATOM     20  N   UNL     1       3.096   7.008   5.149  0.00  0.00    -0.358 N 
ATOM     21  H   UNL     1       2.287   7.547   5.664  0.00  0.00    +0.142 HD
ATOM     22  H   UNL     1       4.101   6.967   5.595  0.00  0.00    +0.142 HD
ENDBRANCH  11  20
BRANCH  12  23
ATOM     23  C   UNL     1       0.577   7.191   4.125  0.00  0.00    +0.101 C 
ATOM     24  N   UNL     1      -0.235   7.770   4.669  0.00  0.00    -0.191 NA
ENDBRANCH  12  23
BRANCH  10  25
ATOM     25  C   UNL     1       4.779   4.970   4.313  0.00  0.00    +0.091 C 
ATOM     26  N   UNL     1       5.394   4.433   5.103  0.00  0.00    -0.194 NA
ENDBRANCH  10  25
BRANCH  10  27
ATOM     27  C   UNL     1       4.841   6.645   2.601  0.00  0.00    +0.091 C 
ATOM     28  N   UNL     1       5.502   7.401   2.070  0.00  0.00    -0.194 NA
ENDBRANCH  10  27
BRANCH   1  29
ATOM     29  O   UNL     1      -0.637   2.022   0.337  0.00  0.00    -0.445 OA
BRANCH  29  30
ATOM     30  C   UNL     1      -0.772   0.583   0.203  0.00  0.00    +0.269 C 
BRANCH  30  34
ATOM     31  C   UNL     1      -4.862  -0.521   0.751  0.00  0.00    +0.000 A 
ATOM     32  C   UNL     1      -4.392  -0.215  -0.513  0.00  0.00    +0.000 A 
ATOM     33  C   UNL     1      -3.069   0.142  -0.690  0.00  0.00    +0.007 A 
ATOM     34  C   UNL     1      -2.215   0.193   0.396  0.00  0.00    -0.010 A 
ATOM     35  C   UNL     1      -2.684  -0.118   1.659  0.00  0.00    +0.007 A 
ATOM     36  C   UNL     1      -4.009  -0.470   1.837  0.00  0.00    +0.000 A 
ENDBRANCH  30  34
ENDBRANCH  29  30
ENDBRANCH   1  29
TORSDOF 8
