REMARK  Name = ZINC09338704
REMARK  14 active torsions:
REMARK  status: ('A' for Active; 'I' for Inactive)
REMARK    1  A    between atoms: C_1  and  C_2
REMARK    2  A    between atoms: C_3  and  C_34
REMARK    3  A    between atoms: C_4  and  C_33
REMARK    4  A    between atoms: C_7  and  C_8
REMARK    5  A    between atoms: C_8  and  C_10
REMARK    6  A    between atoms: C_10  and  C_12
REMARK    7  A    between atoms: C_10  and  S_13
REMARK    8  A    between atoms: S_13  and  C_14
REMARK    9  A    between atoms: C_17  and  C_25
REMARK   10  A    between atoms: N_18  and  C_19
REMARK   11  A    between atoms: C_25  and  C_27
REMARK   12  A    between atoms: C_25  and  N_68
REMARK   13  A    between atoms: C_34  and  O_36
REMARK   14  A    between atoms: O_36  and  C_37
REMARK                            x       y       z     vdW  Elec       q    Type
REMARK                         _______ _______ _______ _____ _____    ______ ____
ROOT
ATOM      1  C   UNL     1      -0.901   3.832  -1.122  0.00  0.00    +0.197 A 
ATOM      2  N   UNL     1      -0.392   4.426  -0.068  0.00  0.00    -0.122 NA
ATOM      3  N   UNL     1      -0.573   5.696  -0.150  0.00  0.00    -0.135 NA
ATOM      4  C   UNL     1      -1.211   5.988  -1.248  0.00  0.00    +0.125 A 
ATOM      5  N   UNL     1      -1.444   4.811  -1.909  0.00  0.00    -0.275 N 
ENDROOT
BRANCH   5   6
ATOM      6  C   UNL     1      -2.102   4.644  -3.136  0.00  0.00    +0.050 A 
ATOM      7  C   UNL     1      -1.553   5.173  -4.297  0.00  0.00    +0.026 A 
ATOM      8  C   UNL     1      -2.200   5.001  -5.505  0.00  0.00    +0.002 A 
ATOM      9  C   UNL     1      -3.399   4.314  -5.558  0.00  0.00    +0.000 A 
ATOM     10  C   UNL     1      -3.950   3.791  -4.403  0.00  0.00    +0.002 A 
ATOM     11  C   UNL     1      -3.305   3.954  -3.192  0.00  0.00    +0.026 A 
ENDBRANCH   5   6
BRANCH   4  12
ATOM     12  C   UNL     1      -1.616   7.365  -1.707  0.00  0.00    -0.002 C 
ATOM     13  C   UNL     1      -0.385   8.113  -2.224  0.00  0.00    -0.005 C 
BRANCH  12  19
ATOM     14  C   UNL     1      -3.326   7.365   0.007  0.00  0.00    -0.078 C 
ATOM     15  C   UNL     1      -3.815   8.091   1.262  0.00  0.00    -0.019 C 
ATOM     16  C   UNL     1      -4.252   9.510   0.888  0.00  0.00    -0.004 C 
ATOM     17  C   UNL     1      -3.076  10.242   0.235  0.00  0.00    -0.019 C 
ATOM     18  C   UNL     1      -2.608   9.454  -0.991  0.00  0.00    -0.078 C 
ATOM     19  N   UNL     1      -2.179   8.106  -0.559  0.00  0.00    +0.386 N 
ATOM     20  H   UNL     1      -1.455   8.203   0.163  0.00  0.00    -0.081 HD
ENDBRANCH  12  19
ENDBRANCH   4  12
BRANCH   1  21
ATOM     21  S   UNL     1      -0.894   2.102  -1.456  0.00  0.00    -0.074 S 
BRANCH  21  22
ATOM     22  C   UNL     1      -0.018   1.503   0.010  0.00  0.00    +0.124 C 
ATOM     23  C   UNL     1       1.417   2.032  -0.001  0.00  0.00    +0.028 C 
BRANCH  22  24
ATOM     24  C   UNL     1       0.002  -0.004   0.002  0.00  0.00    +0.192 C 
ATOM     25  O   UNL     1      -0.091  -0.607  -1.048  0.00  0.00    -0.289 OA
BRANCH  24  32
ATOM     26  C   UNL     1       0.070  -3.103   0.243  0.00  0.00    +0.047 C 
ATOM     27  C   UNL     1       0.163  -2.088   1.354  0.00  0.00    -0.008 A 
ATOM     28  C   UNL     1       0.300  -2.359   2.732  0.00  0.00    +0.083 A 
ATOM     29  C   UNL     1       0.346  -1.140   3.386  0.00  0.00    +0.028 A 
ATOM     30  N   UNL     1       0.250  -0.160   2.475  0.00  0.00    -0.355 N 
ATOM     31  H   UNL     1       0.261   0.790   2.670  0.00  0.00    +0.166 HD
ATOM     32  C   UNL     1       0.130  -0.717   1.218  0.00  0.00    +0.087 A 
ATOM     33  C   UNL     1       0.488  -0.946   4.874  0.00  0.00    +0.064 C 
BRANCH  28  34
ATOM     34  C   UNL     1       0.380  -3.690   3.357  0.00  0.00    +0.341 C 
ATOM     35  O   UNL     1       1.460  -4.225   3.513  0.00  0.00    -0.245 OA
BRANCH  34  36
ATOM     36  O   UNL     1      -0.746  -4.316   3.756  0.00  0.00    -0.464 OA
ATOM     37  C   UNL     1      -0.592  -5.625   4.364  0.00  0.00    +0.280 C 
ENDBRANCH  34  36
ENDBRANCH  28  34
ENDBRANCH  24  32
ENDBRANCH  22  24
ENDBRANCH  21  22
ENDBRANCH   1  21
TORSDOF 9
