REMARK  Name = ZINC08452796
REMARK  4 active torsions:
REMARK  status: ('A' for Active; 'I' for Inactive)
REMARK    1  A    between atoms: C_5  and  C_7
REMARK    2  A    between atoms: C_7  and  S_8
REMARK    3  A    between atoms: S_8  and  C_9
REMARK    4  A    between atoms: C_22  and  C_25
REMARK                            x       y       z     vdW  Elec       q    Type
REMARK                         _______ _______ _______ _____ _____    ______ ____
ROOT
ATOM      1  C   UNL     1       2.442   1.335  -0.085  0.00  0.00    +0.213 A 
ATOM      2  N   UNL     1       2.505   0.007  -0.115  0.00  0.00    -0.184 NA
ATOM      3  C   UNL     1       1.389  -0.695  -0.018  0.00  0.00    +0.248 A 
ATOM      4  C   UNL     1       0.162  -0.006   0.111  0.00  0.00    +0.156 A 
ATOM      5  N   UNL     1       0.169   1.318   0.136  0.00  0.00    -0.141 NA
ATOM      6  N   UNL     1       1.280   1.963   0.040  0.00  0.00    -0.122 NA
ATOM      7  C   UNL     1      -1.099  -0.771   0.210  0.00  0.00    +0.028 A 
ATOM      8  C   UNL     1      -2.052  -0.483   1.179  0.00  0.00    +0.012 A 
ATOM      9  C   UNL     1      -3.225  -1.210   1.225  0.00  0.00    +0.001 A 
ATOM     10  C   UNL     1      -3.458  -2.223   0.311  0.00  0.00    +0.002 A 
ATOM     11  C   UNL     1      -2.515  -2.525  -0.654  0.00  0.00    +0.024 A 
ATOM     12  C   UNL     1      -1.331  -1.812  -0.708  0.00  0.00    +0.039 A 
ATOM     13  N   UNL     1      -0.348  -2.104  -1.658  0.00  0.00    -0.305 N 
ATOM     14  C   UNL     1       0.909  -2.693  -1.206  0.00  0.00    +0.295 C 
ATOM     15  O   UNL     1       1.404  -2.049  -0.037  0.00  0.00    -0.449 OA
ATOM     16  H   UNL     1      -0.498  -1.920  -2.598  0.00  0.00    +0.150 HD
ENDROOT
BRANCH  14  17
ATOM     17  C   UNL     1       0.688  -4.153  -0.907  0.00  0.00    +0.033 A 
ATOM     18  C   UNL     1       0.453  -4.563   0.393  0.00  0.00    +0.060 A 
ATOM     19  C   UNL     1       0.245  -5.904   0.670  0.00  0.00    +0.167 A 
ATOM     20  C   UNL     1       0.284  -6.839  -0.361  0.00  0.00    +0.168 A 
ATOM     21  C   UNL     1       0.524  -6.423  -1.660  0.00  0.00    +0.070 A 
ATOM     22  C   UNL     1       0.726  -5.082  -1.931  0.00  0.00    +0.053 A 
ATOM     23 CL   UNL     1       1.028  -4.563  -3.560  0.00  0.00    -0.083 Cl
ATOM     24  O   UNL     1       0.058  -8.078   0.166  0.00  0.00    -0.453 OA
ATOM     25  C   UNL     1       0.287  -7.943   1.581  0.00  0.00    +0.466 C 
ATOM     26  O   UNL     1      -0.004  -6.557   1.843  0.00  0.00    -0.453 OA
ENDBRANCH  14  17
BRANCH   1  27
ATOM     27  S   UNL     1       3.926   2.276  -0.214  0.00  0.00    -0.080 S 
BRANCH  27  28
ATOM     28  C   UNL     1       3.246   3.951  -0.117  0.00  0.00    +0.114 C 
BRANCH  28  33
ATOM     29  C   UNL     1       6.024   6.315   0.855  0.00  0.00    +0.000 A 
ATOM     30  C   UNL     1       6.423   6.797  -0.378  0.00  0.00    +0.001 A 
ATOM     31  C   UNL     1       5.793   6.358  -1.527  0.00  0.00    +0.020 A 
ATOM     32  C   UNL     1       4.764   5.436  -1.444  0.00  0.00    +0.045 A 
ATOM     33  C   UNL     1       4.367   4.954  -0.209  0.00  0.00    -0.019 A 
ATOM     34  C   UNL     1       4.994   5.398   0.940  0.00  0.00    +0.006 A 
ATOM     35 CL   UNL     1       3.973   4.885  -2.887  0.00  0.00    -0.083 Cl
ENDBRANCH  28  33
ENDBRANCH  27  28
ENDBRANCH   1  27
TORSDOF 4
