REMARK  Name = ZINC50388754
REMARK  7 active torsions:
REMARK  status: ('A' for Active; 'I' for Inactive)
REMARK    1  A    between atoms: C_1  and  C_2
REMARK    2  A    between atoms: C_2  and  C_4
REMARK    3  A    between atoms: C_2  and  N_9
REMARK    4  A    between atoms: C_4  and  C_5
REMARK    5  A    between atoms: N_6  and  O_7
REMARK    6  A    between atoms: C_10  and  C_12
REMARK    7  A    between atoms: C_17  and  O_18
REMARK                            x       y       z     vdW  Elec       q    Type
REMARK                         _______ _______ _______ _____ _____    ______ ____
ROOT
ATOM      1  N   UNL     1      -1.372  -0.511   0.012  0.00  0.00    -0.308 N 
ATOM      2  C   UNL     1      -2.051  -0.643  -1.145  0.00  0.00    +0.248 C 
ATOM      3  O   UNL     1      -1.522  -0.341  -2.197  0.00  0.00    -0.270 OA
ATOM      4  H   UNL     1      -1.794  -0.752   0.852  0.00  0.00    +0.149 HD
ENDROOT
BRANCH   2   5
ATOM      5  C   UNL     1      -3.435  -1.153  -1.134  0.00  0.00    +0.078 A 
ATOM      6  C   UNL     1      -4.048  -1.496   0.073  0.00  0.00    +0.017 A 
ATOM      7  C   UNL     1      -5.341  -1.972   0.076  0.00  0.00    +0.001 A 
ATOM      8  C   UNL     1      -6.037  -2.113  -1.113  0.00  0.00    +0.004 A 
ATOM      9  C   UNL     1      -5.443  -1.778  -2.314  0.00  0.00    +0.046 A 
ATOM     10  C   UNL     1      -4.144  -1.292  -2.335  0.00  0.00    +0.129 A 
BRANCH  10  11
ATOM     11  O   UNL     1      -3.561  -0.957  -3.513  0.00  0.00    -0.506 OA
ATOM     12  H   UNL     1      -3.088  -1.685  -3.939  0.00  0.00    +0.292 HD
ENDBRANCH  10  11
ENDBRANCH   2   5
BRANCH   1  14
ATOM     13  C   UNL     1      -0.019   1.526   0.010  0.00  0.00    +0.028 C 
ATOM     14  C   UNL     1       0.002  -0.004   0.002  0.00  0.00    +0.077 C 
BRANCH  14  15
ATOM     15  C   UNL     1       0.742  -0.511   1.242  0.00  0.00    +0.096 C 
BRANCH  15  16
ATOM     16  C   UNL     1       0.870  -2.011   1.172  0.00  0.00    +0.133 C 
ATOM     17  N   UNL     1       0.385  -2.654   0.162  0.00  0.00    -0.077 NA
ATOM     18  N   UNL     1       1.504  -2.696   2.184  0.00  0.00    -0.344 N 
ATOM     19  H   UNL     1       1.869  -2.212   2.942  0.00  0.00    +0.144 HD
ATOM     20  H   UNL     1       1.587  -3.661   2.140  0.00  0.00    +0.144 HD
BRANCH  17  21
ATOM     21  O   UNL     1       0.505  -4.064   0.097  0.00  0.00    -0.408 OA
ATOM     22  H   UNL     1       0.111  -4.456  -0.695  0.00  0.00    +0.328 HD
ENDBRANCH  17  21
ENDBRANCH  15  16
ENDBRANCH  14  15
ENDBRANCH   1  14
TORSDOF 6
