REMARK  Name = ZINC40515401
REMARK  5 active torsions:
REMARK  status: ('A' for Active; 'I' for Inactive)
REMARK    1  A    between atoms: C_1  and  C_2
REMARK    2  A    between atoms: C_4  and  C_20
REMARK    3  A    between atoms: C_7  and  C_8
REMARK    4  A    between atoms: N_9  and  O_10
REMARK    5  A    between atoms: C_17  and  C_19
REMARK                            x       y       z     vdW  Elec       q    Type
REMARK                         _______ _______ _______ _____ _____    ______ ____
ROOT
ATOM      1  C   UNL     1       0.107   1.573   0.116  0.00  0.00    +0.044 C 
ATOM      2  C   UNL     1       0.064   0.068   0.072  0.00  0.00    -0.035 A 
ATOM      3  C   UNL     1      -0.003  -0.605  -1.137  0.00  0.00    +0.025 A 
ATOM      4  C   UNL     1      -0.041  -1.987  -1.146  0.00  0.00    +0.015 A 
ATOM      5  N   UNL     1      -0.015  -2.678  -0.022  0.00  0.00    -0.346 N 
ATOM      6  C   UNL     1       0.048  -2.084   1.159  0.00  0.00    +0.110 A 
ATOM      7  C   UNL     1       0.096  -0.684   1.249  0.00  0.00    +0.059 A 
ATOM      8  N   UNL     1       0.073  -2.850   2.314  0.00  0.00    -0.313 N 
ATOM      9  C   UNL     1      -1.173  -3.183   3.018  0.00  0.00    +0.107 C 
ATOM     10  C   UNL     1      -1.244  -4.702   3.203  0.00  0.00    +0.019 C 
ATOM     11  C   UNL     1       0.025  -5.186   3.907  0.00  0.00    +0.003 C 
ATOM     12  C   UNL     1       1.246  -4.861   3.044  0.00  0.00    +0.022 C 
ATOM     13  C   UNL     1       1.345  -3.349   2.854  0.00  0.00    +0.072 C 
ATOM     14  C   UNL     1       2.478  -3.030   1.877  0.00  0.00    +0.028 C 
ATOM     15  C   UNL     1      -0.114  -2.717  -2.462  0.00  0.00    +0.063 C 
ATOM     16  H   UNL     1      -0.043  -3.646  -0.063  0.00  0.00    +0.167 HD
ENDROOT
BRANCH   7  17
ATOM     17  C   UNL     1       0.174  -0.017   2.566  0.00  0.00    +0.166 C 
ATOM     18  N   UNL     1      -0.915   0.229   3.236  0.00  0.00    -0.071 NA
ATOM     19  N   UNL     1       1.404   0.346   3.087  0.00  0.00    -0.340 N 
ATOM     20  H   UNL     1       2.216   0.163   2.587  0.00  0.00    +0.144 HD
ATOM     21  H   UNL     1       1.455   0.784   3.951  0.00  0.00    +0.144 HD
BRANCH  18  22
ATOM     22  O   UNL     1      -0.841   0.868   4.497  0.00  0.00    -0.408 OA
ATOM     23  H   UNL     1      -1.700   1.008   4.918  0.00  0.00    +0.328 HD
ENDBRANCH  18  22
ENDBRANCH   7  17
TORSDOF 2
