REMARK  Name = ZINC63491566
REMARK  4 active torsions:
REMARK  status: ('A' for Active; 'I' for Inactive)
REMARK    1  A    between atoms: C_1  and  C_2
REMARK    2  A    between atoms: C_9  and  C_13
REMARK    3  A    between atoms: C_13  and  S_14
REMARK    4  A    between atoms: S_14  and  C_15
REMARK                            x       y       z     vdW  Elec       q    Type
REMARK                         _______ _______ _______ _____ _____    ______ ____
ROOT
ATOM      1  C   UNL     1       0.482  -6.080   1.195  0.00  0.00    +0.123 C 
ENDROOT
BRANCH   1   9
ATOM      2  C   UNL     1      -0.018   1.503   0.010  0.00  0.00    +0.052 C 
ATOM      3  C   UNL     1       0.002  -0.004   0.002  0.00  0.00    -0.000 C 
ATOM      4  C   UNL     1      -1.031  -0.841   0.002  0.00  0.00    +0.091 C 
ATOM      5  N   UNL     1      -0.856  -2.210   0.053  0.00  0.00    -0.245 N 
ATOM      6  C   UNL     1       0.510  -2.648  -0.374  0.00  0.00    +0.230 C 
ATOM      7  S   UNL     1       1.422  -1.092  -0.018  0.00  0.00    -0.086 S 
ATOM      8  N   UNL     1       0.916  -3.703   0.564  0.00  0.00    -0.319 N 
ATOM      9  C   UNL     1       0.005  -4.697   0.834  0.00  0.00    +0.021 C 
ATOM     10  C   UNL     1      -1.317  -4.432   0.775  0.00  0.00    +0.087 C 
ATOM     11  C   UNL     1      -1.768  -3.132   0.457  0.00  0.00    +0.247 C 
ATOM     12  O   UNL     1      -2.954  -2.856   0.514  0.00  0.00    -0.270 OA
ATOM     13  H   UNL     1       1.793  -3.699   0.978  0.00  0.00    +0.148 HD
ENDBRANCH   1   9
BRANCH   1  14
ATOM     14  S   UNL     1       1.080  -6.922  -0.296  0.00  0.00    -0.109 S 
BRANCH  14  15
ATOM     15  C   UNL     1       1.610  -8.550   0.301  0.00  0.00    +0.236 C 
ATOM     16  N   UNL     1       0.495  -9.227   0.976  0.00  0.00    -0.355 N 
ATOM     17  C   UNL     1       0.856  -9.441   2.208  0.00  0.00    +0.061 A 
ATOM     18  C   UNL     1       0.181 -10.070   3.352  0.00  0.00    +0.027 A 
ATOM     19  C   UNL     1       0.818 -10.152   4.537  0.00  0.00    +0.002 A 
ATOM     20  C   UNL     1       2.119  -9.656   4.734  0.00  0.00    +0.002 A 
ATOM     21  C   UNL     1       2.827  -9.062   3.753  0.00  0.00    +0.027 A 
ATOM     22  C   UNL     1       2.233  -8.916   2.417  0.00  0.00    +0.061 A 
ATOM     23  N   UNL     1       2.670  -8.398   1.306  0.00  0.00    -0.355 N 
ATOM     24  H   UNL     1      -0.355  -9.470   0.576  0.00  0.00    +0.162 HD
ATOM     25  H   UNL     1       3.538  -7.987   1.167  0.00  0.00    +0.162 HD
ENDBRANCH  14  15
ENDBRANCH   1  14
TORSDOF 3
