REMARK  Name = ZINC58512993
REMARK  10 active torsions:
REMARK  status: ('A' for Active; 'I' for Inactive)
REMARK    1  A    between atoms: C_1  and  C_2
REMARK    2  A    between atoms: C_2  and  C_3
REMARK    3  A    between atoms: C_2  and  C_4
REMARK    4  A    between atoms: C_4  and  N_5
REMARK    5  A    between atoms: N_5  and  C_6
REMARK    6  A    between atoms: C_7  and  N_22
REMARK    7  A    between atoms: N_8  and  C_15
REMARK    8  A    between atoms: C_15  and  C_16
REMARK    9  A    between atoms: C_23  and  C_25
REMARK   10  A    between atoms: C_25  and  N_26
REMARK                            x       y       z     vdW  Elec       q    Type
REMARK                         _______ _______ _______ _____ _____    ______ ____
ROOT
ATOM      1  C   UNL     1      -0.948  -0.913   2.978  0.00  0.00    +0.140 A 
ATOM      2  C   UNL     1      -0.808  -1.228   4.314  0.00  0.00    +0.128 A 
ATOM      3  N   UNL     1      -1.700  -2.098   4.896  0.00  0.00    -0.276 N 
ATOM      4  C   UNL     1      -2.698  -2.636   4.172  0.00  0.00    +0.331 A 
ATOM      5  O   UNL     1      -3.476  -3.403   4.706  0.00  0.00    -0.246 OA
ATOM      6  N   UNL     1      -2.851  -2.340   2.869  0.00  0.00    -0.273 N 
ATOM      7  H   UNL     1      -3.579  -2.741   2.369  0.00  0.00    +0.173 HD
ATOM      8  C   UNL     1      -2.008  -1.490   2.252  0.00  0.00    +0.277 A 
ATOM      9  O   UNL     1      -2.159  -1.225   1.071  0.00  0.00    -0.266 OA
ENDROOT
BRANCH   1  10
ATOM     10  N   UNL     1      -0.049  -0.025   2.351  0.00  0.00    -0.263 N 
ATOM     11  C   UNL     1       0.008   1.265   2.743  0.00  0.00    +0.234 C 
ATOM     12  O   UNL     1      -0.654   1.642   3.687  0.00  0.00    -0.274 OA
BRANCH  10  13
ATOM     13  C   UNL     1       0.823  -0.503   1.275  0.00  0.00    +0.117 C 
BRANCH  13  15
ATOM     14  C   UNL     1       1.865  -2.256   2.719  0.00  0.00    +0.009 C 
ATOM     15  C   UNL     1       2.137  -1.011   1.871  0.00  0.00    +0.001 C 
ATOM     16  C   UNL     1       3.106  -1.365   0.742  0.00  0.00    +0.009 C 
ENDBRANCH  13  15
ENDBRANCH  10  13
BRANCH  11  17
ATOM     17  C   UNL     1       0.893   2.238   2.007  0.00  0.00    +0.181 C 
BRANCH  17  18
ATOM     18  N   UNL     1       0.887   3.530   2.706  0.00  0.00    -0.289 NA
ATOM     19  C   UNL     1       1.514   4.575   1.885  0.00  0.00    +0.090 C 
ATOM     20  C   UNL     1       1.125   5.951   2.452  0.00  0.00    +0.058 C 
ATOM     21  C   UNL     1       1.319   5.904   3.933  0.00  0.00    -0.005 A 
ATOM     22  C   UNL     1       1.502   4.789   4.694  0.00  0.00    -0.023 A 
ATOM     23  C   UNL     1       1.667   4.990   6.063  0.00  0.00    +0.013 A 
ATOM     24  C   UNL     1       1.637   6.244   6.571  0.00  0.00    +0.046 A 
ATOM     25  S   UNL     1       1.369   7.230   5.104  0.00  0.00    -0.101 S 
ATOM     26  C   UNL     1       1.516   3.416   4.028  0.00  0.00    +0.120 C 
ENDBRANCH  17  18
ENDBRANCH  11  17
ENDBRANCH   1  10
BRANCH   2  27
ATOM     27  N   UNL     1       0.212  -0.679   5.053  0.00  0.00    -0.343 N 
ATOM     28  H   UNL     1       0.801  -0.020   4.654  0.00  0.00    +0.144 HD
ATOM     29  H   UNL     1       0.344  -0.952   5.975  0.00  0.00    +0.144 HD
ENDBRANCH   2  27
BRANCH   3  30
ATOM     30  C   UNL     1      -1.562  -2.441   6.314  0.00  0.00    +0.163 C 
BRANCH  30  31
ATOM     31  C   UNL     1      -2.354  -1.465   7.146  0.00  0.00    -0.028 A 
ATOM     32  C   UNL     1      -1.760  -0.303   7.602  0.00  0.00    +0.005 A 
ATOM     33  C   UNL     1      -2.487   0.591   8.365  0.00  0.00    +0.000 A 
ATOM     34  C   UNL     1      -3.808   0.325   8.672  0.00  0.00    +0.000 A 
ATOM     35  C   UNL     1      -4.402  -0.837   8.215  0.00  0.00    +0.000 A 
ATOM     36  C   UNL     1      -3.677  -1.730   7.449  0.00  0.00    +0.005 A 
ENDBRANCH  30  31
ENDBRANCH   3  30
TORSDOF 8
