REMARK  Name = ZINC49573569
REMARK  9 active torsions:
REMARK  status: ('A' for Active; 'I' for Inactive)
REMARK    1  A    between atoms: C_1  and  C_2
REMARK    2  A    between atoms: C_2  and  C_3
REMARK    3  A    between atoms: C_2  and  C_4
REMARK    4  A    between atoms: C_10  and  C_11
REMARK    5  A    between atoms: C_13  and  O_27
REMARK    6  A    between atoms: C_14  and  O_18
REMARK    7  A    between atoms: O_18  and  C_19
REMARK    8  A    between atoms: C_19  and  C_20
REMARK    9  A    between atoms: O_27  and  C_28
REMARK                            x       y       z     vdW  Elec       q    Type
REMARK                         _______ _______ _______ _____ _____    ______ ____
ROOT
ATOM      1  C   UNL     1      -6.949  -4.468   1.751  0.00  0.00    -0.019 A 
ATOM      2  C   UNL     1      -7.542  -5.436   2.575  0.00  0.00    +0.057 A 
ATOM      3  C   UNL     1      -8.478  -6.303   2.050  0.00  0.00    +0.164 A 
ATOM      4  C   UNL     1      -8.834  -6.217   0.704  0.00  0.00    +0.181 A 
ATOM      5  C   UNL     1      -8.247  -5.259  -0.115  0.00  0.00    +0.087 A 
ATOM      6  C   UNL     1      -7.315  -4.384   0.400  0.00  0.00    +0.032 A 
ATOM      7 CL   UNL     1      -8.694  -5.159  -1.789  0.00  0.00    -0.080 Cl
ENDROOT
BRANCH   1  14
ATOM      8  C   UNL     1      -3.152  -3.085   7.489  0.00  0.00    +0.102 C 
ATOM      9  N   UNL     1      -3.465  -2.610   6.318  0.00  0.00    -0.169 NA
ATOM     10  N   UNL     1      -3.880  -3.439   5.298  0.00  0.00    -0.154 N 
ATOM     11  C   UNL     1      -4.156  -3.042   3.971  0.00  0.00    +0.132 C 
ATOM     12  N   UNL     1      -3.669  -1.956   3.431  0.00  0.00    -0.385 N 
ATOM     13  C   UNL     1      -5.057  -3.983   3.248  0.00  0.00    +0.079 C 
ATOM     14  C   UNL     1      -5.955  -3.544   2.301  0.00  0.00    +0.024 C 
ATOM     15  C   UNL     1      -4.934  -5.419   3.603  0.00  0.00    +0.273 C 
ATOM     16  O   UNL     1      -5.253  -6.291   2.811  0.00  0.00    -0.268 OA
ATOM     17  N   UNL     1      -4.459  -5.732   4.824  0.00  0.00    -0.152 NA
ATOM     18  C   UNL     1      -4.007  -4.778   5.599  0.00  0.00    +0.181 C 
ATOM     19  S   UNL     1      -3.421  -4.838   7.272  0.00  0.00    -0.038 S 
ATOM     20  H   UNL     1      -3.086  -1.378   3.947  0.00  0.00    +0.157 HD
ATOM     21  H   UNL     1      -3.890  -1.729   2.515  0.00  0.00    +0.157 HD
BRANCH   8  23
ATOM     22  C   UNL     1      -1.147  -2.359   8.756  0.00  0.00    +0.014 C 
ATOM     23  C   UNL     1      -2.677  -2.345   8.713  0.00  0.00    +0.040 C 
ATOM     24  C   UNL     1      -3.172  -0.898   8.659  0.00  0.00    +0.014 C 
ENDBRANCH   8  23
ENDBRANCH   1  14
BRANCH   3  25
ATOM     25  O   UNL     1      -9.055  -7.243   2.846  0.00  0.00    -0.491 OA
ATOM     26  C   UNL     1      -8.643  -7.275   4.214  0.00  0.00    +0.277 C 
ENDBRANCH   3  25
BRANCH   4  27
ATOM     27  O   UNL     1      -9.755  -7.072   0.191  0.00  0.00    -0.482 OA
BRANCH  27  28
ATOM     28  C   UNL     1     -11.123  -6.660   0.244  0.00  0.00    +0.264 C 
BRANCH  28  29
ATOM     29  C   UNL     1     -11.993  -7.728  -0.366  0.00  0.00    -0.010 A 
ATOM     30  C   UNL     1     -12.272  -7.702  -1.720  0.00  0.00    +0.010 A 
ATOM     31  C   UNL     1     -13.070  -8.681  -2.281  0.00  0.00    +0.039 A 
ATOM     32  C   UNL     1     -13.590  -9.689  -1.486  0.00  0.00    +0.123 A 
ATOM     33  C   UNL     1     -13.310  -9.714  -0.130  0.00  0.00    +0.039 A 
ATOM     34  C   UNL     1     -12.508  -8.736   0.427  0.00  0.00    +0.010 A 
ATOM     35  F   UNL     1     -14.370 -10.646  -2.033  0.00  0.00    -0.205 F 
ENDBRANCH  28  29
ENDBRANCH  27  28
ENDBRANCH   4  27
TORSDOF 6
