REMARK  Name = ZINC31581720
REMARK  7 active torsions:
REMARK  status: ('A' for Active; 'I' for Inactive)
REMARK    1  A    between atoms: C_1  and  C_2
REMARK    2  A    between atoms: C_8  and  N_10
REMARK    3  A    between atoms: C_11  and  C_13
REMARK    4  A    between atoms: C_13  and  C_15
REMARK    5  A    between atoms: C_13  and  N_16
REMARK    6  A    between atoms: N_19  and  S_22
REMARK    7  A    between atoms: S_22  and  C_25
REMARK                            x       y       z     vdW  Elec       q    Type
REMARK                         _______ _______ _______ _____ _____    ______ ____
ROOT
ATOM      1  N   UNL     1      -5.318   2.101   2.777  0.00  0.00    +0.389 N 
ATOM      2  C   UNL     1      -4.843   2.162   4.166  0.00  0.00    -0.060 C 
ATOM      3  C   UNL     1      -5.632   3.233   4.926  0.00  0.00    +0.091 C 
ATOM      4  N   UNL     1      -7.068   2.952   4.772  0.00  0.00    -0.180 NA
ATOM      5  C   UNL     1      -7.594   2.742   3.415  0.00  0.00    +0.091 C 
ATOM      6  C   UNL     1      -6.727   1.691   2.714  0.00  0.00    -0.060 C 
ATOM      7  H   UNL     1      -5.245   3.114   2.354  0.00  0.00    -0.081 HD
ENDROOT
BRANCH   4   8
ATOM      8  S   UNL     1      -8.065   2.874   6.092  0.00  0.00    +0.067 S 
ATOM      9  O   UNL     1      -7.442   3.637   7.117  0.00  0.00    -0.152 OA
ATOM     10  O   UNL     1      -9.378   3.153   5.626  0.00  0.00    -0.152 OA
BRANCH   8  11
ATOM     11  C   UNL     1      -8.070   1.200   6.643  0.00  0.00    +0.144 A 
ATOM     12  C   UNL     1      -7.251   0.593   7.536  0.00  0.00    +0.037 A 
ATOM     13  C   UNL     1      -7.446  -0.745   7.822  0.00  0.00    +0.025 A 
ATOM     14  C   UNL     1      -8.444  -1.414   7.192  0.00  0.00    +0.057 A 
ATOM     15  S   UNL     1      -9.151  -0.137   6.164  0.00  0.00    -0.062 S 
ATOM     16 BR   UNL     1      -8.953  -3.227   7.358  0.00  0.00    -0.043 Br
ENDBRANCH   8  11
ENDBRANCH   4   8
BRANCH   1  17
ATOM     17  C   UNL     1      -4.474   1.211   1.970  0.00  0.00    +0.016 C 
ATOM     18  C   UNL     1      -4.494  -0.196   2.572  0.00  0.00    -0.004 C 
BRANCH  17  20
ATOM     19  N   UNL     1      -2.103   1.072   1.277  0.00  0.00    -0.314 N 
ATOM     20  C   UNL     1      -3.060   1.732   1.959  0.00  0.00    +0.199 C 
ATOM     21  O   UNL     1      -2.783   2.746   2.565  0.00  0.00    -0.278 OA
ATOM     22  H   UNL     1      -2.354   0.153   0.728  0.00  0.00    +0.149 HD
BRANCH  19  29
ATOM     23  C   UNL     1      -0.753   1.593  -1.232  0.00  0.00    +0.009 C 
ATOM     24  C   UNL     1      -0.013   1.086   0.008  0.00  0.00    +0.006 C 
ATOM     25  C   UNL     1       1.423   1.615  -0.003  0.00  0.00    +0.005 C 
ATOM     26  C   UNL     1       2.163   1.109   1.237  0.00  0.00    +0.000 C 
ATOM     27  C   UNL     1       1.446   1.602   2.495  0.00  0.00    +0.002 C 
ATOM     28  C   UNL     1       0.011   1.072   2.506  0.00  0.00    +0.022 C 
ATOM     29  C   UNL     1      -0.729   1.579   1.267  0.00  0.00    +0.076 C 
ENDBRANCH  19  29
ENDBRANCH  17  20
ENDBRANCH   1  17
TORSDOF 5
