REMARK  Name = ZINC05977562
REMARK  8 active torsions:
REMARK  status: ('A' for Active; 'I' for Inactive)
REMARK    1  A    between atoms: C_1  and  C_2
REMARK    2  A    between atoms: C_5  and  C_21
REMARK    3  A    between atoms: C_6  and  C_7
REMARK    4  A    between atoms: C_6  and  C_8
REMARK    5  A    between atoms: N_23  and  C_24
REMARK    6  A    between atoms: C_24  and  C_25
REMARK    7  A    between atoms: C_25  and  O_26
REMARK    8  A    between atoms: O_26  and  C_27
REMARK                            x       y       z     vdW  Elec       q    Type
REMARK                         _______ _______ _______ _____ _____    ______ ____
ROOT
ATOM      1  C   UNL     1      -0.019   1.526   0.010  0.00  0.00    +0.018 C 
ATOM      2  C   UNL     1       0.002  -0.004   0.002  0.00  0.00    +0.018 C 
ATOM      3  C   UNL     1       0.742  -0.677  -1.197  0.00  0.00    +0.015 C 
ATOM      4  C   UNL     1       1.004  -2.123  -0.714  0.00  0.00    +0.024 C 
ATOM      5  C   UNL     1       0.393  -2.161   0.722  0.00  0.00    +0.096 C 
ATOM      6  C   UNL     1       0.727  -0.704   1.210  0.00  0.00    -0.005 C 
ATOM      7  C   UNL     1       2.234  -0.443   1.214  0.00  0.00    +0.013 C 
ATOM      8  C   UNL     1       0.082  -0.359   2.554  0.00  0.00    +0.013 C 
ATOM      9  C   UNL     1      -1.115  -2.027   0.495  0.00  0.00    +0.079 A 
ATOM     10  C   UNL     1      -1.360  -0.699   0.069  0.00  0.00    +0.071 A 
ATOM     11  N   UNL     1      -2.569  -0.283  -0.203  0.00  0.00    -0.248 NA
ATOM     12  C   UNL     1      -3.604  -1.119  -0.051  0.00  0.00    +0.091 A 
ATOM     13  C   UNL     1      -4.917  -0.704  -0.333  0.00  0.00    +0.051 A 
ATOM     14  C   UNL     1      -5.950  -1.575  -0.168  0.00  0.00    +0.061 A 
ATOM     15  C   UNL     1      -5.726  -2.879   0.277  0.00  0.00    +0.061 A 
ATOM     16  C   UNL     1      -4.467  -3.316   0.558  0.00  0.00    +0.051 A 
ATOM     17  C   UNL     1      -3.376  -2.444   0.400  0.00  0.00    +0.091 A 
ATOM     18  N   UNL     1      -2.100  -2.874   0.637  0.00  0.00    -0.247 NA
ATOM     19 CL   UNL     1      -7.071  -3.959   0.476  0.00  0.00    -0.082 Cl
ATOM     20 CL   UNL     1      -7.570  -1.056  -0.517  0.00  0.00    -0.082 Cl
ENDROOT
BRANCH   5  21
ATOM     21  C   UNL     1       0.849  -3.290   1.610  0.00  0.00    +0.226 C 
ATOM     22  O   UNL     1       1.426  -3.049   2.650  0.00  0.00    -0.275 OA
ATOM     23  N   UNL     1       0.617  -4.567   1.249  0.00  0.00    -0.312 N 
ATOM     24  H   UNL     1       0.156  -4.761   0.418  0.00  0.00    +0.149 HD
BRANCH  23  25
ATOM     25  C   UNL     1       1.061  -5.665   2.113  0.00  0.00    +0.132 C 
BRANCH  25  26
ATOM     26  C   UNL     1       0.676  -7.002   1.476  0.00  0.00    +0.178 C 
BRANCH  26  27
ATOM     27  O   UNL     1       1.393  -7.170   0.252  0.00  0.00    -0.381 OA
ATOM     28  C   UNL     1       1.105  -8.395  -0.426  0.00  0.00    +0.194 C 
ENDBRANCH  26  27
ENDBRANCH  25  26
ENDBRANCH  23  25
ENDBRANCH   5  21
TORSDOF 4
