REMARK  Name = ZINC33937055
REMARK  13 active torsions:
REMARK  status: ('A' for Active; 'I' for Inactive)
REMARK    1  A    between atoms: C_1  and  C_2
REMARK    2  A    between atoms: C_2  and  C_3
REMARK    3  A    between atoms: C_3  and  C_5
REMARK    4  A    between atoms: C_3  and  N_17
REMARK    5  A    between atoms: N_9  and  C_10
REMARK    6  A    between atoms: C_10  and  C_11
REMARK    7  A    between atoms: N_17  and  C_18
REMARK    8  A    between atoms: N_17  and  C_26
REMARK    9  A    between atoms: C_18  and  C_19
REMARK   10  A    between atoms: C_19  and  C_20
REMARK   11  A    between atoms: C_26  and  C_27
REMARK   12  A    between atoms: C_30  and  C_40
REMARK   13  A    between atoms: C_32  and  C_39
REMARK                            x       y       z     vdW  Elec       q    Type
REMARK                         _______ _______ _______ _____ _____    ______ ____
ROOT
ATOM      1  N   UNL     1      -2.421  -0.333   1.328  0.00  0.00    +0.389 N 
ATOM      2  H   UNL     1      -1.836  -0.491   2.135  0.00  0.00    -0.080 HD
ENDROOT
BRANCH   1   3
ATOM      3  C   UNL     1      -1.712  -0.771   0.118  0.00  0.00    +0.003 C 
BRANCH   3   4
ATOM      4  C   UNL     1      -2.568  -0.497  -1.092  0.00  0.00    +0.138 A 
ATOM      5  N   UNL     1      -3.850  -0.742  -1.215  0.00  0.00    -0.115 NA
ATOM      6  N   UNL     1      -4.215  -0.368  -2.393  0.00  0.00    -0.023 NA
ATOM      7  N   UNL     1      -3.200   0.108  -3.024  0.00  0.00    -0.044 NA
ATOM      8  N   UNL     1      -2.166   0.051  -2.254  0.00  0.00    -0.228 N 
BRANCH   8   9
ATOM      9  C   UNL     1      -0.810   0.495  -2.583  0.00  0.00    +0.178 C 
BRANCH   9  10
ATOM     10  C   UNL     1      -0.032  -0.663  -3.211  0.00  0.00    +0.140 C 
ATOM     11  C   UNL     1       1.377  -0.189  -3.650  0.00  0.00    +0.035 C 
ATOM     12  C   UNL     1       2.160  -1.530  -3.623  0.00  0.00    +0.031 C 
ATOM     13  C   UNL     1       1.497  -2.273  -2.444  0.00  0.00    +0.160 C 
ATOM     14  O   UNL     1       0.203  -1.692  -2.237  0.00  0.00    -0.375 OA
ENDBRANCH   9  10
ENDBRANCH   8   9
ENDBRANCH   3   4
BRANCH   3  16
ATOM     15  C   UNL     1      -0.476  -2.537   1.381  0.00  0.00    +0.002 C 
ATOM     16  C   UNL     1      -1.424  -2.271   0.210  0.00  0.00    -0.011 C 
ENDBRANCH   3  16
ENDBRANCH   1   3
BRANCH   1  17
ATOM     17  C   UNL     1      -2.733   1.098   1.222  0.00  0.00    -0.073 C 
BRANCH  17  18
ATOM     18  C   UNL     1      -1.432   1.903   1.192  0.00  0.00    +0.016 C 
BRANCH  18  19
ATOM     19  C   UNL     1      -1.752   3.376   1.209  0.00  0.00    -0.049 A 
ATOM     20  C   UNL     1      -2.034   4.035   0.027  0.00  0.00    +0.003 A 
ATOM     21  C   UNL     1      -2.328   5.386   0.042  0.00  0.00    +0.000 A 
ATOM     22  C   UNL     1      -2.340   6.077   1.240  0.00  0.00    +0.000 A 
ATOM     23  C   UNL     1      -2.058   5.417   2.421  0.00  0.00    +0.000 A 
ATOM     24  C   UNL     1      -1.769   4.066   2.406  0.00  0.00    +0.003 A 
ENDBRANCH  18  19
ENDBRANCH  17  18
ENDBRANCH   1  17
BRANCH   1  25
ATOM     25  C   UNL     1      -3.667  -1.097   1.469  0.00  0.00    -0.037 C 
BRANCH  25  26
ATOM     26  C   UNL     1      -4.315  -0.762   2.788  0.00  0.00    +0.001 A 
ATOM     27  C   UNL     1      -5.292   0.176   2.841  0.00  0.00    +0.017 A 
ATOM     28  C   UNL     1      -5.902   0.478   4.138  0.00  0.00    +0.002 A 
ATOM     29  C   UNL     1      -6.914   1.437   4.256  0.00  0.00    -0.041 A 
ATOM     30  C   UNL     1      -7.462   1.695   5.480  0.00  0.00    +0.007 A 
ATOM     31  C   UNL     1      -7.024   1.015   6.608  0.00  0.00    -0.048 A 
ATOM     32  C   UNL     1      -6.028   0.067   6.516  0.00  0.00    +0.029 A 
ATOM     33  C   UNL     1      -5.455  -0.214   5.279  0.00  0.00    +0.050 A 
ATOM     34  N   UNL     1      -4.457  -1.157   5.157  0.00  0.00    -0.322 N 
ATOM     35  H   UNL     1      -4.151  -1.633   5.945  0.00  0.00    +0.169 HD
ATOM     36  C   UNL     1      -3.907  -1.432   3.961  0.00  0.00    +0.251 A 
ATOM     37  O   UNL     1      -3.031  -2.276   3.890  0.00  0.00    -0.268 OA
ATOM     38  C   UNL     1      -7.644   1.316   7.948  0.00  0.00    +0.044 C 
ATOM     39  C   UNL     1      -7.396   2.182   3.038  0.00  0.00    +0.044 C 
ENDBRANCH  25  26
ENDBRANCH   1  25
TORSDOF 10
