REMARK  Name = ZINC05205153
REMARK  6 active torsions:
REMARK  status: ('A' for Active; 'I' for Inactive)
REMARK    1  A    between atoms: C_1  and  C_2
REMARK    2  A    between atoms: C_4  and  C_35
REMARK    3  A    between atoms: C_13  and  C_16
REMARK    4  A    between atoms: C_16  and  C_18
REMARK    5  A    between atoms: C_16  and  O_19
REMARK    6  A    between atoms: N_22  and  C_25
REMARK                            x       y       z     vdW  Elec       q    Type
REMARK                         _______ _______ _______ _____ _____    ______ ____
ROOT
ATOM      1  C   UNL     1       0.279   1.669   0.221  0.00  0.00    +0.044 C 
ATOM      2  C   UNL     1       0.155   0.171   0.120  0.00  0.00    -0.050 A 
ATOM      3  C   UNL     1       0.085  -0.437  -1.121  0.00  0.00    +0.008 A 
ATOM      4  C   UNL     1      -0.028  -1.808  -1.220  0.00  0.00    -0.029 A 
ATOM      5  C   UNL     1      -0.072  -2.592  -0.070  0.00  0.00    +0.039 A 
ATOM      6  C   UNL     1      -0.001  -1.970   1.173  0.00  0.00    -0.027 A 
ATOM      7  C   UNL     1       0.117  -0.602   1.267  0.00  0.00    +0.008 A 
ATOM      8  C   UNL     1      -0.073  -3.074   2.190  0.00  0.00    +0.050 C 
ATOM      9  C   UNL     1       1.168  -3.091   3.091  0.00  0.00    +0.088 C 
ATOM     10  C   UNL     1       0.722  -2.349   4.382  0.00  0.00    +0.075 C 
ATOM     11  C   UNL     1      -0.740  -1.934   4.117  0.00  0.00    -0.028 C 
ATOM     12  N   UNL     1      -1.227  -2.905   3.092  0.00  0.00    +0.396 N 
ATOM     13  C   UNL     1       0.767  -3.430   5.438  0.00  0.00    +0.224 C 
ATOM     14  O   UNL     1       0.478  -3.281   6.606  0.00  0.00    -0.275 OA
ATOM     15  N   UNL     1       1.173  -4.578   4.883  0.00  0.00    -0.239 N 
ATOM     16  C   UNL     1       1.438  -4.503   3.558  0.00  0.00    +0.225 C 
ATOM     17  O   UNL     1       1.826  -5.411   2.855  0.00  0.00    -0.275 OA
ATOM     18  C   UNL     1      -0.186  -4.340   1.385  0.00  0.00    +0.211 C 
ATOM     19  O   UNL     1      -0.267  -5.470   1.819  0.00  0.00    -0.277 OA
ATOM     20  N   UNL     1      -0.181  -3.976   0.088  0.00  0.00    -0.286 N 
ATOM     21  C   UNL     1      -0.105  -2.459  -2.577  0.00  0.00    +0.045 C 
ATOM     22  H   UNL     1      -2.013  -2.519   2.592  0.00  0.00    -0.083 HD
ATOM     23  H   UNL     1      -0.245  -4.601  -0.650  0.00  0.00    +0.155 HD
ATOM     24  H   UNL     1      -1.475  -3.786   3.517  0.00  0.00    -0.083 HD
ENDROOT
BRANCH  15  25
ATOM     25  C   UNL     1       1.325  -5.818   5.648  0.00  0.00    +0.084 C 
ATOM     26  C   UNL     1      -0.052  -6.236   6.201  0.00  0.00    +0.023 C 
ATOM     27  C   UNL     1      -0.011  -7.705   6.526  0.00  0.00    +0.002 C 
ATOM     28  C   UNL     1       0.344  -7.973   8.001  0.00  0.00    +0.000 C 
ATOM     29  C   UNL     1       1.468  -7.056   8.521  0.00  0.00    +0.000 C 
ATOM     30  C   UNL     1       2.578  -6.882   7.520  0.00  0.00    +0.002 C 
ATOM     31  C   UNL     1       2.305  -5.603   6.702  0.00  0.00    +0.023 C 
ENDBRANCH  15  25
BRANCH  11  32
ATOM     32  C   UNL     1      -1.571  -2.067   5.395  0.00  0.00    +0.098 C 
ATOM     33  C   UNL     1      -1.088  -1.046   6.426  0.00  0.00    +0.036 C 
BRANCH  32  34
ATOM     34  O   UNL     1      -2.947  -1.826   5.095  0.00  0.00    -0.394 OA
ATOM     35  H   UNL     1      -3.534  -1.894   5.860  0.00  0.00    +0.210 HD
ENDBRANCH  32  34
ENDBRANCH  11  32
TORSDOF 3
