REMARK  Name = ZINC33834419
REMARK  14 active torsions:
REMARK  status: ('A' for Active; 'I' for Inactive)
REMARK    1  A    between atoms: C_1  and  C_2
REMARK    2  A    between atoms: C_2  and  C_3
REMARK    3  A    between atoms: C_3  and  O_4
REMARK    4  A    between atoms: O_4  and  C_5
REMARK    5  A    between atoms: C_5  and  C_7
REMARK    6  A    between atoms: C_8  and  C_36
REMARK    7  A    between atoms: C_12  and  C_14
REMARK    8  A    between atoms: C_16  and  O_22
REMARK    9  A    between atoms: C_17  and  O_21
REMARK   10  A    between atoms: O_22  and  C_23
REMARK   11  A    between atoms: C_26  and  C_32
REMARK   12  A    between atoms: C_28  and  C_31
REMARK   13  A    between atoms: C_32  and  O_34
REMARK   14  A    between atoms: O_34  and  C_35
REMARK                            x       y       z     vdW  Elec       q    Type
REMARK                         _______ _______ _______ _____ _____    ______ ____
ROOT
ATOM      1  C   UNL     1       3.653   1.922   0.271  0.00  0.00    +0.065 C 
ATOM      2  C   UNL     1       3.634   3.266   0.292  0.00  0.00    +0.016 C 
ATOM      3  N   UNL     1       2.476   3.946   0.040  0.00  0.00    -0.321 N 
ATOM      4  C   UNL     1       1.262   3.323   0.152  0.00  0.00    +0.016 C 
ATOM      5  C   UNL     1       1.178   1.976   0.131  0.00  0.00    +0.025 C 
ATOM      6  C   UNL     1       2.416   1.130  -0.036  0.00  0.00    +0.092 C 
ATOM      7  C   UNL     1      -0.061   1.324   0.260  0.00  0.00    +0.176 C 
ATOM      8  O   UNL     1      -0.102   0.110   0.228  0.00  0.00    -0.291 OA
ATOM      9  C   UNL     1      -1.337   2.101   0.432  0.00  0.00    +0.171 C 
ATOM     10  C   UNL     1      -1.019   3.431   1.129  0.00  0.00    +0.013 C 
ATOM     11  C   UNL     1       0.025   4.176   0.294  0.00  0.00    +0.055 C 
ATOM     12  C   UNL     1      -2.291   4.274   1.232  0.00  0.00    +0.009 C 
ATOM     13  C   UNL     1       4.898   4.027   0.597  0.00  0.00    +0.061 C 
ATOM     14  H   UNL     1       2.513   5.005  -0.257  0.00  0.00    +0.152 HD
ENDROOT
BRANCH   6  15
ATOM     15  C   UNL     1       2.487   0.633  -1.456  0.00  0.00    -0.030 A 
ATOM     16  C   UNL     1       2.489  -0.726  -1.712  0.00  0.00    +0.054 A 
ATOM     17  C   UNL     1       2.555  -1.186  -3.017  0.00  0.00    +0.163 A 
ATOM     18  C   UNL     1       2.618  -0.278  -4.069  0.00  0.00    +0.177 A 
ATOM     19  C   UNL     1       2.615   1.083  -3.807  0.00  0.00    +0.086 A 
ATOM     20  C   UNL     1       2.544   1.536  -2.501  0.00  0.00    +0.028 A 
ATOM     21 CL   UNL     1       2.693   2.220  -5.117  0.00  0.00    -0.080 Cl
BRANCH  18  22
ATOM     22  O   UNL     1       2.683  -0.725  -5.353  0.00  0.00    -0.502 OA
ATOM     23  H   UNL     1       2.732  -0.006  -6.183  0.00  0.00    +0.292 HD
ENDBRANCH  18  22
BRANCH  17  24
ATOM     24  O   UNL     1       2.558  -2.522  -3.269  0.00  0.00    -0.491 OA
ATOM     25  C   UNL     1       2.492  -3.396  -2.140  0.00  0.00    +0.277 C 
ENDBRANCH  17  24
ENDBRANCH   6  15
BRANCH   1  26
ATOM     26  C   UNL     1       4.863   1.241   0.542  0.00  0.00    +0.338 C 
ATOM     27  O   UNL     1       5.019   0.679   1.610  0.00  0.00    -0.245 OA
BRANCH  26  28
ATOM     28  O   UNL     1       5.844   1.214  -0.384  0.00  0.00    -0.461 OA
BRANCH  28  29
ATOM     29  C   UNL     1       7.039   0.507  -0.043  0.00  0.00    +0.232 C 
BRANCH  29  31
ATOM     30  C   UNL     1       9.307  -0.170  -0.843  0.00  0.00    +0.007 C 
ATOM     31  C   UNL     1       8.028   0.586  -1.208  0.00  0.00    +0.038 C 
ENDBRANCH  29  31
ENDBRANCH  28  29
ENDBRANCH  26  28
ENDBRANCH   1  26
BRANCH   9  32
ATOM     32  C   UNL     1      -2.301   1.308   1.276  0.00  0.00    +0.318 C 
ATOM     33  O   UNL     1      -2.703   1.762   2.321  0.00  0.00    -0.250 OA
BRANCH  32  34
ATOM     34  O   UNL     1      -2.712   0.098   0.868  0.00  0.00    -0.467 OA
ATOM     35  C   UNL     1      -3.641  -0.609   1.732  0.00  0.00    +0.280 C 
ENDBRANCH  32  34
ENDBRANCH   9  32
TORSDOF 9
