REMARK  Name = ZINC36415464
REMARK  9 active torsions:
REMARK  status: ('A' for Active; 'I' for Inactive)
REMARK    1  A    between atoms: C_1  and  O_2
REMARK    2  A    between atoms: O_2  and  C_3
REMARK    3  A    between atoms: C_6  and  C_15
REMARK    4  A    between atoms: C_15  and  C_17
REMARK    5  A    between atoms: C_15  and  O_36
REMARK    6  A    between atoms: C_17  and  N_18
REMARK    7  A    between atoms: C_21  and  N_24
REMARK    8  A    between atoms: N_24  and  C_25
REMARK    9  A    between atoms: C_25  and  C_26
REMARK                            x       y       z     vdW  Elec       q    Type
REMARK                         _______ _______ _______ _____ _____    ______ ____
ROOT
ATOM      1  N   UNL     1       1.383  -6.390   0.654  0.00  0.00    +0.381 N 
ATOM      2  C   UNL     1       0.821  -7.594   0.031  0.00  0.00    -0.080 C 
ATOM      3  C   UNL     1       0.250  -8.514   1.113  0.00  0.00    -0.034 C 
ATOM      4  C   UNL     1       1.370  -8.912   2.079  0.00  0.00    -0.075 C 
ATOM      5  C   UNL     1       1.998  -7.645   2.666  0.00  0.00    -0.034 C 
ATOM      6  C   UNL     1       2.504  -6.757   1.527  0.00  0.00    -0.080 C 
ATOM      7  H   UNL     1       0.668  -5.932   1.200  0.00  0.00    -0.082 HD
ENDROOT
BRANCH   4   8
ATOM      8  N   UNL     1       0.815  -9.733   3.163  0.00  0.00    +0.384 N 
ATOM      9  H   UNL     1       0.174  -9.178   3.711  0.00  0.00    -0.085 HD
ATOM     10  H   UNL     1       0.324 -10.522   2.769  0.00  0.00    -0.085 HD
BRANCH   8  11
ATOM     11  C   UNL     1       1.905 -10.213   4.021  0.00  0.00    -0.026 C 
BRANCH  11  12
ATOM     12  C   UNL     1       1.336 -11.056   5.134  0.00  0.00    +0.028 A 
ATOM     13  C   UNL     1       1.288 -12.429   4.992  0.00  0.00    +0.070 A 
ATOM     14  C   UNL     1       0.761 -13.194   6.026  0.00  0.00    +0.165 A 
ATOM     15  C   UNL     1       0.301 -12.542   7.168  0.00  0.00    +0.180 A 
ATOM     16  C   UNL     1       0.381 -11.162   7.233  0.00  0.00    +0.160 A 
ATOM     17  N   UNL     1       0.894 -10.472   6.231  0.00  0.00    -0.258 NA
ATOM     18  O   UNL     1      -0.217 -13.247   8.209  0.00  0.00    -0.483 OA
ATOM     19  C   UNL     1      -0.614 -14.596   7.935  0.00  0.00    +0.270 C 
ATOM     20  C   UNL     1       0.505 -15.276   7.134  0.00  0.00    +0.270 C 
ATOM     21  O   UNL     1       0.698 -14.544   5.918  0.00  0.00    -0.485 OA
ENDBRANCH  11  12
ENDBRANCH   8  11
ENDBRANCH   4   8
BRANCH   1  22
ATOM     22  C   UNL     1       1.858  -5.475  -0.393  0.00  0.00    -0.042 C 
BRANCH  22  23
ATOM     23  C   UNL     1       2.299  -4.156   0.245  0.00  0.00    +0.131 C 
BRANCH  23  27
ATOM     24  C   UNL     1       6.460  -3.349  -0.343  0.00  0.00    +0.124 A 
ATOM     25  C   UNL     1       5.131  -3.605  -0.158  0.00  0.00    +0.056 A 
ATOM     26  C   UNL     1       4.183  -2.986  -0.987  0.00  0.00    +0.015 A 
ATOM     27  C   UNL     1       2.805  -3.225  -0.827  0.00  0.00    +0.025 A 
ATOM     28  C   UNL     1       1.938  -2.588  -1.671  0.00  0.00    +0.148 A 
ATOM     29  C   UNL     1       2.430  -1.730  -2.656  0.00  0.00    +0.150 A 
ATOM     30  N   UNL     1       3.714  -1.512  -2.801  0.00  0.00    -0.249 NA
ATOM     31  C   UNL     1       4.614  -2.103  -2.009  0.00  0.00    +0.107 A 
ATOM     32  C   UNL     1       5.992  -1.863  -2.171  0.00  0.00    +0.153 A 
ATOM     33  C   UNL     1       6.887  -2.474  -1.346  0.00  0.00    +0.086 A 
ATOM     34  F   UNL     1       6.424  -1.024  -3.138  0.00  0.00    -0.203 F 
ATOM     35  F   UNL     1       0.607  -2.789  -1.552  0.00  0.00    -0.204 F 
BRANCH  24  37
ATOM     36  C   UNL     1       8.752  -3.635   0.222  0.00  0.00    +0.277 C 
ATOM     37  O   UNL     1       7.378  -3.947   0.461  0.00  0.00    -0.495 OA
ENDBRANCH  24  37
ENDBRANCH  23  27
BRANCH  23  38
ATOM     38  O   UNL     1       1.188  -3.555   0.913  0.00  0.00    -0.389 OA
ATOM     39  H   UNL     1       0.441  -3.356   0.332  0.00  0.00    +0.210 HD
ENDBRANCH  23  38
ENDBRANCH  22  23
ENDBRANCH   1  22
TORSDOF 8
