REMARK  Name = ZINC63156257
REMARK  14 active torsions:
REMARK  status: ('A' for Active; 'I' for Inactive)
REMARK    1  A    between atoms: C_1  and  C_2
REMARK    2  A    between atoms: C_2  and  C_3
REMARK    3  A    between atoms: C_2  and  C_4
REMARK    4  A    between atoms: C_4  and  C_6
REMARK    5  A    between atoms: C_4  and  N_10
REMARK    6  A    between atoms: C_6  and  O_8
REMARK    7  A    between atoms: O_8  and  C_9
REMARK    8  A    between atoms: C_11  and  C_13
REMARK    9  A    between atoms: C_13  and  C_15
REMARK   10  A    between atoms: C_13  and  N_25
REMARK   11  A    between atoms: C_15  and  C_16
REMARK   12  A    between atoms: C_26  and  O_28
REMARK   13  A    between atoms: O_28  and  C_29
REMARK   14  A    between atoms: C_29  and  C_30
REMARK                            x       y       z     vdW  Elec       q    Type
REMARK                         _______ _______ _______ _____ _____    ______ ____
ROOT
ATOM      1  C   UNL     1      -0.262  -4.173   1.725  0.00  0.00    +0.166 C 
ENDROOT
BRANCH   1   3
ATOM      2  N   UNL     1       0.762  -1.976   1.234  0.00  0.00    -0.301 N 
ATOM      3  C   UNL     1      -0.282  -2.667   1.733  0.00  0.00    +0.234 C 
ATOM      4  O   UNL     1      -1.238  -2.076   2.189  0.00  0.00    -0.274 OA
ATOM      5  H   UNL     1       1.526  -2.448   0.869  0.00  0.00    +0.150 HD
BRANCH   2   6
ATOM      6  C   UNL     1       0.742  -0.511   1.242  0.00  0.00    +0.184 C 
BRANCH   6   8
ATOM      7  C   UNL     1      -0.019   1.526   0.010  0.00  0.00    +0.009 C 
ATOM      8  C   UNL     1       0.002  -0.004   0.002  0.00  0.00    +0.014 C 
ATOM      9  C   UNL     1       0.718  -0.497  -1.257  0.00  0.00    +0.009 C 
ENDBRANCH   6   8
BRANCH   6  10
ATOM     10  C   UNL     1       2.156   0.011   1.231  0.00  0.00    +0.328 C 
ATOM     11  O   UNL     1       3.085  -0.762   1.218  0.00  0.00    -0.249 OA
BRANCH  10  12
ATOM     12  O   UNL     1       2.383   1.334   1.236  0.00  0.00    -0.467 OA
ATOM     13  C   UNL     1       3.748   1.757   1.225  0.00  0.00    +0.280 C 
ENDBRANCH  10  12
ENDBRANCH   6  10
ENDBRANCH   2   6
ENDBRANCH   1   3
BRANCH   1  14
ATOM     14  N   UNL     1      -1.501  -4.682   2.318  0.00  0.00    -0.270 N 
ATOM     15  C   UNL     1      -1.601  -4.819   3.655  0.00  0.00    +0.401 C 
ATOM     16  O   UNL     1      -0.664  -4.521   4.368  0.00  0.00    -0.226 OA
ATOM     17  H   UNL     1      -2.249  -4.920   1.748  0.00  0.00    +0.153 HD
BRANCH  15  18
ATOM     18  O   UNL     1      -2.741  -5.287   4.199  0.00  0.00    -0.446 OA
BRANCH  18  19
ATOM     19  C   UNL     1      -2.777  -5.407   5.623  0.00  0.00    +0.269 C 
BRANCH  19  20
ATOM     20  C   UNL     1      -4.121  -5.941   6.048  0.00  0.00    -0.010 A 
ATOM     21  C   UNL     1      -5.157  -5.069   6.320  0.00  0.00    +0.007 A 
ATOM     22  C   UNL     1      -6.390  -5.559   6.710  0.00  0.00    +0.000 A 
ATOM     23  C   UNL     1      -6.585  -6.923   6.826  0.00  0.00    +0.000 A 
ATOM     24  C   UNL     1      -5.549  -7.795   6.552  0.00  0.00    +0.000 A 
ATOM     25  C   UNL     1      -4.318  -7.305   6.159  0.00  0.00    +0.007 A 
ENDBRANCH  19  20
ENDBRANCH  18  19
ENDBRANCH  15  18
ENDBRANCH   1  14
BRANCH   1  26
ATOM     26  C   UNL     1      -0.143  -4.674   0.284  0.00  0.00    +0.065 C 
BRANCH  26  27
ATOM     27  C   UNL     1       0.001  -6.174   0.283  0.00  0.00    -0.039 C 
ATOM     28  C   UNL     1      -0.986  -7.086   0.131  0.00  0.00    -0.001 A 
ATOM     29  C   UNL     1      -2.434  -6.958  -0.071  0.00  0.00    +0.010 A 
ATOM     30  C   UNL     1      -3.181  -8.080  -0.192  0.00  0.00    +0.001 A 
ATOM     31  C   UNL     1      -2.608  -9.357  -0.128  0.00  0.00    +0.002 A 
ATOM     32  C   UNL     1      -1.285  -9.555   0.055  0.00  0.00    +0.026 A 
ATOM     33  C   UNL     1      -0.405  -8.446   0.194  0.00  0.00    +0.043 A 
ATOM     34  N   UNL     1       0.891  -8.378   0.378  0.00  0.00    -0.380 N 
ATOM     35  C   UNL     1       1.280  -6.965   0.447  0.00  0.00    +0.144 C 
ATOM     36  H   UNL     1       1.493  -9.135   0.452  0.00  0.00    +0.160 HD
ENDBRANCH  26  27
ENDBRANCH   1  26
TORSDOF 11
