REMARK  Name = ZINC58377760
REMARK  8 active torsions:
REMARK  status: ('A' for Active; 'I' for Inactive)
REMARK    1  A    between atoms: C_1  and  C_2
REMARK    2  A    between atoms: N_5  and  C_11
REMARK    3  A    between atoms: C_7  and  C_10
REMARK    4  A    between atoms: C_14  and  N_18
REMARK    5  A    between atoms: N_21  and  C_22
REMARK    6  A    between atoms: C_22  and  C_23
REMARK    7  A    between atoms: C_22  and  C_24
REMARK    8  A    between atoms: C_22  and  C_25
REMARK                            x       y       z     vdW  Elec       q    Type
REMARK                         _______ _______ _______ _____ _____    ______ ____
ROOT
ATOM      1  N   UNL     1      -4.206  -5.445  -3.166  0.00  0.00    -0.269 N 
ATOM      2  C   UNL     1      -3.539  -6.306  -3.959  0.00  0.00    +0.305 C 
ATOM      3  O   UNL     1      -2.340  -6.457  -3.821  0.00  0.00    -0.252 OA
ATOM      4  N   UNL     1      -4.200  -7.000  -4.907  0.00  0.00    -0.290 N 
ATOM      5  H   UNL     1      -5.172  -5.380  -3.225  0.00  0.00    +0.156 HD
ATOM      6  H   UNL     1      -5.156  -6.880  -5.018  0.00  0.00    +0.151 HD
ENDROOT
BRANCH   1  10
ATOM      7  C   UNL     1      -2.116  -3.059  -0.455  0.00  0.00    +0.066 A 
ATOM      8  C   UNL     1      -1.538  -3.400  -1.670  0.00  0.00    +0.028 A 
ATOM      9  C   UNL     1      -2.230  -4.190  -2.567  0.00  0.00    +0.025 A 
ATOM     10  C   UNL     1      -3.504  -4.644  -2.254  0.00  0.00    +0.038 A 
ATOM     11  C   UNL     1      -4.084  -4.303  -1.040  0.00  0.00    +0.063 A 
ATOM     12  C   UNL     1      -3.390  -3.518  -0.139  0.00  0.00    +0.146 A 
ATOM     13  F   UNL     1      -3.951  -3.191   1.046  0.00  0.00    -0.203 F 
BRANCH   7  17
ATOM     14  C   UNL     1      -0.218   1.329   0.571  0.00  0.00    +0.039 C 
ATOM     15  C   UNL     1      -0.126  -0.189   0.408  0.00  0.00    +0.133 C 
ATOM     16  C   UNL     1      -1.536  -0.791   0.423  0.00  0.00    +0.136 C 
ATOM     17  N   UNL     1      -1.414  -2.258   0.454  0.00  0.00    -0.323 N 
ATOM     18  C   UNL     1      -0.532  -2.857   1.468  0.00  0.00    +0.136 C 
ATOM     19  C   UNL     1       0.829  -2.154   1.402  0.00  0.00    +0.133 C 
ATOM     20  O   UNL     1       0.634  -0.740   1.486  0.00  0.00    -0.371 OA
ATOM     21  C   UNL     1       1.702  -2.620   2.568  0.00  0.00    +0.039 C 
ENDBRANCH   7  17
ENDBRANCH   1  10
BRANCH   4  22
ATOM     22  C   UNL     1      -3.474  -7.936  -5.770  0.00  0.00    +0.056 C 
ATOM     23  C   UNL     1      -2.378  -7.185  -6.528  0.00  0.00    +0.036 C 
ATOM     24  C   UNL     1      -2.842  -9.034  -4.913  0.00  0.00    +0.036 C 
BRANCH  22  25
ATOM     25  C   UNL     1      -4.431  -8.556  -6.755  0.00  0.00    -0.021 A 
ATOM     26  C   UNL     1      -4.150  -9.792  -7.305  0.00  0.00    +0.009 A 
ATOM     27  C   UNL     1      -5.025 -10.366  -8.209  0.00  0.00    +0.050 A 
ATOM     28  C   UNL     1      -6.187  -9.701  -8.566  0.00  0.00    +0.166 A 
ATOM     29  C   UNL     1      -6.471  -8.455  -8.011  0.00  0.00    +0.167 A 
ATOM     30  C   UNL     1      -5.592  -7.890  -7.102  0.00  0.00    +0.055 A 
ATOM     31  O   UNL     1      -7.659  -8.014  -8.517  0.00  0.00    -0.453 OA
ATOM     32  C   UNL     1      -7.898  -8.812  -9.691  0.00  0.00    +0.466 C 
ATOM     33  O   UNL     1      -7.197 -10.040  -9.418  0.00  0.00    -0.453 OA
ENDBRANCH  22  25
ENDBRANCH   4  22
TORSDOF 4
