REMARK  Name = ZINC21007802
REMARK  8 active torsions:
REMARK  status: ('A' for Active; 'I' for Inactive)
REMARK    1  A    between atoms: C_1  and  C_2
REMARK    2  A    between atoms: C_3  and  C_25
REMARK    3  A    between atoms: C_4  and  C_24
REMARK    4  A    between atoms: C_7  and  C_8
REMARK    5  A    between atoms: N_10  and  N_11
REMARK    6  A    between atoms: C_12  and  C_14
REMARK    7  A    between atoms: C_25  and  O_27
REMARK    8  A    between atoms: O_27  and  C_28
REMARK                            x       y       z     vdW  Elec       q    Type
REMARK                         _______ _______ _______ _____ _____    ______ ____
ROOT
ATOM      1  C   UNL     1      -1.570   9.989   0.073  0.00  0.00    +0.277 C 
ATOM      2  O   UNL     1      -2.588   9.324   0.078  0.00  0.00    -0.267 OA
ATOM      3  N   UNL     1      -0.367   9.380   0.059  0.00  0.00    -0.229 N 
ATOM      4  H   UNL     1       0.554   9.981   0.054  0.00  0.00    +0.173 HD
ENDROOT
BRANCH   1  11
ATOM      5  C   UNL     1      -4.206  11.656   0.094  0.00  0.00    +0.047 C 
ATOM      6  C   UNL     1      -2.797  12.191   0.092  0.00  0.00    -0.006 A 
ATOM      7  C   UNL     1      -2.414  13.552   0.103  0.00  0.00    +0.083 A 
ATOM      8  C   UNL     1      -1.032  13.585   0.090  0.00  0.00    +0.028 A 
ATOM      9  N   UNL     1      -0.579  12.322   0.078  0.00  0.00    -0.354 N 
ATOM     10  H   UNL     1       0.504  12.126   0.067  0.00  0.00    +0.166 HD
ATOM     11  C   UNL     1      -1.650  11.455   0.083  0.00  0.00    +0.107 A 
ATOM     12  C   UNL     1      -0.179  14.828   0.089  0.00  0.00    +0.064 C 
BRANCH   7  13
ATOM     13  C   UNL     1      -3.317  14.715   0.118  0.00  0.00    +0.341 C 
ATOM     14  O   UNL     1      -3.699  15.202  -0.928  0.00  0.00    -0.245 OA
BRANCH  13  15
ATOM     15  O   UNL     1      -3.720  15.240   1.292  0.00  0.00    -0.464 OA
ATOM     16  C   UNL     1      -4.610  16.386   1.231  0.00  0.00    +0.280 C 
ENDBRANCH  13  15
ENDBRANCH   7  13
ENDBRANCH   1  11
BRANCH   3  17
ATOM     17  N   UNL     1      -0.291   7.981   0.050  0.00  0.00    -0.229 N 
ATOM     18  C   UNL     1       0.911   7.372   0.035  0.00  0.00    +0.278 C 
ATOM     19  O   UNL     1       1.929   8.036   0.030  0.00  0.00    -0.267 OA
ATOM     20  H   UNL     1      -1.212   7.380   0.054  0.00  0.00    +0.173 HD
BRANCH  18  21
ATOM     21  C   UNL     1       0.993   5.891   0.026  0.00  0.00    +0.127 A 
ATOM     22  C   UNL     1       2.252   5.274   0.010  0.00  0.00    +0.034 A 
ATOM     23  C   UNL     1       2.340   3.912   0.001  0.00  0.00    +0.012 A 
ATOM     24  C   UNL     1       1.146   3.167   0.008  0.00  0.00    +0.000 A 
ATOM     25  C   UNL     1       1.163   1.763   0.000  0.00  0.00    +0.010 A 
ATOM     26  C   UNL     1      -0.013   1.076   0.008  0.00  0.00    +0.001 A 
ATOM     27  C   UNL     1      -1.235   1.747   0.017  0.00  0.00    +0.002 A 
ATOM     28  C   UNL     1      -1.290   3.106   0.030  0.00  0.00    +0.028 A 
ATOM     29  C   UNL     1      -0.096   3.853   0.023  0.00  0.00    +0.072 A 
ATOM     30  N   UNL     1      -0.121   5.185   0.031  0.00  0.00    -0.242 NA
ENDBRANCH  18  21
ENDBRANCH   3  17
TORSDOF 5
