REMARK  Name = ZINC40813457
REMARK  6 active torsions:
REMARK  status: ('A' for Active; 'I' for Inactive)
REMARK    1  A    between atoms: C_1  and  C_2
REMARK    2  A    between atoms: C_6  and  C_7
REMARK    3  A    between atoms: N_9  and  C_10
REMARK    4  A    between atoms: N_24  and  N_25
REMARK    5  A    between atoms: C_26  and  C_28
REMARK    6  A    between atoms: C_32  and  N_34
REMARK                            x       y       z     vdW  Elec       q    Type
REMARK                         _______ _______ _______ _____ _____    ______ ____
ROOT
ATOM      1  C   UNL     1      -0.008   1.502   0.010  0.00  0.00    +0.048 C 
ATOM      2  C   UNL     1       0.019  -0.004   0.002  0.00  0.00    +0.009 A 
ATOM      3  C   UNL     1       0.037  -0.839  -1.123  0.00  0.00    +0.042 A 
ATOM      4  C   UNL     1       0.058  -2.138  -0.673  0.00  0.00    +0.115 A 
ATOM      5  O   UNL     1       0.057  -2.112   0.658  0.00  0.00    -0.454 OA
ATOM      6  C   UNL     1       0.038  -0.831   1.091  0.00  0.00    +0.193 A 
ATOM      7  C   UNL     1       0.076  -3.327  -1.599  0.00  0.00    +0.075 C 
ATOM      8  C   UNL     1      -0.441  -2.905  -2.977  0.00  0.00    +0.014 C 
ATOM      9  C   UNL     1       0.328  -1.684  -3.493  0.00  0.00    +0.058 C 
ATOM     10  C   UNL     1       0.038  -0.513  -2.566  0.00  0.00    +0.070 C 
ATOM     11  N   UNL     1      -0.193   0.685  -3.010  0.00  0.00    -0.184 NA
ENDROOT
BRANCH   6  12
ATOM     12  C   UNL     1       0.035  -0.400   2.493  0.00  0.00    +0.284 C 
ATOM     13  O   UNL     1       0.014   0.786   2.765  0.00  0.00    -0.266 OA
ATOM     14  N   UNL     1       0.055  -1.318   3.480  0.00  0.00    -0.278 N 
ATOM     15  H   UNL     1      -0.010  -2.261   3.266  0.00  0.00    +0.155 HD
BRANCH  14  16
ATOM     16  C   UNL     1       0.168  -0.910   4.809  0.00  0.00    +0.042 A 
ATOM     17  C   UNL     1       0.755   0.298   5.119  0.00  0.00    +0.024 A 
ATOM     18  C   UNL     1       0.873   0.714   6.441  0.00  0.00    +0.002 A 
ATOM     19  C   UNL     1       0.413  -0.058   7.465  0.00  0.00    +0.008 A 
ATOM     20  C   UNL     1      -0.193  -1.296   7.192  0.00  0.00    -0.016 A 
ATOM     21  C   UNL     1      -0.323  -1.728   5.849  0.00  0.00    +0.003 A 
ATOM     22  C   UNL     1      -0.933  -2.963   5.578  0.00  0.00    +0.010 A 
ATOM     23  C   UNL     1      -1.396  -3.726   6.606  0.00  0.00    +0.001 A 
ATOM     24  C   UNL     1      -1.273  -3.300   7.928  0.00  0.00    +0.001 A 
ATOM     25  C   UNL     1      -0.676  -2.114   8.228  0.00  0.00    +0.008 A 
ENDBRANCH  14  16
ENDBRANCH   6  12
BRANCH  11  26
ATOM     26  N   UNL     1      -0.179   0.936  -4.388  0.00  0.00    -0.203 N 
ATOM     27  C   UNL     1      -0.419   2.180  -4.848  0.00  0.00    +0.263 C 
ATOM     28  O   UNL     1      -0.646   3.084  -4.067  0.00  0.00    -0.268 OA
ATOM     29  H   UNL     1       0.002   0.215  -5.011  0.00  0.00    +0.178 HD
BRANCH  27  30
ATOM     30  C   UNL     1      -0.405   2.445  -6.301  0.00  0.00    +0.041 A 
ATOM     31  C   UNL     1      -0.150   1.408  -7.201  0.00  0.00    +0.014 A 
ATOM     32  C   UNL     1      -0.139   1.662  -8.556  0.00  0.00    +0.023 A 
ATOM     33  C   UNL     1      -0.379   2.942  -9.026  0.00  0.00    +0.071 A 
ATOM     34  C   UNL     1      -0.633   3.975  -8.139  0.00  0.00    +0.145 A 
ATOM     35  C   UNL     1      -0.652   3.733  -6.781  0.00  0.00    +0.047 A 
ATOM     36 CL   UNL     1      -0.362   3.254 -10.734  0.00  0.00    -0.081 Cl
BRANCH  34  37
ATOM     37  N   UNL     1      -0.889   5.341  -8.649  0.00  0.00    +0.058 N 
ATOM     38  O   UNL     1      -1.111   6.243  -7.876  0.00  0.00    -0.126 OA
ATOM     39  O   UNL     1      -0.877   5.554  -9.839  0.00  0.00    -0.126 OA
ENDBRANCH  34  37
ENDBRANCH  27  30
ENDBRANCH  11  26
TORSDOF 5
