REMARK  Name = ZINC36207584
REMARK  13 active torsions:
REMARK  status: ('A' for Active; 'I' for Inactive)
REMARK    1  A    between atoms: C_1  and  C_2
REMARK    2  A    between atoms: C_7  and  O_8
REMARK    3  A    between atoms: O_8  and  C_9
REMARK    4  A    between atoms: C_9  and  C_10
REMARK    5  A    between atoms: C_10  and  C_12
REMARK    6  A    between atoms: C_10  and  O_37
REMARK    7  A    between atoms: C_12  and  N_13
REMARK    8  A    between atoms: N_13  and  C_14
REMARK    9  A    between atoms: N_13  and  C_34
REMARK   10  A    between atoms: C_14  and  C_15
REMARK   11  A    between atoms: C_21  and  C_26
REMARK   12  A    between atoms: C_29  and  C_33
REMARK   13  A    between atoms: C_30  and  C_32
REMARK                            x       y       z     vdW  Elec       q    Type
REMARK                         _______ _______ _______ _____ _____    ______ ____
ROOT
ATOM      1  C   UNL     1       0.341  -0.959   8.326  0.00  0.00    -0.003 C 
ENDROOT
BRANCH   1   2
ATOM      2  C   UNL     1       0.295  -0.321   9.690  0.00  0.00    +0.094 A 
ATOM      3  N   UNL     1       0.469  -1.092  10.794  0.00  0.00    -0.312 N 
ATOM      4  H   UNL     1       0.620  -2.044  10.689  0.00  0.00    +0.170 HD
ATOM      5  C   UNL     1       0.435  -0.560  12.030  0.00  0.00    +0.260 A 
ATOM      6  O   UNL     1       0.594  -1.266  13.011  0.00  0.00    -0.267 OA
ATOM      7  C   UNL     1       0.211   0.846  12.175  0.00  0.00    +0.080 A 
ATOM      8  C   UNL     1       0.133   1.647  13.390  0.00  0.00    +0.004 A 
ATOM      9  C   UNL     1      -0.089   2.979  13.279  0.00  0.00    +0.056 A 
ATOM     10  S   UNL     1      -0.207   3.233  11.519  0.00  0.00    -0.076 S 
ATOM     11  C   UNL     1       0.043   1.562  10.978  0.00  0.00    +0.116 A 
ATOM     12  N   UNL     1       0.095   0.966   9.790  0.00  0.00    -0.229 NA
BRANCH   8  13
ATOM     13  C   UNL     1       0.294   1.017  14.722  0.00  0.00    -0.016 A 
ATOM     14  C   UNL     1      -0.440  -0.123  15.050  0.00  0.00    +0.009 A 
ATOM     15  C   UNL     1      -0.286  -0.706  16.291  0.00  0.00    +0.004 A 
ATOM     16  C   UNL     1       0.594  -0.162  17.210  0.00  0.00    -0.048 A 
ATOM     17  C   UNL     1       1.324   0.969  16.890  0.00  0.00    -0.047 A 
ATOM     18  C   UNL     1       1.182   1.558  15.650  0.00  0.00    +0.012 A 
ATOM     19  C   UNL     1       2.280   1.556  17.897  0.00  0.00    +0.044 C 
ATOM     20  C   UNL     1       0.757  -0.803  18.564  0.00  0.00    +0.044 C 
ENDBRANCH   8  13
ENDBRANCH   1   2
BRANCH   1  21
ATOM     21  N   UNL     1       0.136   0.069   7.296  0.00  0.00    +0.388 N 
ATOM     22  H   UNL     1      -0.725   0.562   7.481  0.00  0.00    -0.081 HD
BRANCH  21  23
ATOM     23  C   UNL     1       1.258   1.016   7.320  0.00  0.00    -0.068 C 
ATOM     24  C   UNL     1       0.950   2.467   7.696  0.00  0.00    -0.017 C 
ATOM     25  C   UNL     1       1.284   2.107   6.247  0.00  0.00    -0.017 C 
ENDBRANCH  21  23
BRANCH  21  26
ATOM     26  C   UNL     1       0.061  -0.569   5.975  0.00  0.00    -0.043 C 
BRANCH  26  27
ATOM     27  C   UNL     1       1.308  -1.427   5.752  0.00  0.00    +0.135 C 
BRANCH  27  28
ATOM     28  O   UNL     1       2.461  -0.585   5.690  0.00  0.00    -0.390 OA
ATOM     29  H   UNL     1       2.433   0.068   4.978  0.00  0.00    +0.210 HD
ENDBRANCH  27  28
BRANCH  27  30
ATOM     30  C   UNL     1       1.168  -2.198   4.438  0.00  0.00    +0.258 C 
BRANCH  30  31
ATOM     31  O   UNL     1       2.277  -3.086   4.286  0.00  0.00    -0.489 OA
BRANCH  31  38
ATOM     32  C   UNL     1       4.462  -4.848   3.966  0.00  0.00    +0.047 C 
ATOM     33  C   UNL     1       3.354  -4.734   2.950  0.00  0.00    -0.009 A 
ATOM     34  C   UNL     1       3.379  -5.514   1.810  0.00  0.00    +0.007 A 
ATOM     35  C   UNL     1       2.363  -5.410   0.878  0.00  0.00    +0.000 A 
ATOM     36  C   UNL     1       1.321  -4.525   1.084  0.00  0.00    +0.004 A 
ATOM     37  C   UNL     1       1.291  -3.743   2.223  0.00  0.00    +0.046 A 
ATOM     38  C   UNL     1       2.307  -3.850   3.162  0.00  0.00    +0.124 A 
ENDBRANCH  31  38
ENDBRANCH  30  31
ENDBRANCH  27  30
ENDBRANCH  26  27
ENDBRANCH  21  26
ENDBRANCH   1  21
TORSDOF 10
