REMARK  Name = ZINC20911087
REMARK  8 active torsions:
REMARK  status: ('A' for Active; 'I' for Inactive)
REMARK    1  A    between atoms: C_1  and  C_2
REMARK    2  A    between atoms: C_5  and  C_7
REMARK    3  A    between atoms: C_7  and  N_8
REMARK    4  A    between atoms: C_14  and  C_16
REMARK    5  A    between atoms: C_16  and  C_17
REMARK    6  A    between atoms: N_19  and  C_20
REMARK    7  A    between atoms: C_20  and  C_21
REMARK    8  A    between atoms: C_22  and  C_26
REMARK                            x       y       z     vdW  Elec       q    Type
REMARK                         _______ _______ _______ _____ _____    ______ ____
ROOT
ATOM      1  C   UNL     1       3.214   1.845   0.615  0.00  0.00    +0.089 C 
ENDROOT
BRANCH   1   8
ATOM      2  N   UNL     1       2.771   1.884  -1.792  0.00  0.00    +0.393 N 
ATOM      3  C   UNL     1       2.042   1.248  -2.902  0.00  0.00    -0.058 C 
ATOM      4  C   UNL     1       2.457  -0.222  -2.985  0.00  0.00    +0.085 C 
ATOM      5  N   UNL     1       2.351  -0.847  -1.670  0.00  0.00    -0.318 N 
ATOM      6  C   UNL     1       2.292  -0.144  -0.534  0.00  0.00    +0.200 C 
ATOM      7  O   UNL     1       2.236  -0.744   0.518  0.00  0.00    -0.278 OA
ATOM      8  C   UNL     1       2.293   1.358  -0.506  0.00  0.00    +0.029 C 
ATOM      9  H   UNL     1       2.316  -1.943  -1.583  0.00  0.00    +0.149 HD
ATOM     10  H   UNL     1       3.839   1.643  -1.891  0.00  0.00    -0.080 HD
BRANCH   2  11
ATOM     11  C   UNL     1       2.639   3.346  -1.845  0.00  0.00    -0.002 C 
BRANCH  11  16
ATOM     12  C   UNL     1      -2.219   4.315  -2.793  0.00  0.00    +0.086 C 
ATOM     13  C   UNL     1      -0.916   4.150  -2.054  0.00  0.00    +0.102 A 
ATOM     14  C   UNL     1      -0.726   4.361  -0.739  0.00  0.00    +0.044 A 
ATOM     15  C   UNL     1       0.635   4.090  -0.473  0.00  0.00    +0.043 A 
ATOM     16  C   UNL     1       1.196   3.728  -1.641  0.00  0.00    +0.089 A 
ATOM     17  O   UNL     1       0.253   3.772  -2.596  0.00  0.00    -0.467 OA
ENDBRANCH  11  16
ENDBRANCH   2  11
ENDBRANCH   1   8
BRANCH   1  18
ATOM     18  C   UNL     1       4.619   1.365   0.355  0.00  0.00    +0.212 C 
ATOM     19  O   UNL     1       4.885   0.803  -0.686  0.00  0.00    -0.276 OA
ATOM     20  N   UNL     1       5.579   1.560   1.280  0.00  0.00    -0.311 N 
ATOM     21  H   UNL     1       5.338   2.070   2.224  0.00  0.00    +0.149 HD
BRANCH  20  22
ATOM     22  C   UNL     1       6.945   1.093   1.028  0.00  0.00    +0.149 C 
BRANCH  22  23
ATOM     23  C   UNL     1       7.818   1.431   2.208  0.00  0.00    +0.034 A 
ATOM     24  C   UNL     1       8.088   0.700   3.334  0.00  0.00    +0.083 A 
ATOM     25  N   UNL     1       8.900   1.230   4.236  0.00  0.00    -0.247 NA
ATOM     26  C   UNL     1       9.433   2.415   4.065  0.00  0.00    +0.156 A 
ATOM     27  S   UNL     1       8.793   2.895   2.524  0.00  0.00    -0.078 S 
BRANCH  24  28
ATOM     28  C   UNL     1       7.491  -0.642   3.536  0.00  0.00    +0.001 A 
ATOM     29  C   UNL     1       6.199  -0.908   3.088  0.00  0.00    +0.010 A 
ATOM     30  C   UNL     1       5.650  -2.160   3.274  0.00  0.00    +0.001 A 
ATOM     31  C   UNL     1       6.377  -3.148   3.914  0.00  0.00    +0.000 A 
ATOM     32  C   UNL     1       7.658  -2.889   4.366  0.00  0.00    +0.001 A 
ATOM     33  C   UNL     1       8.219  -1.642   4.180  0.00  0.00    +0.010 A 
ENDBRANCH  24  28
ENDBRANCH  22  23
ENDBRANCH  20  22
ENDBRANCH   1  18
TORSDOF 7
