REMARK  Name = ZINC31046894
REMARK  10 active torsions:
REMARK  status: ('A' for Active; 'I' for Inactive)
REMARK    1  A    between atoms: C_5  and  C_7
REMARK    2  A    between atoms: C_7  and  S_8
REMARK    3  A    between atoms: S_8  and  C_9
REMARK    4  A    between atoms: C_9  and  C_10
REMARK    5  A    between atoms: C_10  and  C_11
REMARK    6  A    between atoms: C_11  and  N_12
REMARK    7  A    between atoms: C_13  and  C_15
REMARK    8  A    between atoms: N_20  and  C_22
REMARK    9  A    between atoms: C_22  and  C_23
REMARK   10  A    between atoms: C_25  and  C_28
REMARK                            x       y       z     vdW  Elec       q    Type
REMARK                         _______ _______ _______ _____ _____    ______ ____
ROOT
ATOM      1  C   UNL     1      -0.997   1.758  -3.630  0.00  0.00    +0.058 C 
ATOM      2  C   UNL     1      -1.016   3.289  -3.623  0.00  0.00    +0.009 C 
ATOM      3  C   UNL     1      -1.705   3.788  -4.897  0.00  0.00    -0.018 C 
ATOM      4  C   UNL     1      -0.967   3.238  -6.120  0.00  0.00    -0.078 C 
ATOM      5  N   UNL     1      -0.978   1.770  -6.079  0.00  0.00    +0.386 N 
ATOM      6  C   UNL     1      -0.280   1.266  -4.889  0.00  0.00    -0.065 C 
ATOM      7  H   UNL     1      -2.026   1.444  -6.016  0.00  0.00    -0.081 HD
ENDROOT
BRANCH   1   9
ATOM      8  N   UNL     1      -0.721   1.571  -1.179  0.00  0.00    -0.315 N 
ATOM      9  C   UNL     1      -0.268   1.258  -2.409  0.00  0.00    +0.214 C 
ATOM     10  O   UNL     1       0.726   0.575  -2.534  0.00  0.00    -0.276 OA
ATOM     11  H   UNL     1      -1.623   2.191  -1.066  0.00  0.00    +0.149 HD
BRANCH   8  12
ATOM     12  C   UNL     1      -0.013   1.086   0.008  0.00  0.00    +0.105 C 
BRANCH  12  13
ATOM     13  C   UNL     1      -0.729   1.579   1.267  0.00  0.00    +0.029 C 
BRANCH  13  14
ATOM     14  C   UNL     1       0.011   1.072   2.506  0.00  0.00    +0.071 C 
BRANCH  14  15
ATOM     15  S   UNL     1      -0.838   1.657   3.999  0.00  0.00    -0.156 S 
BRANCH  15  16
ATOM     16  C   UNL     1       0.151   0.980   5.360  0.00  0.00    +0.105 C 
BRANCH  16  21
ATOM     17  C   UNL     1      -0.608   2.957   8.486  0.00  0.00    +0.000 A 
ATOM     18  C   UNL     1      -1.563   2.162   9.091  0.00  0.00    +0.001 A 
ATOM     19  C   UNL     1      -1.964   0.984   8.490  0.00  0.00    +0.020 A 
ATOM     20  C   UNL     1      -1.410   0.601   7.282  0.00  0.00    +0.045 A 
ATOM     21  C   UNL     1      -0.454   1.397   6.676  0.00  0.00    -0.019 A 
ATOM     22  C   UNL     1      -0.049   2.572   7.282  0.00  0.00    +0.006 A 
ATOM     23 CL   UNL     1      -1.913  -0.879   6.526  0.00  0.00    -0.083 Cl
ENDBRANCH  16  21
ENDBRANCH  15  16
ENDBRANCH  14  15
ENDBRANCH  13  14
ENDBRANCH  12  13
ENDBRANCH   8  12
ENDBRANCH   1   9
BRANCH   5  24
ATOM     24  C   UNL     1      -0.401   1.205  -7.307  0.00  0.00    +0.022 C 
BRANCH  24  25
ATOM     25  C   UNL     1      -0.968   1.922  -8.505  0.00  0.00    +0.211 A 
ATOM     26  N   UNL     1      -0.479   2.996  -9.073  0.00  0.00    -0.193 NA
ATOM     27  C   UNL     1      -1.312   3.274 -10.101  0.00  0.00    +0.202 A 
ATOM     28  N   UNL     1      -2.252   2.366 -10.093  0.00  0.00    -0.056 NA
ATOM     29  O   UNL     1      -2.069   1.584  -9.184  0.00  0.00    -0.340 OA
BRANCH  27  30
ATOM     30  C   UNL     1      -1.184   4.401 -11.058  0.00  0.00    +0.023 A 
ATOM     31  C   UNL     1      -0.126   5.300 -10.942  0.00  0.00    +0.013 A 
ATOM     32  C   UNL     1      -0.008   6.343 -11.838  0.00  0.00    +0.021 A 
ATOM     33  C   UNL     1      -0.946   6.504 -12.843  0.00  0.00    +0.041 A 
ATOM     34  C   UNL     1      -2.003   5.617 -12.959  0.00  0.00    +0.021 A 
ATOM     35  C   UNL     1      -2.126   4.568 -12.072  0.00  0.00    +0.013 A 
ATOM     36 CL   UNL     1      -0.796   7.822 -13.963  0.00  0.00    -0.084 Cl
ENDBRANCH  27  30
ENDBRANCH  24  25
ENDBRANCH   5  24
TORSDOF 10
