REMARK  Name = ZINC36643423
REMARK  12 active torsions:
REMARK  status: ('A' for Active; 'I' for Inactive)
REMARK    1  A    between atoms: C_1  and  C_2
REMARK    2  A    between atoms: C_2  and  C_3
REMARK    3  A    between atoms: N_9  and  S_10
REMARK    4  A    between atoms: S_10  and  C_13
REMARK    5  A    between atoms: C_16  and  C_19
REMARK    6  A    between atoms: N_21  and  C_22
REMARK    7  A    between atoms: C_22  and  C_23
REMARK    8  A    between atoms: C_23  and  C_24
REMARK    9  A    between atoms: C_24  and  N_25
REMARK   10  A    between atoms: N_25  and  C_26
REMARK   11  A    between atoms: N_25  and  C_27
REMARK   12  A    between atoms: C_31  and  C_37
REMARK                            x       y       z     vdW  Elec       q    Type
REMARK                         _______ _______ _______ _____ _____    ______ ____
ROOT
ATOM      1  C   UNL     1      -2.585   6.957   1.182  0.00  0.00    +0.252 C 
ATOM      2  O   UNL     1      -1.923   7.629   0.415  0.00  0.00    -0.270 OA
ATOM      3  N   UNL     1      -3.865   7.292   1.439  0.00  0.00    -0.246 N 
ATOM      4  C   UNL     1      -4.571   6.623   2.424  0.00  0.00    +0.168 A 
ATOM      5  N   UNL     1      -4.442   6.705   3.728  0.00  0.00    -0.224 NA
ATOM      6  C   UNL     1      -5.207   5.988   4.580  0.00  0.00    +0.083 A 
ATOM      7  C   UNL     1      -5.170   5.982   5.993  0.00  0.00    -0.024 A 
ATOM      8  C   UNL     1      -6.023   5.187   6.713  0.00  0.00    +0.005 A 
ATOM      9  C   UNL     1      -6.948   4.364   6.087  0.00  0.00    +0.001 A 
ATOM     10  C   UNL     1      -7.012   4.344   4.706  0.00  0.00    +0.017 A 
ATOM     11  C   UNL     1      -6.161   5.137   3.977  0.00  0.00    +0.041 A 
ATOM     12  S   UNL     1      -5.894   5.436   2.246  0.00  0.00    -0.052 S 
ATOM     13  C   UNL     1      -4.181   6.860   6.716  0.00  0.00    +0.046 C 
ENDROOT
BRANCH   1  17
ATOM     14  C   UNL     1      -0.865   3.553   3.050  0.00  0.00    +0.106 A 
ATOM     15  C   UNL     1      -0.051   4.580   2.606  0.00  0.00    +0.029 A 
ATOM     16  C   UNL     1      -0.603   5.689   1.998  0.00  0.00    +0.015 A 
ATOM     17  C   UNL     1      -1.986   5.772   1.831  0.00  0.00    +0.037 A 
ATOM     18  C   UNL     1      -2.802   4.732   2.281  0.00  0.00    +0.015 A 
ATOM     19  C   UNL     1      -2.236   3.627   2.882  0.00  0.00    +0.029 A 
BRANCH  14  20
ATOM     20  S   UNL     1      -0.151   2.141   3.825  0.00  0.00    +0.061 S 
ATOM     21  O   UNL     1      -1.096   1.682   4.782  0.00  0.00    -0.153 OA
ATOM     22  O   UNL     1       1.178   2.499   4.178  0.00  0.00    -0.153 OA
BRANCH  20  28
ATOM     23  C   UNL     1       0.960   1.061   1.593  0.00  0.00    +0.080 C 
ATOM     24  C   UNL     1       1.800  -0.220   1.567  0.00  0.00    +0.021 C 
ATOM     25  C   UNL     1       0.872  -1.432   1.454  0.00  0.00    +0.003 C 
ATOM     26  C   UNL     1      -0.051  -1.485   2.673  0.00  0.00    +0.017 C 
ATOM     27  C   UNL     1      -0.912  -0.218   2.712  0.00  0.00    +0.110 C 
ATOM     28  N   UNL     1      -0.032   0.957   2.672  0.00  0.00    -0.174 NA
BRANCH  23  30
ATOM     29  C   UNL     1       2.964   2.310   0.778  0.00  0.00    +0.005 C 
ATOM     30  C   UNL     1       1.869   2.265   1.845  0.00  0.00    +0.017 C 
ENDBRANCH  23  30
ENDBRANCH  20  28
ENDBRANCH  14  20
ENDBRANCH   1  17
BRANCH   3  31
ATOM     31  C   UNL     1      -4.509   8.363   0.675  0.00  0.00    +0.114 C 
BRANCH  31  32
ATOM     32  C   UNL     1      -5.182   7.772  -0.566  0.00  0.00    +0.001 C 
BRANCH  32  33
ATOM     33  C   UNL     1      -5.855   8.891  -1.363  0.00  0.00    -0.078 C 
BRANCH  33  34
ATOM     34  N   UNL     1      -6.500   8.323  -2.554  0.00  0.00    +0.376 N 
ATOM     35  C   UNL     1      -7.247   9.376  -3.256  0.00  0.00    -0.097 C 
ATOM     36  C   UNL     1      -5.476   7.770  -3.450  0.00  0.00    -0.097 C 
ATOM     37  H   UNL     1      -7.135   7.590  -2.275  0.00  0.00    -0.083 HD
ENDBRANCH  33  34
ENDBRANCH  32  33
ENDBRANCH  31  32
ENDBRANCH   3  31
TORSDOF 8
