REMARK  Name = ZINC12887931
REMARK  7 active torsions:
REMARK  status: ('A' for Active; 'I' for Inactive)
REMARK    1  A    between atoms: C_1  and  C_2
REMARK    2  A    between atoms: C_2  and  C_3
REMARK    3  A    between atoms: C_3  and  C_5
REMARK    4  A    between atoms: C_3  and  N_6
REMARK    5  A    between atoms: C_11  and  C_28
REMARK    6  A    between atoms: C_22  and  C_27
REMARK    7  A    between atoms: C_28  and  C_29
REMARK                            x       y       z     vdW  Elec       q    Type
REMARK                         _______ _______ _______ _____ _____    ______ ____
ROOT
ATOM      1  N   UNL     1      -0.532   3.909  -1.700  0.00  0.00    -0.239 N 
ATOM      2  C   UNL     1      -1.238   2.991  -1.031  0.00  0.00    +0.224 C 
ATOM      3  O   UNL     1      -2.198   3.222  -0.326  0.00  0.00    -0.275 OA
ATOM      4  C   UNL     1      -0.654   1.621  -1.289  0.00  0.00    +0.073 C 
ATOM      5  C   UNL     1      -0.013   1.086   0.008  0.00  0.00    -0.053 C 
ATOM      6  C   UNL     1       1.783   1.537  -1.417  0.00  0.00    +0.050 C 
ATOM      7  C   UNL     1       0.543   1.914  -2.236  0.00  0.00    +0.088 C 
ATOM      8  C   UNL     1       0.488   3.416  -2.411  0.00  0.00    +0.225 C 
ATOM      9  O   UNL     1       1.251   4.070  -3.089  0.00  0.00    -0.275 OA
ATOM     10  C   UNL     1       2.277   0.161  -1.765  0.00  0.00    -0.027 A 
ATOM     11  C   UNL     1       1.705  -1.091  -1.721  0.00  0.00    +0.004 A 
ATOM     12  C   UNL     1       2.433  -2.199  -2.117  0.00  0.00    +0.001 A 
ATOM     13  C   UNL     1       3.735  -2.045  -2.558  0.00  0.00    +0.005 A 
ATOM     14  C   UNL     1       4.311  -0.793  -2.605  0.00  0.00    -0.029 A 
ATOM     15  C   UNL     1       3.586   0.328  -2.208  0.00  0.00    +0.039 A 
ATOM     16  N   UNL     1       3.942   1.678  -2.164  0.00  0.00    -0.286 N 
ATOM     17  C   UNL     1       2.938   2.454  -1.711  0.00  0.00    +0.211 C 
ATOM     18  O   UNL     1       2.962   3.658  -1.569  0.00  0.00    -0.277 OA
ATOM     19  C   UNL     1       5.730  -0.637  -3.088  0.00  0.00    +0.045 C 
ATOM     20  H   UNL     1       4.811   2.017  -2.430  0.00  0.00    +0.155 HD
ATOM     21  N   UNL     1       1.355   1.609  -0.031  0.00  0.00    +0.394 N 
ATOM     22  H   UNL     1       1.970   1.040   0.561  0.00  0.00    -0.083 HD
ATOM     23  H   UNL     1       1.371   2.583   0.295  0.00  0.00    -0.083 HD
ENDROOT
BRANCH   1  24
ATOM     24  C   UNL     1      -0.851   5.339  -1.659  0.00  0.00    +0.081 C 
ATOM     25  C   UNL     1      -2.269   5.561  -2.189  0.00  0.00    +0.028 C 
BRANCH  24  27
ATOM     26  C   UNL     1       0.686   5.733   0.271  0.00  0.00    +0.006 C 
ATOM     27  C   UNL     1      -0.761   5.840  -0.217  0.00  0.00    +0.019 C 
ENDBRANCH  24  27
ENDBRANCH   1  24
BRANCH   5  28
ATOM     28  C   UNL     1      -0.773   1.600   1.232  0.00  0.00    +0.022 C 
BRANCH  28  29
ATOM     29  C   UNL     1      -0.181   0.998   2.480  0.00  0.00    -0.024 A 
ATOM     30  C   UNL     1      -0.612  -0.102   3.118  0.00  0.00    +0.087 A 
ATOM     31  N   UNL     1       0.172  -0.344   4.213  0.00  0.00    -0.360 N 
ATOM     32  H   UNL     1       0.055  -1.083   4.830  0.00  0.00    +0.165 HD
ATOM     33  C   UNL     1       1.152   0.619   4.309  0.00  0.00    +0.047 A 
ATOM     34  C   UNL     1       0.977   1.499   3.225  0.00  0.00    +0.003 A 
ATOM     35  C   UNL     1       1.841   2.583   3.061  0.00  0.00    +0.010 A 
ATOM     36  C   UNL     1       2.855   2.783   3.955  0.00  0.00    +0.001 A 
ATOM     37  C   UNL     1       3.034   1.916   5.024  0.00  0.00    +0.002 A 
ATOM     38  C   UNL     1       2.188   0.844   5.208  0.00  0.00    +0.026 A 
ENDBRANCH  28  29
ENDBRANCH   5  28
TORSDOF 4
