REMARK  Name = ZINC35035812
REMARK  9 active torsions:
REMARK  status: ('A' for Active; 'I' for Inactive)
REMARK    1  A    between atoms: C_1  and  C_2
REMARK    2  A    between atoms: C_2  and  C_4
REMARK    3  A    between atoms: C_2  and  N_17
REMARK    4  A    between atoms: N_17  and  C_18
REMARK    5  A    between atoms: C_18  and  C_19
REMARK    6  A    between atoms: C_19  and  N_20
REMARK    7  A    between atoms: N_20  and  C_21
REMARK    8  A    between atoms: N_20  and  C_22
REMARK    9  A    between atoms: N_25  and  C_26
REMARK                            x       y       z     vdW  Elec       q    Type
REMARK                         _______ _______ _______ _____ _____    ______ ____
ROOT
ATOM      1  N   UNL     1       0.706  -0.476   1.198  0.00  0.00    -0.277 N 
ATOM      2  C   UNL     1       0.074  -1.274   2.080  0.00  0.00    +0.307 C 
ATOM      3  O   UNL     1      -1.086  -1.589   1.893  0.00  0.00    -0.252 OA
ATOM      4  N   UNL     1       0.727  -1.724   3.170  0.00  0.00    -0.268 N 
ATOM      5  H   UNL     1       1.673  -1.542   3.278  0.00  0.00    +0.156 HD
ENDROOT
BRANCH   4   6
ATOM      6  C   UNL     1       0.038  -2.456   4.146  0.00  0.00    +0.053 A 
ATOM      7  C   UNL     1      -1.333  -2.300   4.294  0.00  0.00    +0.026 A 
ATOM      8  C   UNL     1      -2.010  -3.022   5.257  0.00  0.00    +0.022 A 
ATOM      9  C   UNL     1      -1.322  -3.901   6.075  0.00  0.00    +0.042 A 
ATOM     10  C   UNL     1       0.045  -4.059   5.931  0.00  0.00    +0.041 A 
ATOM     11  C   UNL     1       0.726  -3.343   4.965  0.00  0.00    +0.064 A 
ATOM     12 CL   UNL     1       2.440  -3.547   4.778  0.00  0.00    -0.082 Cl
ATOM     13 CL   UNL     1      -2.176  -4.808   7.285  0.00  0.00    -0.083 Cl
ENDBRANCH   4   6
BRANCH   1  15
ATOM     14  C   UNL     1      -0.034   1.543   0.032  0.00  0.00    +0.036 C 
ATOM     15  C   UNL     1      -0.003   0.014   0.013  0.00  0.00    +0.140 C 
BRANCH  15  16
ATOM     16  C   UNL     1       0.707  -0.459  -1.229  0.00  0.00    +0.131 A 
ATOM     17  N   UNL     1       0.262  -0.017  -2.434  0.00  0.00    -0.309 N 
ATOM     18  H   UNL     1      -0.495   0.588  -2.474  0.00  0.00    +0.170 HD
ATOM     19  C   UNL     1       0.866  -0.412  -3.579  0.00  0.00    +0.259 A 
ATOM     20  O   UNL     1       0.478  -0.023  -4.665  0.00  0.00    -0.267 OA
ATOM     21  C   UNL     1       2.009  -1.329  -3.461  0.00  0.00    +0.065 A 
ATOM     22  C   UNL     1       2.700  -1.795  -4.577  0.00  0.00    +0.017 A 
ATOM     23  C   UNL     1       3.756  -2.646  -4.412  0.00  0.00    +0.021 A 
ATOM     24  C   UNL     1       4.149  -3.052  -3.142  0.00  0.00    +0.043 A 
ATOM     25  C   UNL     1       3.482  -2.606  -2.021  0.00  0.00    +0.048 A 
ATOM     26  C   UNL     1       2.400  -1.736  -2.165  0.00  0.00    +0.080 A 
ATOM     27  N   UNL     1       1.716  -1.265  -1.093  0.00  0.00    -0.232 NA
ATOM     28 CL   UNL     1       5.495  -4.135  -2.965  0.00  0.00    -0.083 Cl
ENDBRANCH  15  16
ENDBRANCH   1  15
BRANCH   1  29
ATOM     29  C   UNL     1       2.103  -0.097   1.423  0.00  0.00    +0.091 C 
BRANCH  29  30
ATOM     30  C   UNL     1       2.156   1.196   2.241  0.00  0.00    -0.060 C 
BRANCH  30  31
ATOM     31  N   UNL     1       3.557   1.575   2.467  0.00  0.00    +0.377 N 
ATOM     32  C   UNL     1       4.189   1.903   1.182  0.00  0.00    -0.097 C 
ATOM     33  C   UNL     1       3.610   2.747   3.351  0.00  0.00    -0.097 C 
ATOM     34  H   UNL     1       4.048   0.807   2.897  0.00  0.00    -0.083 HD
ENDBRANCH  30  31
ENDBRANCH  29  30
ENDBRANCH   1  29
TORSDOF 6
