REMARK  Name = ZINC43174580
REMARK  7 active torsions:
REMARK  status: ('A' for Active; 'I' for Inactive)
REMARK    1  A    between atoms: C_1  and  C_2
REMARK    2  A    between atoms: C_3  and  N_9
REMARK    3  A    between atoms: N_12  and  C_13
REMARK    4  A    between atoms: C_13  and  C_15
REMARK    5  A    between atoms: C_13  and  C_16
REMARK    6  A    between atoms: C_19  and  S_22
REMARK    7  A    between atoms: S_22  and  C_25
REMARK                            x       y       z     vdW  Elec       q    Type
REMARK                         _______ _______ _______ _____ _____    ______ ____
ROOT
ATOM      1  N   UNL     1      -0.010   0.011  -2.413  0.00  0.00    -0.269 N 
ATOM      2  C   UNL     1       0.095  -0.653  -3.581  0.00  0.00    +0.304 C 
ATOM      3  O   UNL     1       0.112  -1.869  -3.590  0.00  0.00    -0.252 OA
ATOM      4  N   UNL     1       0.182   0.030  -4.740  0.00  0.00    -0.293 N 
ATOM      5  H   UNL     1      -0.106   0.977  -2.411  0.00  0.00    +0.156 HD
ATOM      6  H   UNL     1       0.168   1.000  -4.733  0.00  0.00    +0.151 HD
ENDROOT
BRANCH   1   9
ATOM      7  C   UNL     1      -1.262   1.188  -0.145  0.00  0.00    +0.047 C 
ATOM      8  C   UNL     1      -0.580  -0.153  -0.072  0.00  0.00    -0.011 A 
ATOM      9  C   UNL     1       0.019  -0.691  -1.203  0.00  0.00    +0.039 A 
ATOM     10  C   UNL     1       0.646  -1.928  -1.132  0.00  0.00    +0.024 A 
ATOM     11  C   UNL     1       0.673  -2.620   0.063  0.00  0.00    +0.003 A 
ATOM     12  C   UNL     1       0.076  -2.083   1.188  0.00  0.00    +0.020 A 
ATOM     13  C   UNL     1      -0.546  -0.848   1.123  0.00  0.00    +0.046 A 
ATOM     14 CL   UNL     1      -1.287  -0.173   2.540  0.00  0.00    -0.083 Cl
ENDBRANCH   1   9
BRANCH   4  15
ATOM     15  C   UNL     1       0.296  -0.692  -6.009  0.00  0.00    +0.102 C 
ATOM     16  C   UNL     1       1.764  -1.033  -6.271  0.00  0.00    +0.033 C 
BRANCH  15  17
ATOM     17  C   UNL     1      -0.226   0.173  -7.128  0.00  0.00    -0.027 A 
ATOM     18  C   UNL     1       0.056   1.526  -7.144  0.00  0.00    +0.007 A 
ATOM     19  C   UNL     1      -0.423   2.319  -8.170  0.00  0.00    +0.027 A 
ATOM     20  C   UNL     1      -1.183   1.759  -9.180  0.00  0.00    +0.088 A 
ATOM     21  C   UNL     1      -1.464   0.405  -9.164  0.00  0.00    +0.027 A 
ATOM     22  C   UNL     1      -0.981  -0.388  -8.140  0.00  0.00    +0.007 A 
BRANCH  20  23
ATOM     23  S   UNL     1      -1.794   2.770 -10.487  0.00  0.00    -0.006 S 
ATOM     24  O   UNL     1      -2.957   2.099 -10.951  0.00  0.00    -0.170 OA
ATOM     25  O   UNL     1      -1.884   4.072  -9.926  0.00  0.00    -0.170 OA
ATOM     26  C   UNL     1      -0.498   2.725 -11.756  0.00  0.00    +0.200 C 
ENDBRANCH  20  23
ENDBRANCH  15  17
ENDBRANCH   4  15
TORSDOF 4
