REMARK  Name = ZINC08869308
REMARK  7 active torsions:
REMARK  status: ('A' for Active; 'I' for Inactive)
REMARK    1  A    between atoms: C_1  and  C_2
REMARK    2  A    between atoms: C_5  and  S_8
REMARK    3  A    between atoms: S_8  and  N_11
REMARK    4  A    between atoms: C_15  and  C_17
REMARK    5  A    between atoms: N_19  and  C_20
REMARK    6  A    between atoms: C_21  and  C_31
REMARK    7  A    between atoms: C_26  and  C_30
REMARK                            x       y       z     vdW  Elec       q    Type
REMARK                         _______ _______ _______ _____ _____    ______ ____
ROOT
ATOM      1  C   UNL     1      -0.593   3.270  -5.651  0.00  0.00    +0.236 C 
ATOM      2  O   UNL     1      -0.065   2.283  -5.183  0.00  0.00    -0.274 OA
ATOM      3  N   UNL     1      -0.877   4.322  -4.858  0.00  0.00    -0.278 N 
ATOM      4  H   UNL     1      -1.299   5.111  -5.232  0.00  0.00    +0.155 HD
ENDROOT
BRANCH   3   5
ATOM      5  C   UNL     1      -0.565   4.277  -3.508  0.00  0.00    +0.084 A 
ATOM      6  C   UNL     1      -0.776   5.250  -2.541  0.00  0.00    +0.068 A 
ATOM      7  C   UNL     1      -0.352   4.952  -1.184  0.00  0.00    -0.023 A 
ATOM      8  C   UNL     1       0.212   3.736  -1.012  0.00  0.00    -0.004 A 
ATOM      9  S   UNL     1       0.184   2.993  -2.618  0.00  0.00    -0.077 S 
ATOM     10  C   UNL     1       0.740   3.159   0.265  0.00  0.00    +0.046 C 
ATOM     11  C   UNL     1       0.889   4.296   1.286  0.00  0.00    -0.009 C 
ATOM     12  C   UNL     1      -0.399   5.125   1.292  0.00  0.00    +0.008 C 
ATOM     13  C   UNL     1      -0.517   5.913  -0.013  0.00  0.00    +0.037 C 
ATOM     14  C   UNL     1       1.128   3.707   2.678  0.00  0.00    +0.008 C 
BRANCH   6  15
ATOM     15  C   UNL     1      -1.404   6.532  -2.877  0.00  0.00    +0.244 C 
ATOM     16  O   UNL     1      -0.717   7.475  -3.222  0.00  0.00    -0.270 OA
ATOM     17  N   UNL     1      -2.743   6.666  -2.803  0.00  0.00    -0.325 N 
ATOM     18  H   UNL     1      -3.292   5.914  -2.528  0.00  0.00    +0.145 HD
ATOM     19  H   UNL     1      -3.159   7.514  -3.026  0.00  0.00    +0.145 HD
ENDBRANCH   6  15
ENDBRANCH   3   5
BRANCH   1  24
ATOM     20  N   UNL     1       0.100   2.620  -7.907  0.00  0.00    -0.165 NA
ATOM     21  C   UNL     1      -0.554   1.914  -9.018  0.00  0.00    +0.110 C 
ATOM     22  C   UNL     1      -2.071   2.168  -8.893  0.00  0.00    +0.019 C 
ATOM     23  C   UNL     1      -2.240   2.537  -7.396  0.00  0.00    +0.031 C 
ATOM     24  C   UNL     1      -0.932   3.319  -7.118  0.00  0.00    +0.166 C 
BRANCH  20  25
ATOM     25  S   UNL     1       1.726   2.631  -7.593  0.00  0.00    +0.062 S 
ATOM     26  O   UNL     1       1.878   3.082  -6.254  0.00  0.00    -0.153 OA
ATOM     27  O   UNL     1       2.233   1.381  -8.038  0.00  0.00    -0.153 OA
BRANCH  25  32
ATOM     28  C   UNL     1       4.197   6.852 -11.126  0.00  0.00    +0.044 C 
ATOM     29  C   UNL     1       3.579   5.798 -10.244  0.00  0.00    -0.050 A 
ATOM     30  C   UNL     1       3.028   6.152  -9.026  0.00  0.00    +0.005 A 
ATOM     31  C   UNL     1       2.462   5.185  -8.217  0.00  0.00    +0.029 A 
ATOM     32  C   UNL     1       2.447   3.864  -8.625  0.00  0.00    +0.106 A 
ATOM     33  C   UNL     1       3.003   3.510  -9.840  0.00  0.00    +0.029 A 
ATOM     34  C   UNL     1       3.565   4.477 -10.651  0.00  0.00    +0.005 A 
ENDBRANCH  25  32
ENDBRANCH  20  25
ENDBRANCH   1  24
TORSDOF 5
