REMARK  Name = ZINC35707937
REMARK  12 active torsions:
REMARK  status: ('A' for Active; 'I' for Inactive)
REMARK    1  A    between atoms: C_1  and  C_2
REMARK    2  A    between atoms: C_5  and  N_8
REMARK    3  A    between atoms: C_9  and  C_22
REMARK    4  A    between atoms: C_12  and  S_13
REMARK    5  A    between atoms: S_13  and  C_14
REMARK    6  A    between atoms: C_14  and  C_15
REMARK    7  A    between atoms: C_20  and  C_21
REMARK    8  A    between atoms: C_22  and  C_24
REMARK    9  A    between atoms: C_22  and  N_25
REMARK   10  A    between atoms: N_25  and  S_26
REMARK   11  A    between atoms: S_26  and  C_29
REMARK   12  A    between atoms: C_32  and  N_35
REMARK                            x       y       z     vdW  Elec       q    Type
REMARK                         _______ _______ _______ _____ _____    ______ ____
ROOT
ATOM      1  N   UNL     1       0.058  -4.173  -0.021  0.00  0.00    -0.273 N 
ATOM      2  C   UNL     1      -0.920  -5.016   0.436  0.00  0.00    +0.157 A 
ATOM      3  N   UNL     1      -0.502  -6.235   0.242  0.00  0.00    -0.131 NA
ATOM      4  N   UNL     1       0.663  -6.223  -0.301  0.00  0.00    -0.122 NA
ATOM      5  C   UNL     1       1.054  -4.984  -0.491  0.00  0.00    +0.196 A 
ENDROOT
BRANCH   1  10
ATOM      6  C   UNL     1      -0.018   1.503   0.010  0.00  0.00    +0.044 C 
ATOM      7  C   UNL     1       0.002  -0.004   0.002  0.00  0.00    -0.050 A 
ATOM      8  C   UNL     1       0.006  -0.688  -1.200  0.00  0.00    +0.005 A 
ATOM      9  C   UNL     1       0.024  -2.069  -1.211  0.00  0.00    +0.026 A 
ATOM     10  C   UNL     1       0.040  -2.771  -0.013  0.00  0.00    +0.050 A 
ATOM     11  C   UNL     1       0.036  -2.082   1.192  0.00  0.00    +0.026 A 
ATOM     12  C   UNL     1       0.023  -0.700   1.196  0.00  0.00    +0.005 A 
ENDBRANCH   1  10
BRANCH   2  13
ATOM     13  C   UNL     1      -2.235  -4.610   1.049  0.00  0.00    +0.141 C 
ATOM     14  C   UNL     1      -3.361  -4.832   0.037  0.00  0.00    +0.034 C 
BRANCH  13  15
ATOM     15  N   UNL     1      -2.487  -5.418   2.244  0.00  0.00    -0.180 NA
ATOM     16  H   UNL     1      -2.203  -6.345   2.272  0.00  0.00    +0.149 HD
BRANCH  15  17
ATOM     17  S   UNL     1      -3.257  -4.750   3.549  0.00  0.00    +0.059 S 
ATOM     18  O   UNL     1      -3.374  -5.779   4.522  0.00  0.00    -0.153 OA
ATOM     19  O   UNL     1      -2.604  -3.517   3.819  0.00  0.00    -0.153 OA
BRANCH  17  20
ATOM     20  C   UNL     1      -4.895  -4.350   3.039  0.00  0.00    +0.105 A 
ATOM     21  C   UNL     1      -5.166  -3.108   2.495  0.00  0.00    +0.031 A 
ATOM     22  C   UNL     1      -6.452  -2.795   2.094  0.00  0.00    +0.034 A 
ATOM     23  C   UNL     1      -7.466  -3.723   2.237  0.00  0.00    +0.126 A 
ATOM     24  C   UNL     1      -7.195  -4.965   2.780  0.00  0.00    +0.034 A 
ATOM     25  C   UNL     1      -5.909  -5.280   3.176  0.00  0.00    +0.031 A 
BRANCH  23  26
ATOM     26  N   UNL     1      -8.842  -3.387   1.809  0.00  0.00    +0.056 N 
ATOM     27  O   UNL     1      -9.080  -2.301   1.335  0.00  0.00    -0.126 OA
ATOM     28  O   UNL     1      -9.730  -4.199   1.934  0.00  0.00    -0.126 OA
ENDBRANCH  23  26
ENDBRANCH  17  20
ENDBRANCH  15  17
ENDBRANCH  13  15
ENDBRANCH   2  13
BRANCH   5  29
ATOM     29  S   UNL     1       2.576  -4.465  -1.212  0.00  0.00    -0.081 S 
BRANCH  29  30
ATOM     30  C   UNL     1       3.425  -6.017  -1.612  0.00  0.00    +0.112 C 
BRANCH  30  31
ATOM     31  C   UNL     1       4.759  -5.712  -2.243  0.00  0.00    -0.034 A 
ATOM     32  C   UNL     1       4.857  -5.568  -3.615  0.00  0.00    +0.005 A 
ATOM     33  C   UNL     1       6.081  -5.288  -4.194  0.00  0.00    +0.000 A 
ATOM     34  C   UNL     1       7.206  -5.153  -3.401  0.00  0.00    +0.000 A 
ATOM     35  C   UNL     1       7.107  -5.296  -2.030  0.00  0.00    +0.003 A 
ATOM     36  C   UNL     1       5.882  -5.571  -1.451  0.00  0.00    -0.046 A 
ATOM     37  C   UNL     1       5.773  -5.723   0.045  0.00  0.00    +0.044 C 
ENDBRANCH  30  31
ENDBRANCH  29  30
ENDBRANCH   5  29
TORSDOF 9
