REMARK  Name = ZINC32690935
REMARK  3 active torsions:
REMARK  status: ('A' for Active; 'I' for Inactive)
REMARK    1  A    between atoms: N_10  and  C_11
REMARK    2  A    between atoms: N_21  and  C_24
REMARK    3  A    between atoms: C_29  and  C_30
REMARK                            x       y       z     vdW  Elec       q    Type
REMARK                         _______ _______ _______ _____ _____    ______ ____
ROOT
ATOM      1  C   UNL     1       2.310   1.273   0.115  0.00  0.00    +0.089 C 
ATOM      2  C   UNL     1       1.315   1.921  -0.584  0.00  0.00    +0.059 C 
ATOM      3  C   UNL     1       1.015   3.346  -0.334  0.00  0.00    +0.000 A 
ATOM      4  C   UNL     1       1.717   4.088   0.609  0.00  0.00    +0.009 A 
ATOM      5  C   UNL     1       1.399   5.416   0.805  0.00  0.00    +0.001 A 
ATOM      6  C   UNL     1       0.386   6.014   0.070  0.00  0.00    +0.001 A 
ATOM      7  C   UNL     1      -0.322   5.295  -0.869  0.00  0.00    +0.014 A 
ATOM      8  C   UNL     1      -0.016   3.951  -1.083  0.00  0.00    +0.046 A 
ATOM      9  C   UNL     1      -0.745   3.149  -2.074  0.00  0.00    +0.258 C 
ATOM     10  O   UNL     1      -1.634   3.665  -2.724  0.00  0.00    -0.269 OA
ATOM     11  N   UNL     1      -0.442   1.856  -2.279  0.00  0.00    -0.202 N 
ATOM     12  C   UNL     1       0.523   1.217  -1.598  0.00  0.00    +0.259 C 
ATOM     13  O   UNL     1       0.745   0.042  -1.828  0.00  0.00    -0.269 OA
ENDROOT
BRANCH   1  23
ATOM     14  C   UNL     1       5.795  -2.228   0.784  0.00  0.00    +0.000 A 
ATOM     15  C   UNL     1       5.839  -0.913   0.356  0.00  0.00    +0.002 A 
ATOM     16  C   UNL     1       4.666  -0.205   0.186  0.00  0.00    +0.024 A 
ATOM     17  C   UNL     1       3.442  -0.814   0.439  0.00  0.00    +0.037 A 
ATOM     18  C   UNL     1       3.399  -2.132   0.870  0.00  0.00    -0.026 A 
ATOM     19  C   UNL     1       4.580  -2.834   1.040  0.00  0.00    +0.005 A 
ATOM     20  C   UNL     1       2.092  -2.825   1.154  0.00  0.00    +0.038 C 
ATOM     21  C   UNL     1       0.987  -1.800   1.404  0.00  0.00    +0.024 C 
ATOM     22  C   UNL     1       0.979  -0.788   0.251  0.00  0.00    +0.111 C 
ATOM     23  N   UNL     1       2.265  -0.078   0.268  0.00  0.00    -0.305 N 
ENDBRANCH   1  23
BRANCH  11  24
ATOM     24  C   UNL     1      -1.168   1.143  -3.242  0.00  0.00    +0.056 A 
ATOM     25  C   UNL     1      -2.331   0.475  -2.882  0.00  0.00    +0.024 A 
ATOM     26  C   UNL     1      -3.044  -0.227  -3.833  0.00  0.00    +0.002 A 
ATOM     27  C   UNL     1      -2.602  -0.266  -5.143  0.00  0.00    +0.001 A 
ATOM     28  C   UNL     1      -1.444   0.398  -5.504  0.00  0.00    +0.014 A 
ATOM     29  C   UNL     1      -0.729   1.107  -4.558  0.00  0.00    +0.077 A 
BRANCH  29  30
ATOM     30  C   UNL     1       0.530   1.835  -4.954  0.00  0.00    +0.419 C 
ATOM     31  F   UNL     1       0.764   1.652  -6.321  0.00  0.00    -0.166 F 
ATOM     32  F   UNL     1       0.383   3.200  -4.685  0.00  0.00    -0.166 F 
ATOM     33  F   UNL     1       1.611   1.329  -4.224  0.00  0.00    -0.166 F 
ENDBRANCH  29  30
ENDBRANCH  11  24
TORSDOF 3
