REMARK  Name = ZINC54580886
REMARK  11 active torsions:
REMARK  status: ('A' for Active; 'I' for Inactive)
REMARK    1  A    between atoms: C_1  and  C_2
REMARK    2  A    between atoms: C_2  and  C_4
REMARK    3  A    between atoms: C_2  and  N_15
REMARK    4  A    between atoms: C_7  and  S_10
REMARK    5  A    between atoms: S_10  and  N_13
REMARK    6  A    between atoms: N_13  and  C_14
REMARK    7  A    between atoms: N_18  and  C_19
REMARK    8  A    between atoms: C_19  and  C_20
REMARK    9  A    between atoms: C_20  and  N_25
REMARK   10  A    between atoms: N_25  and  C_26
REMARK   11  A    between atoms: N_25  and  C_27
REMARK                            x       y       z     vdW  Elec       q    Type
REMARK                         _______ _______ _______ _____ _____    ______ ____
ROOT
ATOM      1  N   UNL     1       0.368  -0.893  -1.151  0.00  0.00    -0.293 N 
ATOM      2  C   UNL     1      -0.222  -0.874  -2.363  0.00  0.00    +0.300 C 
ATOM      3  O   UNL     1      -1.381  -0.525  -2.469  0.00  0.00    -0.253 OA
ATOM      4  N   UNL     1       0.474  -1.242  -3.457  0.00  0.00    -0.301 N 
ATOM      5  H   UNL     1       1.294  -1.171  -1.067  0.00  0.00    +0.151 HD
ATOM      6  H   UNL     1       1.399  -1.520  -3.373  0.00  0.00    +0.150 HD
ENDROOT
BRANCH   1   8
ATOM      7  C   UNL     1      -0.326   1.028   0.194  0.00  0.00    +0.033 C 
ATOM      8  C   UNL     1      -0.388  -0.493   0.038  0.00  0.00    +0.102 C 
BRANCH   8   9
ATOM      9  C   UNL     1       0.210  -1.148   1.257  0.00  0.00    -0.027 A 
ATOM     10  C   UNL     1       1.582  -1.246   1.386  0.00  0.00    +0.007 A 
ATOM     11  C   UNL     1       2.130  -1.847   2.504  0.00  0.00    +0.029 A 
ATOM     12  C   UNL     1       1.305  -2.349   3.493  0.00  0.00    +0.105 A 
ATOM     13  C   UNL     1      -0.068  -2.249   3.364  0.00  0.00    +0.029 A 
ATOM     14  C   UNL     1      -0.615  -1.645   2.248  0.00  0.00    +0.007 A 
BRANCH  12  15
ATOM     15  S   UNL     1       2.003  -3.116   4.917  0.00  0.00    +0.058 S 
ATOM     16  O   UNL     1       1.010  -3.989   5.437  0.00  0.00    -0.153 OA
ATOM     17  O   UNL     1       3.296  -3.571   4.541  0.00  0.00    -0.153 OA
BRANCH  15  18
ATOM     18  N   UNL     1       2.230  -1.929   6.050  0.00  0.00    -0.193 NA
ATOM     19  C   UNL     1       1.076  -1.234   6.625  0.00  0.00    +0.127 C 
ATOM     20  H   UNL     1       3.128  -1.695   6.334  0.00  0.00    +0.148 HD
ENDBRANCH  15  18
ENDBRANCH  12  15
ENDBRANCH   8   9
ENDBRANCH   1   8
BRANCH   4  21
ATOM     21  C   UNL     1      -0.167  -1.221  -4.774  0.00  0.00    +0.094 C 
BRANCH  21  22
ATOM     22  C   UNL     1       0.864  -1.572  -5.849  0.00  0.00    -0.050 C 
ATOM     23  C   UNL     1       1.964  -0.492  -5.897  0.00  0.00    -0.010 C 
ATOM     24  C   UNL     1       2.302  -0.361  -7.403  0.00  0.00    -0.001 C 
ATOM     25  C   UNL     1       0.916  -0.508  -8.078  0.00  0.00    -0.001 C 
ATOM     26  C   UNL     1       0.197  -1.582  -7.236  0.00  0.00    -0.010 C 
BRANCH  22  27
ATOM     27  N   UNL     1       1.458  -2.885  -5.566  0.00  0.00    +0.381 N 
ATOM     28  C   UNL     1       0.409  -3.913  -5.596  0.00  0.00    -0.096 C 
ATOM     29  C   UNL     1       2.473  -3.192  -6.583  0.00  0.00    -0.096 C 
ATOM     30  H   UNL     1       1.889  -2.870  -4.654  0.00  0.00    -0.082 HD
ENDBRANCH  22  27
ENDBRANCH  21  22
ENDBRANCH   4  21
TORSDOF 7
