REMARK  Name = ZINC38288216
REMARK  10 active torsions:
REMARK  status: ('A' for Active; 'I' for Inactive)
REMARK    1  A    between atoms: C_1  and  C_2
REMARK    2  A    between atoms: C_4  and  C_36
REMARK    3  A    between atoms: C_6  and  N_8
REMARK    4  A    between atoms: C_9  and  C_11
REMARK    5  A    between atoms: C_14  and  C_35
REMARK    6  A    between atoms: C_15  and  C_16
REMARK    7  A    between atoms: C_15  and  C_17
REMARK    8  A    between atoms: N_19  and  O_20
REMARK    9  A    between atoms: O_20  and  C_21
REMARK   10  A    between atoms: C_21  and  C_23
REMARK                            x       y       z     vdW  Elec       q    Type
REMARK                         _______ _______ _______ _____ _____    ______ ____
ROOT
ATOM      1  C   UNL     1       0.280  -2.900   4.854  0.00  0.00    +0.058 C 
ATOM      2  C   UNL     1      -0.913  -3.835   5.219  0.00  0.00    +0.018 C 
ATOM      3  C   UNL     1      -0.759  -4.083   6.738  0.00  0.00    +0.014 C 
ATOM      4  C   UNL     1       0.506  -3.266   7.142  0.00  0.00    +0.015 C 
ATOM      5  C   UNL     1       0.389  -2.044   6.165  0.00  0.00    -0.010 C 
ATOM      6  C   UNL     1       1.636  -1.157   6.172  0.00  0.00    +0.013 C 
ATOM      7  C   UNL     1      -0.884  -1.237   6.433  0.00  0.00    +0.013 C 
ATOM      8  C   UNL     1       1.677  -4.031   6.508  0.00  0.00    +0.066 C 
ATOM      9  N   UNL     1       2.577  -4.712   7.111  0.00  0.00    -0.083 NA
ATOM     10  C   UNL     1       1.552  -3.791   4.999  0.00  0.00    +0.071 C 
ATOM     11  C   UNL     1       0.637  -2.931   8.629  0.00  0.00    +0.018 C 
ENDROOT
BRANCH   1  13
ATOM     12  N   UNL     1       0.052  -2.797   2.393  0.00  0.00    -0.285 N 
ATOM     13  C   UNL     1       0.150  -2.134   3.562  0.00  0.00    +0.224 C 
ATOM     14  O   UNL     1       0.134  -0.922   3.575  0.00  0.00    -0.275 OA
ATOM     15  H   UNL     1      -0.012  -3.765   2.388  0.00  0.00    +0.155 HD
BRANCH  12  21
ATOM     16  C   UNL     1      -1.512  -2.365  -2.248  0.00  0.00    +0.044 C 
ATOM     17  C   UNL     1      -0.707  -1.857  -1.080  0.00  0.00    -0.048 A 
ATOM     18  C   UNL     1       0.025  -0.690  -1.201  0.00  0.00    +0.006 A 
ATOM     19  C   UNL     1       0.765  -0.220  -0.131  0.00  0.00    -0.048 A 
ATOM     20  C   UNL     1       0.776  -0.917   1.061  0.00  0.00    +0.026 A 
ATOM     21  C   UNL     1       0.043  -2.089   1.186  0.00  0.00    +0.034 A 
ATOM     22  C   UNL     1      -0.704  -2.555   0.112  0.00  0.00    +0.026 A 
ATOM     23  C   UNL     1       1.561   1.052  -0.268  0.00  0.00    +0.044 C 
ENDBRANCH  12  21
ENDBRANCH   1  13
BRANCH   9  24
ATOM     24  O   UNL     1       2.555  -4.820   8.523  0.00  0.00    -0.312 OA
BRANCH  24  25
ATOM     25  C   UNL     1       3.557  -5.564   9.031  0.00  0.00    +0.373 C 
ATOM     26  O   UNL     1       4.375  -6.072   8.288  0.00  0.00    -0.242 OA
BRANCH  25  27
ATOM     27  C   UNL     1       3.661  -5.763  10.485  0.00  0.00    +0.146 A 
ATOM     28  C   UNL     1       4.686  -6.521  11.039  0.00  0.00    +0.033 A 
ATOM     29  C   UNL     1       4.702  -6.694  12.446  0.00  0.00    +0.018 A 
ATOM     30  C   UNL     1       5.811  -7.274  13.080  0.00  0.00    +0.011 A 
ATOM     31  C   UNL     1       5.829  -7.395  14.439  0.00  0.00    +0.001 A 
ATOM     32  C   UNL     1       4.755  -6.956  15.202  0.00  0.00    +0.004 A 
ATOM     33  C   UNL     1       3.645  -6.401  14.598  0.00  0.00    +0.047 A 
ATOM     34  C   UNL     1       3.601  -6.273  13.217  0.00  0.00    +0.139 A 
ATOM     35  O   UNL     1       2.500  -5.769  12.610  0.00  0.00    -0.422 OA
ATOM     36  C   UNL     1       2.686  -5.161  11.413  0.00  0.00    +0.352 A 
ATOM     37  O   UNL     1       2.068  -4.157  11.112  0.00  0.00    -0.244 OA
ENDBRANCH  25  27
ENDBRANCH  24  25
ENDBRANCH   9  24
TORSDOF 5
