REMARK  Name = ZINC19945875
REMARK  8 active torsions:
REMARK  status: ('A' for Active; 'I' for Inactive)
REMARK    1  A    between atoms: C_4  and  N_7
REMARK    2  A    between atoms: N_7  and  S_8
REMARK    3  A    between atoms: S_8  and  C_11
REMARK    4  A    between atoms: C_14  and  N_17
REMARK    5  A    between atoms: C_18  and  C_19
REMARK    6  A    between atoms: C_22  and  O_25
REMARK    7  A    between atoms: O_25  and  C_26
REMARK    8  A    between atoms: C_26  and  C_27
REMARK                            x       y       z     vdW  Elec       q    Type
REMARK                         _______ _______ _______ _____ _____    ______ ____
ROOT
ATOM      1  C   UNL     1       2.624  -3.189   0.323  0.00  0.00    +0.109 A 
ATOM      2  C   UNL     1       1.292  -3.156   0.697  0.00  0.00    +0.031 A 
ATOM      3  C   UNL     1       0.413  -4.102   0.213  0.00  0.00    +0.029 A 
ATOM      4  C   UNL     1       0.869  -5.095  -0.657  0.00  0.00    +0.064 A 
ATOM      5  C   UNL     1       2.215  -5.122  -1.031  0.00  0.00    +0.029 A 
ATOM      6  C   UNL     1       3.082  -4.167  -0.543  0.00  0.00    +0.031 A 
ENDROOT
BRANCH   1   7
ATOM      7  S   UNL     1       3.740  -1.977   0.946  0.00  0.00    +0.072 S 
ATOM      8  O   UNL     1       5.050  -2.497   0.761  0.00  0.00    -0.150 OA
ATOM      9  O   UNL     1       3.248  -1.589   2.221  0.00  0.00    -0.150 OA
BRANCH   7  10
ATOM     10  N   UNL     1       3.617  -0.648  -0.034  0.00  0.00    -0.216 N 
ATOM     11  H   UNL     1       3.319   0.199   0.333  0.00  0.00    +0.174 HD
BRANCH  10  15
ATOM     12  C   UNL     1       4.584  -0.940  -4.073  0.00  0.00    +0.000 A 
ATOM     13  C   UNL     1       3.421  -0.299  -3.687  0.00  0.00    +0.002 A 
ATOM     14  C   UNL     1       3.097  -0.200  -2.348  0.00  0.00    +0.024 A 
ATOM     15  C   UNL     1       3.941  -0.746  -1.389  0.00  0.00    +0.048 A 
ATOM     16  C   UNL     1       5.108  -1.389  -1.780  0.00  0.00    +0.024 A 
ATOM     17  C   UNL     1       5.426  -1.484  -3.121  0.00  0.00    +0.002 A 
ENDBRANCH  10  15
ENDBRANCH   7  10
ENDBRANCH   1   7
BRANCH   4  18
ATOM     18  N   UNL     1       0.002  -6.037  -1.140  0.00  0.00    -0.255 NA
ATOM     19  C   UNL     1       0.021  -6.352  -2.405  0.00  0.00    +0.119 C 
BRANCH  19  20
ATOM     20  C   UNL     1      -0.911  -7.365  -2.925  0.00  0.00    -0.007 A 
ATOM     21  C   UNL     1      -1.822  -7.987  -2.064  0.00  0.00    +0.013 A 
ATOM     22  C   UNL     1      -2.692  -8.935  -2.555  0.00  0.00    +0.046 A 
ATOM     23  C   UNL     1      -2.666  -9.273  -3.903  0.00  0.00    +0.121 A 
ATOM     24  C   UNL     1      -1.763  -8.658  -4.762  0.00  0.00    +0.046 A 
ATOM     25  C   UNL     1      -0.893  -7.705  -4.282  0.00  0.00    +0.013 A 
BRANCH  23  26
ATOM     26  O   UNL     1      -3.526 -10.207  -4.383  0.00  0.00    -0.487 OA
BRANCH  26  27
ATOM     27  C   UNL     1      -3.447 -10.508  -5.778  0.00  0.00    +0.264 C 
BRANCH  27  28
ATOM     28  C   UNL     1      -4.469 -11.559  -6.125  0.00  0.00    -0.010 A 
ATOM     29  C   UNL     1      -4.136 -12.898  -6.048  0.00  0.00    +0.008 A 
ATOM     30  C   UNL     1      -5.074 -13.863  -6.366  0.00  0.00    +0.020 A 
ATOM     31  C   UNL     1      -6.345 -13.488  -6.761  0.00  0.00    +0.041 A 
ATOM     32  C   UNL     1      -6.678 -12.147  -6.838  0.00  0.00    +0.020 A 
ATOM     33  C   UNL     1      -5.741 -11.184  -6.514  0.00  0.00    +0.008 A 
ATOM     34 CL   UNL     1      -7.523 -14.699  -7.161  0.00  0.00    -0.084 Cl
ENDBRANCH  27  28
ENDBRANCH  26  27
ENDBRANCH  23  26
ENDBRANCH  19  20
ENDBRANCH   4  18
TORSDOF 8
