REMARK  Name = ZINC34692289
REMARK  11 active torsions:
REMARK  status: ('A' for Active; 'I' for Inactive)
REMARK    1  A    between atoms: C_1  and  C_2
REMARK    2  A    between atoms: C_5  and  C_8
REMARK    3  A    between atoms: N_10  and  C_11
REMARK    4  A    between atoms: N_10  and  C_16
REMARK    5  A    between atoms: C_11  and  C_12
REMARK    6  A    between atoms: C_12  and  N_13
REMARK    7  A    between atoms: N_13  and  C_14
REMARK    8  A    between atoms: N_13  and  C_15
REMARK    9  A    between atoms: C_16  and  C_17
REMARK   10  A    between atoms: N_26  and  C_27
REMARK   11  A    between atoms: C_27  and  C_28
REMARK                            x       y       z     vdW  Elec       q    Type
REMARK                         _______ _______ _______ _____ _____    ______ ____
ROOT
ATOM      1  C   UNL     1      -0.011  -6.426   1.150  0.00  0.00    +0.141 C 
ENDROOT
BRANCH   1   2
ATOM      2  C   UNL     1       1.450  -6.881   1.151  0.00  0.00    +0.153 C 
ATOM      3  C   UNL     1       1.514  -8.398   0.937  0.00  0.00    +0.142 C 
ATOM      4  N   UNL     1       2.906  -8.835   1.129  0.00  0.00    -0.281 N 
ATOM      5  C   UNL     1       3.603  -8.407   2.352  0.00  0.00    +0.137 C 
ATOM      6  C   UNL     1       3.437  -6.890   2.498  0.00  0.00    +0.179 C 
ATOM      7  O   UNL     1       2.049  -6.557   2.408  0.00  0.00    -0.372 OA
ATOM      8  C   UNL     1       3.524  -9.605   0.212  0.00  0.00    +0.303 C 
ATOM      9  O   UNL     1       2.972  -9.858  -0.842  0.00  0.00    -0.253 OA
ATOM     10  N   UNL     1       4.755 -10.094   0.462  0.00  0.00    -0.295 N 
ATOM     11  H   UNL     1       5.163  -9.960   1.331  0.00  0.00    +0.151 HD
BRANCH  10  12
ATOM     12  C   UNL     1       5.476 -10.830  -0.580  0.00  0.00    +0.141 C 
BRANCH  12  13
ATOM     13  C   UNL     1       6.817 -11.266  -0.049  0.00  0.00    -0.030 A 
ATOM     14  C   UNL     1       7.917 -10.440  -0.188  0.00  0.00    +0.005 A 
ATOM     15  C   UNL     1       9.148 -10.840   0.299  0.00  0.00    +0.000 A 
ATOM     16  C   UNL     1       9.278 -12.066   0.924  0.00  0.00    +0.000 A 
ATOM     17  C   UNL     1       8.178 -12.892   1.063  0.00  0.00    +0.000 A 
ATOM     18  C   UNL     1       6.947 -12.490   0.580  0.00  0.00    +0.005 A 
ENDBRANCH  12  13
ENDBRANCH  10  12
ENDBRANCH   1   2
BRANCH   1  21
ATOM     19  C   UNL     1      -0.259  -4.233   0.117  0.00  0.00    +0.247 C 
ATOM     20  O   UNL     1      -0.207  -3.020   0.169  0.00  0.00    -0.270 OA
ATOM     21  N   UNL     1      -0.068  -4.965   1.233  0.00  0.00    -0.297 N 
BRANCH  19  26
ATOM     22  C   UNL     1      -1.327  -6.855  -4.893  0.00  0.00    +0.044 C 
ATOM     23  C   UNL     1      -1.048  -6.169  -3.581  0.00  0.00    -0.050 A 
ATOM     24  C   UNL     1      -0.013  -6.614  -2.777  0.00  0.00    +0.004 A 
ATOM     25  C   UNL     1       0.248  -5.990  -1.575  0.00  0.00    +0.013 A 
ATOM     26  C   UNL     1      -0.533  -4.907  -1.170  0.00  0.00    +0.037 A 
ATOM     27  C   UNL     1      -1.575  -4.463  -1.986  0.00  0.00    +0.013 A 
ATOM     28  C   UNL     1      -1.823  -5.092  -3.188  0.00  0.00    +0.004 A 
ENDBRANCH  19  26
BRANCH  21  29
ATOM     29  C   UNL     1       0.084  -4.298   2.529  0.00  0.00    +0.089 C 
BRANCH  29  30
ATOM     30  C   UNL     1      -1.274  -4.234   3.231  0.00  0.00    -0.060 C 
BRANCH  30  31
ATOM     31  N   UNL     1      -1.122  -3.566   4.530  0.00  0.00    +0.377 N 
ATOM     32  C   UNL     1      -2.442  -3.397   5.152  0.00  0.00    -0.097 C 
ATOM     33  C   UNL     1      -0.270  -4.383   5.405  0.00  0.00    -0.097 C 
ATOM     34  H   UNL     1      -0.696  -2.662   4.396  0.00  0.00    -0.083 HD
ENDBRANCH  30  31
ENDBRANCH  29  30
ENDBRANCH  21  29
ENDBRANCH   1  21
TORSDOF 8
