REMARK  Name = ZINC43209059
REMARK  13 active torsions:
REMARK  status: ('A' for Active; 'I' for Inactive)
REMARK    1  A    between atoms: C_1  and  O_2
REMARK    2  A    between atoms: O_2  and  C_3
REMARK    3  A    between atoms: C_3  and  C_5
REMARK    4  A    between atoms: C_8  and  C_11
REMARK    5  A    between atoms: C_11  and  C_13
REMARK    6  A    between atoms: C_11  and  N_30
REMARK    7  A    between atoms: C_13  and  C_15
REMARK    8  A    between atoms: C_13  and  C_27
REMARK    9  A    between atoms: C_15  and  N_16
REMARK   10  A    between atoms: N_16  and  C_17
REMARK   11  A    between atoms: C_17  and  C_18
REMARK   12  A    between atoms: N_30  and  C_31
REMARK   13  A    between atoms: C_31  and  C_32
REMARK                            x       y       z     vdW  Elec       q    Type
REMARK                         _______ _______ _______ _____ _____    ______ ____
ROOT
ATOM      1  C   UNL     1       0.730  -6.681   0.999  0.00  0.00    -0.028 C 
ENDROOT
BRANCH   1   5
ATOM      2  C   UNL     1       0.572  -2.423   0.637  0.00  0.00    +0.059 A 
ATOM      3  C   UNL     1       0.034  -3.232  -0.366  0.00  0.00    +0.015 A 
ATOM      4  C   UNL     1       0.088  -4.605  -0.243  0.00  0.00    +0.003 A 
ATOM      5  C   UNL     1       0.674  -5.181   0.871  0.00  0.00    -0.061 A 
ATOM      6  C   UNL     1       1.209  -4.384   1.868  0.00  0.00    +0.003 A 
ATOM      7  C   UNL     1       1.167  -3.010   1.755  0.00  0.00    +0.015 A 
BRANCH   2   8
ATOM      8  C   UNL     1       0.518  -0.952   0.512  0.00  0.00    +0.339 C 
ATOM      9  O   UNL     1       0.991  -0.251   1.383  0.00  0.00    -0.245 OA
BRANCH   8  11
ATOM     10  C   UNL     1      -0.074   1.039  -0.624  0.00  0.00    +0.280 C 
ATOM     11  O   UNL     1      -0.057  -0.389  -0.569  0.00  0.00    -0.464 OA
ENDBRANCH   8  11
ENDBRANCH   2   8
ENDBRANCH   1   5
BRANCH   1  12
ATOM     12  N   UNL     1       2.030  -7.077   1.556  0.00  0.00    +0.387 N 
ATOM     13  H   UNL     1       2.187  -6.587   2.423  0.00  0.00    -0.085 HD
ATOM     14  H   UNL     1       2.033  -8.072   1.726  0.00  0.00    -0.085 HD
BRANCH  12  15
ATOM     15  C   UNL     1       3.095  -6.740   0.602  0.00  0.00    -0.046 C 
BRANCH  15  16
ATOM     16  C   UNL     1       4.413  -7.259   1.117  0.00  0.00    -0.061 A 
ATOM     17  C   UNL     1       5.198  -6.462   1.929  0.00  0.00    +0.005 A 
ATOM     18  C   UNL     1       6.407  -6.934   2.404  0.00  0.00    +0.050 A 
ATOM     19  C   UNL     1       6.836  -8.207   2.066  0.00  0.00    +0.166 A 
ATOM     20  C   UNL     1       6.045  -9.009   1.247  0.00  0.00    +0.166 A 
ATOM     21  C   UNL     1       4.832  -8.532   0.780  0.00  0.00    +0.051 A 
ATOM     22  O   UNL     1       6.680 -10.204   1.063  0.00  0.00    -0.453 OA
ATOM     23  C   UNL     1       8.051  -9.973   1.440  0.00  0.00    +0.466 C 
ATOM     24  O   UNL     1       7.966  -8.898   2.394  0.00  0.00    -0.453 OA
ENDBRANCH  15  16
ENDBRANCH  12  15
ENDBRANCH   1  12
BRANCH   1  25
ATOM     25  C   UNL     1      -0.390  -7.156   1.927  0.00  0.00    +0.075 C 
BRANCH  25  26
ATOM     26  C   UNL     1      -0.287  -8.647   2.116  0.00  0.00    +0.356 C 
ATOM     27  O   UNL     1      -0.123  -9.111   3.232  0.00  0.00    -0.246 OA
ATOM     28  O   UNL     1      -0.369  -9.391   1.153  0.00  0.00    -0.246 OA
ENDBRANCH  25  26
BRANCH  25  29
ATOM     29  C   UNL     1      -1.746  -6.812   1.309  0.00  0.00    -0.069 C 
BRANCH  29  30
ATOM     30  N   UNL     1      -2.819  -7.199   2.235  0.00  0.00    +0.382 N 
ATOM     31  H   UNL     1      -2.771  -8.192   2.409  0.00  0.00    -0.085 HD
ATOM     32  H   UNL     1      -2.709  -6.699   3.104  0.00  0.00    -0.085 HD
BRANCH  30  33
ATOM     33  C   UNL     1      -4.121  -6.869   1.641  0.00  0.00    -0.047 C 
BRANCH  33  34
ATOM     34  C   UNL     1      -5.222  -7.266   2.591  0.00  0.00    -0.061 A 
ATOM     35  C   UNL     1      -5.766  -8.535   2.523  0.00  0.00    +0.005 A 
ATOM     36  C   UNL     1      -6.775  -8.904   3.393  0.00  0.00    +0.050 A 
ATOM     37  C   UNL     1      -7.244  -8.002   4.334  0.00  0.00    +0.166 A 
ATOM     38  C   UNL     1      -6.696  -6.724   4.402  0.00  0.00    +0.166 A 
ATOM     39  C   UNL     1      -5.681  -6.363   3.531  0.00  0.00    +0.051 A 
ATOM     40  O   UNL     1      -7.321  -6.033   5.400  0.00  0.00    -0.453 OA
ATOM     41  C   UNL     1      -8.533  -6.761   5.670  0.00  0.00    +0.466 C 
ATOM     42  O   UNL     1      -8.213  -8.113   5.290  0.00  0.00    -0.453 OA
ENDBRANCH  33  34
ENDBRANCH  30  33
ENDBRANCH  29  30
ENDBRANCH  25  29
ENDBRANCH   1  25
TORSDOF 12
