REMARK  Name = ZINC47913057
REMARK  4 active torsions:
REMARK  status: ('A' for Active; 'I' for Inactive)
REMARK    1  A    between atoms: C_1  and  C_2
REMARK    2  A    between atoms: C_5  and  C_16
REMARK    3  A    between atoms: C_8  and  N_15
REMARK    4  A    between atoms: C_9  and  C_12
REMARK                            x       y       z     vdW  Elec       q    Type
REMARK                         _______ _______ _______ _____ _____    ______ ____
ROOT
ATOM      1  C   UNL     1      -0.235   1.449  -0.021  0.00  0.00    +0.044 C 
ATOM      2  C   UNL     1       0.024  -0.035  -0.019  0.00  0.00    -0.040 A 
ATOM      3  C   UNL     1       0.154  -0.710  -1.196  0.00  0.00    +0.004 A 
ATOM      4  C   UNL     1       0.393  -2.081  -1.209  0.00  0.00    +0.005 A 
ATOM      5  C   UNL     1       0.504  -2.785  -0.047  0.00  0.00    -0.027 A 
ATOM      6  C   UNL     1       0.376  -2.124   1.185  0.00  0.00    +0.051 A 
ATOM      7  C   UNL     1       0.139  -0.729   1.194  0.00  0.00    +0.023 A 
ATOM      8  C   UNL     1       0.015  -0.060   2.436  0.00  0.00    +0.050 A 
ATOM      9  C   UNL     1       0.141  -0.826   3.606  0.00  0.00    +0.100 A 
ATOM     10  C   UNL     1       0.383  -2.207   3.501  0.00  0.00    +0.100 A 
ATOM     11  N   UNL     1       0.482  -2.799   2.339  0.00  0.00    -0.360 N 
ATOM     12  C   UNL     1       0.762  -4.269  -0.084  0.00  0.00    +0.046 C 
ATOM     13  H   UNL     1       0.649  -3.754   2.311  0.00  0.00    +0.165 HD
ENDROOT
BRANCH   9  14
ATOM     14  C   UNL     1       0.023  -0.192   4.925  0.00  0.00    +0.390 C 
ATOM     15  O   UNL     1       0.031  -0.879   5.938  0.00  0.00    -0.240 OA
ATOM     16  O   UNL     1      -0.083   1.025   5.012  0.00  0.00    -0.240 OA
ENDBRANCH   9  14
BRANCH   8  17
ATOM     17  N   UNL     1      -0.221   1.294   2.494  0.00  0.00    -0.357 N 
ATOM     18  H   UNL     1      -0.884   1.645   3.109  0.00  0.00    +0.142 HD
ATOM     19  H   UNL     1       0.275   1.898   1.919  0.00  0.00    +0.142 HD
ENDBRANCH   8  17
TORSDOF 2
