REMARK  Name = ZINC24150477
REMARK  5 active torsions:
REMARK  status: ('A' for Active; 'I' for Inactive)
REMARK    1  A    between atoms: C_1  and  C_2
REMARK    2  A    between atoms: C_4  and  O_5
REMARK    3  A    between atoms: C_14  and  C_16
REMARK    4  A    between atoms: C_16  and  C_17
REMARK    5  A    between atoms: C_17  and  C_24
REMARK                            x       y       z     vdW  Elec       q    Type
REMARK                         _______ _______ _______ _____ _____    ______ ____
ROOT
ATOM      1  C   UNL     1      -5.051   7.432  -3.994  0.00  0.00    +0.045 C 
ATOM      2  C   UNL     1      -4.645   6.797  -2.689  0.00  0.00    -0.033 A 
ATOM      3  C   UNL     1      -4.608   7.524  -1.542  0.00  0.00    +0.091 A 
ATOM      4  C   UNL     1      -4.225   6.907  -0.333  0.00  0.00    +0.285 A 
ATOM      5  O   UNL     1      -3.891   5.608  -0.279  0.00  0.00    -0.425 OA
ATOM      6  C   UNL     1      -3.906   4.830  -1.383  0.00  0.00    +0.141 A 
ATOM      7  C   UNL     1      -4.278   5.381  -2.624  0.00  0.00    +0.021 A 
ATOM      8  C   UNL     1      -4.296   4.579  -3.770  0.00  0.00    +0.013 A 
ATOM      9  C   UNL     1      -3.945   3.263  -3.683  0.00  0.00    +0.024 A 
ATOM     10  C   UNL     1      -3.581   2.709  -2.456  0.00  0.00    +0.037 A 
ATOM     11  C   UNL     1      -3.558   3.490  -1.310  0.00  0.00    +0.070 A 
ATOM     12  N   UNL     1      -3.231   1.361  -2.381  0.00  0.00    -0.285 N 
ATOM     13  C   UNL     1      -2.282   0.957  -1.513  0.00  0.00    +0.218 C 
ATOM     14  O   UNL     1      -1.663   1.777  -0.868  0.00  0.00    -0.275 OA
ATOM     15  H   UNL     1      -3.729   0.626  -3.032  0.00  0.00    +0.155 HD
ENDROOT
BRANCH   4  16
ATOM     16  O   UNL     1      -4.197   7.569   0.688  0.00  0.00    -0.480 OA
ATOM     17  H   UNL     1      -3.900   7.103   1.639  0.00  0.00    +0.295 HD
ENDBRANCH   4  16
BRANCH  13  18
ATOM     18  C   UNL     1      -1.991  -0.511  -1.344  0.00  0.00    +0.114 C 
BRANCH  18  19
ATOM     19  C   UNL     1      -0.997  -0.705  -0.197  0.00  0.00    +0.080 C 
ATOM     20  C   UNL     1      -0.924  -2.205   0.149  0.00  0.00    +0.019 C 
ATOM     21  C   UNL     1      -0.045  -3.003  -0.833  0.00  0.00    +0.001 C 
ATOM     22  C   UNL     1      -0.260  -2.590  -2.264  0.00  0.00    +0.000 C 
ATOM     23  C   UNL     1       0.795  -1.527  -2.631  0.00  0.00    +0.000 C 
ATOM     24  C   UNL     1       0.439  -0.202  -2.147  0.00  0.00    +0.001 C 
ATOM     25  C   UNL     1       0.337  -0.144  -0.609  0.00  0.00    +0.019 C 
BRANCH  19  26
ATOM     26  C   UNL     1      -1.492   0.050   1.009  0.00  0.00    +0.362 C 
ATOM     27  O   UNL     1      -0.779   0.866   1.546  0.00  0.00    -0.246 OA
ATOM     28  O   UNL     1      -2.724  -0.182   1.488  0.00  0.00    -0.246 OA
ENDBRANCH  19  26
ENDBRANCH  18  19
ENDBRANCH  13  18
TORSDOF 4
