REMARK  Name = ZINC12999227
REMARK  8 active torsions:
REMARK  status: ('A' for Active; 'I' for Inactive)
REMARK    1  A    between atoms: C_1  and  C_2
REMARK    2  A    between atoms: C_2  and  N_3
REMARK    3  A    between atoms: C_4  and  C_6
REMARK    4  A    between atoms: C_6  and  C_8
REMARK    5  A    between atoms: C_6  and  S_9
REMARK    6  A    between atoms: S_9  and  C_10
REMARK    7  A    between atoms: N_23  and  C_24
REMARK    8  A    between atoms: C_28  and  C_30
REMARK                            x       y       z     vdW  Elec       q    Type
REMARK                         _______ _______ _______ _____ _____    ______ ____
ROOT
ATOM      1  C   UNL     1      -1.265   5.898  -0.067  0.00  0.00    +0.178 A 
ATOM      2  N   UNL     1      -1.317   7.215  -0.059  0.00  0.00    -0.215 NA
ATOM      3  C   UNL     1      -0.206   7.938   0.031  0.00  0.00    +0.118 A 
ATOM      4  C   UNL     1       1.064   7.349   0.128  0.00  0.00    +0.077 A 
ATOM      5  C   UNL     1       2.203   8.273   0.227  0.00  0.00    -0.012 A 
ATOM      6  C   UNL     1       1.901   9.594   0.202  0.00  0.00    +0.051 A 
ATOM      7  S   UNL     1       0.139   9.679   0.064  0.00  0.00    -0.062 S 
ATOM      8  S   UNL     1       3.040  10.930   0.285  0.00  0.00    -0.118 S 
ATOM      9  C   UNL     1       4.583  10.065   0.734  0.00  0.00    +0.075 C 
ATOM     10  C   UNL     1       4.647   8.789  -0.118  0.00  0.00    +0.016 C 
ATOM     11  C   UNL     1       3.631   7.766   0.363  0.00  0.00    +0.038 C 
ATOM     12  C   UNL     1       1.091   5.919   0.122  0.00  0.00    +0.268 A 
ATOM     13  O   UNL     1       2.150   5.320   0.201  0.00  0.00    -0.267 OA
ATOM     14  N   UNL     1      -0.069   5.243   0.028  0.00  0.00    -0.255 N 
ENDROOT
BRANCH  14  15
ATOM     15  C   UNL     1      -0.050   3.842   0.022  0.00  0.00    +0.052 A 
ATOM     16  C   UNL     1       0.056   3.153  -1.179  0.00  0.00    +0.026 A 
ATOM     17  C   UNL     1       0.081   1.773  -1.182  0.00  0.00    +0.002 A 
ATOM     18  C   UNL     1      -0.011   1.076   0.009  0.00  0.00    +0.003 A 
ATOM     19  C   UNL     1      -0.117   1.759   1.207  0.00  0.00    -0.048 A 
ATOM     20  C   UNL     1      -0.137   3.140   1.216  0.00  0.00    +0.029 A 
ATOM     21  C   UNL     1      -0.211   0.996   2.503  0.00  0.00    +0.044 C 
ENDBRANCH  14  15
BRANCH   1  22
ATOM     22  S   UNL     1      -2.758   4.970  -0.194  0.00  0.00    -0.075 S 
BRANCH  22  23
ATOM     23  C   UNL     1      -3.960   6.320  -0.286  0.00  0.00    +0.137 C 
ATOM     24  C   UNL     1      -3.953   7.100   1.030  0.00  0.00    +0.029 C 
BRANCH  23  26
ATOM     25  N   UNL     1      -6.282   6.507  -1.118  0.00  0.00    -0.315 N 
ATOM     26  C   UNL     1      -5.335   5.752  -0.526  0.00  0.00    +0.226 C 
ATOM     27  O   UNL     1      -5.590   4.616  -0.187  0.00  0.00    -0.275 OA
ATOM     28  H   UNL     1      -6.078   7.416  -1.389  0.00  0.00    +0.149 HD
BRANCH  25  30
ATOM     29  C   UNL     1      -8.494   7.010  -2.031  0.00  0.00    +0.024 C 
ATOM     30  C   UNL     1      -7.619   5.955  -1.352  0.00  0.00    +0.101 C 
ENDBRANCH  25  30
ENDBRANCH  23  26
ENDBRANCH  22  23
ENDBRANCH   1  22
TORSDOF 5
