REMARK  Name = ZINC60388739
REMARK  10 active torsions:
REMARK  status: ('A' for Active; 'I' for Inactive)
REMARK    1  A    between atoms: C_1  and  C_2
REMARK    2  A    between atoms: C_2  and  O_3
REMARK    3  A    between atoms: O_3  and  C_4
REMARK    4  A    between atoms: C_4  and  C_6
REMARK    5  A    between atoms: C_10  and  N_11
REMARK    6  A    between atoms: C_12  and  C_14
REMARK    7  A    between atoms: C_14  and  N_15
REMARK    8  A    between atoms: C_18  and  C_23
REMARK    9  A    between atoms: C_23  and  C_24
REMARK   10  A    between atoms: C_31  and  C_35
REMARK                            x       y       z     vdW  Elec       q    Type
REMARK                         _______ _______ _______ _____ _____    ______ ____
ROOT
ATOM      1  N   UNL     1      -3.033  -2.524   2.498  0.00  0.00    -0.278 N 
ATOM      2  C   UNL     1      -3.808  -2.867   3.546  0.00  0.00    +0.236 C 
ATOM      3  O   UNL     1      -4.910  -3.337   3.357  0.00  0.00    -0.274 OA
ATOM      4  H   UNL     1      -2.152  -2.147   2.650  0.00  0.00    +0.155 HD
ENDROOT
BRANCH   1   9
ATOM      5  C   UNL     1      -2.842  -2.416   0.016  0.00  0.00    +0.091 A 
ATOM      6  C   UNL     1      -3.548  -2.714  -1.219  0.00  0.00    -0.021 A 
ATOM      7  C   UNL     1      -4.777  -3.242  -1.039  0.00  0.00    -0.004 A 
ATOM      8  S   UNL     1      -4.974  -3.335   0.716  0.00  0.00    -0.077 S 
ATOM      9  C   UNL     1      -3.495  -2.708   1.205  0.00  0.00    +0.086 A 
ATOM     10  C   UNL     1      -5.745  -3.651  -2.106  0.00  0.00    +0.046 C 
ATOM     11  C   UNL     1      -5.287  -3.033  -3.435  0.00  0.00    -0.009 C 
ATOM     12  C   UNL     1      -3.790  -3.300  -3.616  0.00  0.00    +0.008 C 
ATOM     13  C   UNL     1      -2.988  -2.468  -2.612  0.00  0.00    +0.037 C 
ATOM     14  C   UNL     1      -6.066  -3.666  -4.590  0.00  0.00    +0.008 C 
BRANCH   5  15
ATOM     15  C   UNL     1      -1.497  -1.838   0.006  0.00  0.00    +0.342 C 
ATOM     16  O   UNL     1      -0.523  -2.566  -0.007  0.00  0.00    -0.245 OA
BRANCH  15  17
ATOM     17  O   UNL     1      -1.339  -0.499   0.012  0.00  0.00    -0.461 OA
BRANCH  17  19
ATOM     18  C   UNL     1      -0.019   1.526   0.010  0.00  0.00    +0.048 C 
ATOM     19  C   UNL     1       0.002  -0.004   0.002  0.00  0.00    +0.229 C 
ENDBRANCH  17  19
ENDBRANCH  15  17
ENDBRANCH   5  15
ENDBRANCH   1   9
BRANCH   2  20
ATOM     20  C   UNL     1      -3.306  -2.666   4.953  0.00  0.00    +0.214 C 
BRANCH  20  21
ATOM     21  N   UNL     1      -4.327  -3.113   5.904  0.00  0.00    -0.216 N 
ATOM     22  C   UNL     1      -5.296  -2.321   6.402  0.00  0.00    +0.244 C 
ATOM     23  O   UNL     1      -5.482  -1.149   6.157  0.00  0.00    -0.273 OA
ATOM     24  C   UNL     1      -6.107  -3.202   7.332  0.00  0.00    +0.165 C 
ATOM     25  N   UNL     1      -5.437  -4.511   7.242  0.00  0.00    -0.287 N 
ATOM     26  C   UNL     1      -4.414  -4.360   6.381  0.00  0.00    +0.310 C 
ATOM     27  O   UNL     1      -3.652  -5.256   6.074  0.00  0.00    -0.252 OA
ATOM     28  H   UNL     1      -5.687  -5.323   7.709  0.00  0.00    +0.151 HD
BRANCH  24  29
ATOM     29  C   UNL     1      -6.055  -2.665   8.764  0.00  0.00    +0.067 C 
BRANCH  29  30
ATOM     30  C   UNL     1      -6.965  -3.484   9.642  0.00  0.00    -0.045 A 
ATOM     31  C   UNL     1      -8.290  -3.121   9.794  0.00  0.00    +0.004 A 
ATOM     32  C   UNL     1      -9.125  -3.873  10.599  0.00  0.00    +0.000 A 
ATOM     33  C   UNL     1      -8.635  -4.989  11.252  0.00  0.00    +0.000 A 
ATOM     34  C   UNL     1      -7.311  -5.353  11.098  0.00  0.00    +0.000 A 
ATOM     35  C   UNL     1      -6.477  -4.603  10.290  0.00  0.00    +0.004 A 
ENDBRANCH  29  30
ENDBRANCH  24  29
ENDBRANCH  20  21
ENDBRANCH   2  20
TORSDOF 8
