REMARK  Name = ZINC05581566
REMARK  3 active torsions:
REMARK  status: ('A' for Active; 'I' for Inactive)
REMARK    1  A    between atoms: C_9  and  N_11
REMARK    2  A    between atoms: N_12  and  N_13
REMARK    3  A    between atoms: C_14  and  C_15
REMARK                            x       y       z     vdW  Elec       q    Type
REMARK                         _______ _______ _______ _____ _____    ______ ____
ROOT
ATOM      1  C   UNL     1       0.032   1.296  -1.275  0.00  0.00    +0.002 A 
ATOM      2  C   UNL     1       1.167   2.027  -1.097  0.00  0.00    +0.010 A 
ATOM      3  C   UNL     1       2.394   1.377  -0.889  0.00  0.00    +0.002 A 
ATOM      4  C   UNL     1       3.585   2.107  -0.701  0.00  0.00    +0.013 A 
ATOM      5  C   UNL     1       4.742   1.416  -0.503  0.00  0.00    +0.046 A 
ATOM      6  C   UNL     1       4.725   0.014  -0.491  0.00  0.00    +0.137 A 
ATOM      7  N   UNL     1       3.609  -0.662  -0.668  0.00  0.00    -0.229 NA
ATOM      8  C   UNL     1       2.443  -0.037  -0.866  0.00  0.00    +0.094 A 
ATOM      9  C   UNL     1       1.250  -0.768  -1.054  0.00  0.00    +0.051 A 
ATOM     10  C   UNL     1       0.065  -0.094  -1.255  0.00  0.00    +0.025 A 
ATOM     11  N   UNL     1       5.912  -0.677  -0.289  0.00  0.00    -0.244 N 
ATOM     12  H   UNL     1       6.740  -0.190  -0.158  0.00  0.00    +0.174 HD
ENDROOT
BRANCH   9  13
ATOM     13  N   UNL     1       1.271  -2.164  -1.036  0.00  0.00    -0.356 N 
ATOM     14  H   UNL     1       2.107  -2.635  -0.894  0.00  0.00    +0.142 HD
ATOM     15  H   UNL     1       0.450  -2.663  -1.165  0.00  0.00    +0.142 HD
ENDBRANCH   9  13
BRANCH  11  16
ATOM     16  N   UNL     1       5.913  -2.078  -0.274  0.00  0.00    -0.312 N 
ATOM     17  C   UNL     1       7.059  -2.745  -0.079  0.00  0.00    +0.110 C 
ATOM     18  H   UNL     1       5.084  -2.565  -0.405  0.00  0.00    +0.184 HD
BRANCH  17  19
ATOM     19  C   UNL     1       7.048  -4.139   0.019  0.00  0.00    +0.039 A 
ATOM     20  C   UNL     1       8.255  -4.866   0.111  0.00  0.00    +0.013 A 
ATOM     21  C   UNL     1       8.224  -6.221   0.206  0.00  0.00    +0.001 A 
ATOM     22  C   UNL     1       7.021  -6.922   0.214  0.00  0.00    +0.004 A 
ATOM     23  C   UNL     1       5.823  -6.282   0.128  0.00  0.00    +0.051 A 
ATOM     24  C   UNL     1       5.781  -4.880   0.035  0.00  0.00    +0.187 A 
ATOM     25  O   UNL     1       4.711  -4.291  -0.038  0.00  0.00    -0.287 OA
ENDBRANCH  17  19
ENDBRANCH  11  16
TORSDOF 3
