REMARK  Name = ZINC40329503
REMARK  4 active torsions:
REMARK  status: ('A' for Active; 'I' for Inactive)
REMARK    1  A    between atoms: C_1  and  C_2
REMARK    2  A    between atoms: C_6  and  C_9
REMARK    3  A    between atoms: C_7  and  N_8
REMARK    4  A    between atoms: C_15  and  C_17
REMARK                            x       y       z     vdW  Elec       q    Type
REMARK                         _______ _______ _______ _____ _____    ______ ____
ROOT
ATOM      1  C   UNL     1       0.420  -2.465   2.611  0.00  0.00    +0.249 C 
ATOM      2  O   UNL     1       0.459  -1.724   3.574  0.00  0.00    -0.270 OA
ATOM      3  N   UNL     1       0.558  -3.795   2.778  0.00  0.00    -0.289 N 
ATOM      4  C   UNL     1       0.635  -4.794   1.696  0.00  0.00    +0.109 C 
ATOM      5  C   UNL     1       0.169  -6.120   2.347  0.00  0.00    +0.021 C 
ATOM      6  C   UNL     1       0.777  -6.000   3.769  0.00  0.00    +0.030 C 
ATOM      7  C   UNL     1       0.664  -4.490   4.069  0.00  0.00    +0.123 C 
ENDROOT
BRANCH   1  13
ATOM      8  C   UNL     1      -1.899   0.726  -0.466  0.00  0.00    +0.045 C 
ATOM      9  C   UNL     1      -0.893  -0.371  -0.230  0.00  0.00    -0.029 A 
ATOM     10  C   UNL     1      -0.150  -0.863  -1.283  0.00  0.00    +0.005 A 
ATOM     11  C   UNL     1       0.778  -1.871  -1.077  0.00  0.00    +0.001 A 
ATOM     12  C   UNL     1       0.968  -2.395   0.183  0.00  0.00    +0.015 A 
ATOM     13  C   UNL     1       0.223  -1.908   1.260  0.00  0.00    +0.058 A 
ATOM     14  C   UNL     1      -0.712  -0.882   1.049  0.00  0.00    +0.040 A 
BRANCH  14  15
ATOM     15  N   UNL     1      -1.455  -0.385   2.111  0.00  0.00    -0.357 N 
ATOM     16  H   UNL     1      -2.023   0.391   1.985  0.00  0.00    +0.142 HD
ATOM     17  H   UNL     1      -1.406  -0.814   2.980  0.00  0.00    +0.142 HD
ENDBRANCH  14  15
ENDBRANCH   1  13
BRANCH   7  18
ATOM     18  C   UNL     1       1.891  -4.018   4.807  0.00  0.00    +0.037 A 
ATOM     19  C   UNL     1       3.065  -3.666   4.244  0.00  0.00    +0.024 A 
ATOM     20  C   UNL     1       3.935  -3.290   5.286  0.00  0.00    +0.019 A 
ATOM     21  C   UNL     1       3.260  -3.426   6.446  0.00  0.00    +0.083 A 
ATOM     22  N   UNL     1       2.003  -3.867   6.157  0.00  0.00    -0.363 N 
ATOM     23  H   UNL     1       1.304  -4.046   6.806  0.00  0.00    +0.165 HD
ENDBRANCH   7  18
TORSDOF 3
