REMARK  Name = ZINC35653588
REMARK  5 active torsions:
REMARK  status: ('A' for Active; 'I' for Inactive)
REMARK    1  A    between atoms: C_1  and  C_2
REMARK    2  A    between atoms: C_7  and  O_8
REMARK    3  A    between atoms: O_8  and  C_9
REMARK    4  A    between atoms: C_9  and  C_10
REMARK    5  A    between atoms: N_12  and  N_13
REMARK                            x       y       z     vdW  Elec       q    Type
REMARK                         _______ _______ _______ _____ _____    ______ ____
ROOT
ATOM      1  C   UNL     1       0.047   0.090   4.775  0.00  0.00    +0.270 C 
ATOM      2  O   UNL     1       0.030   1.294   4.624  0.00  0.00    -0.270 OA
ATOM      3  N   UNL     1       0.066  -0.433   6.017  0.00  0.00    -0.204 N 
ATOM      4  H   UNL     1       0.080  -1.396   6.137  0.00  0.00    +0.177 HD
ENDROOT
BRANCH   3   5
ATOM      5  N   UNL     1       0.066   0.412   7.134  0.00  0.00    -0.184 NA
ATOM      6  C   UNL     1       0.084  -0.092   8.330  0.00  0.00    +0.073 C 
ATOM      7  C   UNL     1       0.112  -1.592   8.564  0.00  0.00    +0.098 C 
ATOM      8  C   UNL     1      -0.817  -1.881   9.752  0.00  0.00    +0.235 C 
ATOM      9  O   UNL     1      -0.361  -1.161  10.897  0.00  0.00    -0.491 OA
ATOM     10  C   UNL     1      -0.152   0.174  10.787  0.00  0.00    +0.129 A 
ATOM     11  C   UNL     1       0.084   0.765   9.536  0.00  0.00    +0.039 A 
ATOM     12  C   UNL     1       0.309   2.135   9.435  0.00  0.00    +0.013 A 
ATOM     13  C   UNL     1       0.300   2.914  10.575  0.00  0.00    +0.001 A 
ATOM     14  C   UNL     1       0.069   2.334  11.811  0.00  0.00    +0.004 A 
ATOM     15  C   UNL     1      -0.165   0.973  11.920  0.00  0.00    +0.046 A 
ENDBRANCH   3   5
BRANCH   1  16
ATOM     16  C   UNL     1       0.048  -0.820   3.574  0.00  0.00    +0.326 C 
BRANCH  16  17
ATOM     17  O   UNL     1       0.025  -0.033   2.381  0.00  0.00    -0.482 OA
BRANCH  17  24
ATOM     18  C   UNL     1      -0.018   1.503   0.010  0.00  0.00    +0.047 C 
ATOM     19  C   UNL     1       0.002  -0.004   0.002  0.00  0.00    -0.009 A 
ATOM     20  C   UNL     1       0.006  -0.689  -1.198  0.00  0.00    +0.007 A 
ATOM     21  C   UNL     1       0.024  -2.071  -1.206  0.00  0.00    +0.000 A 
ATOM     22  C   UNL     1       0.039  -2.772  -0.014  0.00  0.00    +0.004 A 
ATOM     23  C   UNL     1       0.036  -2.092   1.188  0.00  0.00    +0.046 A 
ATOM     24  C   UNL     1       0.023  -0.705   1.199  0.00  0.00    +0.124 A 
ENDBRANCH  17  24
ENDBRANCH  16  17
ENDBRANCH   1  16
TORSDOF 4
