REMARK  Name = ZINC35938660
REMARK  8 active torsions:
REMARK  status: ('A' for Active; 'I' for Inactive)
REMARK    1  A    between atoms: C_1  and  C_2
REMARK    2  A    between atoms: C_2  and  C_4
REMARK    3  A    between atoms: C_2  and  N_23
REMARK    4  A    between atoms: C_12  and  C_14
REMARK    5  A    between atoms: C_14  and  O_15
REMARK    6  A    between atoms: O_15  and  C_16
REMARK    7  A    between atoms: C_16  and  C_17
REMARK    8  A    between atoms: C_31  and  C_33
REMARK                            x       y       z     vdW  Elec       q    Type
REMARK                         _______ _______ _______ _____ _____    ______ ____
ROOT
ATOM      1  C   UNL     1       0.341  -0.306  -1.412  0.00  0.00    +0.202 C 
ATOM      2  O   UNL     1       1.293  -1.048  -1.524  0.00  0.00    -0.277 OA
ATOM      3  N   UNL     1      -0.264   0.186  -2.511  0.00  0.00    -0.300 N 
ATOM      4  C   UNL     1      -1.484   0.997  -2.395  0.00  0.00    +0.126 C 
ATOM      5  C   UNL     1      -1.250   2.337  -3.103  0.00  0.00    +0.127 C 
ATOM      6  N   UNL     1      -0.701   2.073  -4.440  0.00  0.00    -0.297 N 
ATOM      7  C   UNL     1       0.519   1.262  -4.556  0.00  0.00    +0.127 C 
ATOM      8  C   UNL     1       0.289  -0.074  -3.848  0.00  0.00    +0.126 C 
ATOM      9  C   UNL     1      -1.305   2.565  -5.539  0.00  0.00    +0.241 C 
ATOM     10  O   UNL     1      -2.312   3.233  -5.431  0.00  0.00    -0.273 OA
ENDROOT
BRANCH   1  12
ATOM     11  C   UNL     1       0.172   1.528   0.248  0.00  0.00    -0.004 C 
ATOM     12  C   UNL     1      -0.168   0.065  -0.043  0.00  0.00    +0.018 C 
BRANCH  12  13
ATOM     13  N   UNL     1       0.467  -0.794   0.966  0.00  0.00    +0.395 N 
ATOM     14  C   UNL     1       1.905  -0.497   1.018  0.00  0.00    -0.071 C 
ATOM     15  C   UNL     1       2.613  -1.606   1.815  0.00  0.00    +0.024 C 
ATOM     16  C   UNL     1       1.829  -1.832   3.066  0.00  0.00    -0.010 A 
ATOM     17  C   UNL     1       0.571  -1.376   3.326  0.00  0.00    -0.047 A 
ATOM     18  C   UNL     1       0.035  -1.705   4.568  0.00  0.00    +0.010 A 
ATOM     19  C   UNL     1       0.757  -2.444   5.443  0.00  0.00    +0.045 A 
ATOM     20  S   UNL     1       2.270  -2.719   4.532  0.00  0.00    -0.101 S 
ATOM     21  C   UNL     1      -0.163  -0.555   2.270  0.00  0.00    -0.005 C 
ATOM     22  H   UNL     1       0.338  -1.761   0.706  0.00  0.00    -0.079 HD
BRANCH  21  23
ATOM     23  C   UNL     1      -1.609  -0.976   2.217  0.00  0.00    -0.057 A 
ATOM     24  C   UNL     1      -1.954  -2.199   1.671  0.00  0.00    +0.002 A 
ATOM     25  C   UNL     1      -3.280  -2.585   1.623  0.00  0.00    +0.000 A 
ATOM     26  C   UNL     1      -4.262  -1.748   2.121  0.00  0.00    +0.000 A 
ATOM     27  C   UNL     1      -3.917  -0.526   2.667  0.00  0.00    +0.000 A 
ATOM     28  C   UNL     1      -2.590  -0.142   2.720  0.00  0.00    +0.002 A 
ENDBRANCH  21  23
ENDBRANCH  12  13
ENDBRANCH   1  12
BRANCH   9  29
ATOM     29  C   UNL     1      -0.730   2.285  -6.904  0.00  0.00    +0.256 C 
BRANCH  29  30
ATOM     30  O   UNL     1      -1.543   2.909  -7.900  0.00  0.00    -0.366 OA
BRANCH  30  31
ATOM     31  C   UNL     1      -1.082   2.705  -9.238  0.00  0.00    +0.195 C 
BRANCH  31  32
ATOM     32  C   UNL     1      -2.008   3.403 -10.200  0.00  0.00    -0.022 A 
ATOM     33  C   UNL     1      -3.103   2.733 -10.715  0.00  0.00    +0.006 A 
ATOM     34  C   UNL     1      -3.952   3.373 -11.597  0.00  0.00    +0.000 A 
ATOM     35  C   UNL     1      -3.708   4.683 -11.965  0.00  0.00    +0.000 A 
ATOM     36  C   UNL     1      -2.614   5.353 -11.450  0.00  0.00    +0.000 A 
ATOM     37  C   UNL     1      -1.767   4.714 -10.563  0.00  0.00    +0.006 A 
ENDBRANCH  31  32
ENDBRANCH  30  31
ENDBRANCH  29  30
ENDBRANCH   9  29
TORSDOF 7
