REMARK  Name = ZINC33931450
REMARK  7 active torsions:
REMARK  status: ('A' for Active; 'I' for Inactive)
REMARK    1  A    between atoms: C_4  and  O_36
REMARK    2  A    between atoms: C_5  and  C_7
REMARK    3  A    between atoms: N_15  and  C_18
REMARK    4  A    between atoms: C_22  and  N_24
REMARK    5  A    between atoms: C_27  and  C_29
REMARK    6  A    between atoms: C_27  and  C_33
REMARK    7  A    between atoms: C_29  and  C_30
REMARK                            x       y       z     vdW  Elec       q    Type
REMARK                         _______ _______ _______ _____ _____    ______ ____
ROOT
ATOM      1  C   UNL     1       1.227  -2.187  -0.022  0.00  0.00    -0.023 C 
ATOM      2  C   UNL     1       1.314  -2.703  -1.448  0.00  0.00    +0.077 C 
ATOM      3  C   UNL     1      -0.224  -2.699  -1.792  0.00  0.00    +0.087 C 
ATOM      4  C   UNL     1      -0.203  -2.797  -3.230  0.00  0.00    +0.229 C 
ATOM      5  O   UNL     1      -1.001  -3.369  -3.942  0.00  0.00    -0.275 OA
ATOM      6  N   UNL     1       0.916  -2.103  -3.619  0.00  0.00    -0.210 N 
ATOM      7  C   UNL     1       1.765  -1.822  -2.572  0.00  0.00    +0.229 C 
ATOM      8  O   UNL     1       2.680  -1.028  -2.555  0.00  0.00    -0.275 OA
ATOM      9  C   UNL     1      -0.801  -3.381  -0.622  0.00  0.00    +0.058 C 
ATOM     10  N   UNL     1      -0.057  -2.723   0.523  0.00  0.00    +0.396 N 
ATOM     11  H   UNL     1       0.135  -3.408   1.239  0.00  0.00    -0.083 HD
ATOM     12  H   UNL     1      -0.606  -1.970   0.908  0.00  0.00    -0.083 HD
ENDROOT
BRANCH   1  17
ATOM     13  C   UNL     1      -0.014   1.379  -0.087  0.00  0.00    +0.000 A 
ATOM     14  C   UNL     1       1.170   2.088   0.002  0.00  0.00    +0.004 A 
ATOM     15  C   UNL     1       2.374   1.417   0.084  0.00  0.00    +0.045 A 
ATOM     16  C   UNL     1       2.396   0.029   0.076  0.00  0.00    +0.118 A 
ATOM     17  C   UNL     1       1.207  -0.680  -0.013  0.00  0.00    -0.019 A 
ATOM     18  C   UNL     1       0.005  -0.004  -0.095  0.00  0.00    +0.005 A 
BRANCH  16  19
ATOM     19  O   UNL     1       3.580  -0.633   0.156  0.00  0.00    -0.507 OA
ATOM     20  H   UNL     1       3.860  -0.831   1.060  0.00  0.00    +0.292 HD
ENDBRANCH  16  19
ENDBRANCH   1  17
BRANCH   6  21
ATOM     21  C   UNL     1       1.176  -1.729  -4.945  0.00  0.00    +0.046 A 
ATOM     22  C   UNL     1       0.274  -2.054  -5.949  0.00  0.00    +0.024 A 
ATOM     23  C   UNL     1       0.533  -1.683  -7.254  0.00  0.00    +0.004 A 
ATOM     24  C   UNL     1       1.689  -0.989  -7.561  0.00  0.00    +0.033 A 
ATOM     25  C   UNL     1       2.589  -0.665  -6.564  0.00  0.00    +0.128 A 
ATOM     26  C   UNL     1       2.333  -1.027  -5.255  0.00  0.00    +0.056 A 
BRANCH  25  27
ATOM     27  N   UNL     1       3.826   0.078  -6.896  0.00  0.00    +0.056 N 
ATOM     28  O   UNL     1       4.048   0.400  -8.040  0.00  0.00    -0.126 OA
ATOM     29  O   UNL     1       4.614   0.362  -6.024  0.00  0.00    -0.126 OA
ENDBRANCH  25  27
ENDBRANCH   6  21
BRANCH   9  30
ATOM     30  C   UNL     1      -0.530  -4.863  -0.678  0.00  0.00    +0.347 C 
ATOM     31  O   UNL     1       0.104  -5.401   0.213  0.00  0.00    -0.248 OA
ATOM     32  O   UNL     1      -0.944  -5.523  -1.616  0.00  0.00    -0.248 OA
ENDBRANCH   9  30
BRANCH   9  33
ATOM     33  C   UNL     1      -2.302  -3.105  -0.515  0.00  0.00    +0.125 C 
BRANCH  33  34
ATOM     34  C   UNL     1      -2.836  -3.714   0.756  0.00  0.00    +0.355 C 
ATOM     35  O   UNL     1      -2.085  -4.313   1.507  0.00  0.00    -0.246 OA
ATOM     36  O   UNL     1      -4.018  -3.607   1.033  0.00  0.00    -0.246 OA
ENDBRANCH  33  34
ENDBRANCH   9  33
TORSDOF 7
