REMARK  Name = ZINC15841665
REMARK  6 active torsions:
REMARK  status: ('A' for Active; 'I' for Inactive)
REMARK    1  A    between atoms: C_1  and  C_2
REMARK    2  A    between atoms: C_2  and  C_3
REMARK    3  A    between atoms: C_3  and  C_28
REMARK    4  A    between atoms: N_15  and  C_20
REMARK    5  A    between atoms: C_25  and  O_26
REMARK    6  A    between atoms: O_26  and  C_27
REMARK                            x       y       z     vdW  Elec       q    Type
REMARK                         _______ _______ _______ _____ _____    ______ ____
ROOT
ATOM      1  C   UNL     1       0.002  -0.004   0.002  0.00  0.00    +0.004 C 
ATOM      2  C   UNL     1       0.579  -0.492  -1.325  0.00  0.00    +0.047 C 
ATOM      3  C   UNL     1       0.815  -1.978  -1.276  0.00  0.00    -0.037 A 
ATOM      4  C   UNL     1       0.634  -2.754  -2.401  0.00  0.00    +0.004 A 
ATOM      5  C   UNL     1       0.863  -4.118  -2.346  0.00  0.00    +0.000 A 
ATOM      6  C   UNL     1       1.275  -4.713  -1.167  0.00  0.00    +0.001 A 
ATOM      7  C   UNL     1       1.459  -3.948  -0.032  0.00  0.00    +0.010 A 
ATOM      8  C   UNL     1       1.228  -2.574  -0.082  0.00  0.00    +0.002 A 
ATOM      9  C   UNL     1       1.412  -1.730   1.113  0.00  0.00    +0.060 A 
ATOM     10  C   UNL     1       0.834  -0.494   1.154  0.00  0.00    +0.048 A 
ATOM     11  C   UNL     1       1.028   0.313   2.293  0.00  0.00    +0.265 A 
ATOM     12  O   UNL     1       0.527   1.422   2.353  0.00  0.00    -0.267 OA
ATOM     13  N   UNL     1       1.773  -0.153   3.315  0.00  0.00    -0.225 N 
ATOM     14  C   UNL     1       2.329  -1.377   3.258  0.00  0.00    +0.334 A 
ATOM     15  O   UNL     1       2.995  -1.776   4.194  0.00  0.00    -0.246 OA
ATOM     16  N   UNL     1       2.161  -2.167   2.180  0.00  0.00    -0.306 N 
ATOM     17  H   UNL     1       2.570  -3.046   2.157  0.00  0.00    +0.170 HD
ATOM     18  C   UNL     1      -0.019   1.526   0.010  0.00  0.00    +0.016 C 
ENDROOT
BRANCH  13  19
ATOM     19  C   UNL     1       1.970   0.646   4.450  0.00  0.00    +0.096 A 
ATOM     20  C   UNL     1       1.082   0.576   5.513  0.00  0.00    +0.030 A 
ATOM     21  C   UNL     1       1.280   1.362   6.633  0.00  0.00    +0.002 A 
ATOM     22  C   UNL     1       2.358   2.226   6.693  0.00  0.00    +0.004 A 
ATOM     23  C   UNL     1       3.245   2.305   5.636  0.00  0.00    +0.048 A 
ATOM     24  C   UNL     1       3.056   1.517   4.512  0.00  0.00    +0.144 A 
BRANCH  24  25
ATOM     25  O   UNL     1       3.927   1.594   3.471  0.00  0.00    -0.493 OA
ATOM     26  C   UNL     1       5.017   2.509   3.604  0.00  0.00    +0.277 C 
ENDBRANCH  24  25
ENDBRANCH  13  19
BRANCH   1  28
ATOM     27  C   UNL     1      -2.282  -0.021  -1.010  0.00  0.00    +0.005 C 
ATOM     28  C   UNL     1      -1.427  -0.528   0.153  0.00  0.00    +0.008 C 
ENDBRANCH   1  28
TORSDOF 3
