REMARK  Name = ZINC36581181
REMARK  15 active torsions:
REMARK  status: ('A' for Active; 'I' for Inactive)
REMARK    1  A    between atoms: C_1  and  C_2
REMARK    2  A    between atoms: C_5  and  S_8
REMARK    3  A    between atoms: S_8  and  C_11
REMARK    4  A    between atoms: C_11  and  N_12
REMARK    5  A    between atoms: C_13  and  C_15
REMARK    6  A    between atoms: C_15  and  C_17
REMARK    7  A    between atoms: C_15  and  N_24
REMARK    8  A    between atoms: C_22  and  O_23
REMARK    9  A    between atoms: N_24  and  C_35
REMARK   10  A    between atoms: C_25  and  C_27
REMARK   11  A    between atoms: C_27  and  C_28
REMARK   12  A    between atoms: C_33  and  C_34
REMARK   13  A    between atoms: C_35  and  C_36
REMARK   14  A    between atoms: C_35  and  C_37
REMARK   15  A    between atoms: C_35  and  C_38
REMARK                            x       y       z     vdW  Elec       q    Type
REMARK                         _______ _______ _______ _____ _____    ______ ____
ROOT
ATOM      1  C   UNL     1       3.737  -4.774   3.207  0.00  0.00    +0.196 C 
ENDROOT
BRANCH   1   2
ATOM      2  C   UNL     1       3.372  -3.345   3.518  0.00  0.00    +0.023 A 
ATOM      3  C   UNL     1       2.111  -2.871   3.211  0.00  0.00    +0.009 A 
ATOM      4  C   UNL     1       1.776  -1.560   3.494  0.00  0.00    +0.001 A 
ATOM      5  C   UNL     1       2.701  -0.720   4.087  0.00  0.00    +0.004 A 
ATOM      6  C   UNL     1       3.963  -1.189   4.396  0.00  0.00    +0.046 A 
ATOM      7  C   UNL     1       4.300  -2.506   4.117  0.00  0.00    +0.122 A 
BRANCH   7   8
ATOM      8  O   UNL     1       5.539  -2.971   4.425  0.00  0.00    -0.506 OA
ATOM      9  H   UNL     1       6.207  -2.789   3.750  0.00  0.00    +0.292 HD
ENDBRANCH   7   8
ENDBRANCH   1   2
BRANCH   1  11
ATOM     10  N   UNL     1       2.747  -4.968   0.949  0.00  0.00    -0.294 N 
ATOM     11  C   UNL     1       2.734  -5.350   2.241  0.00  0.00    +0.239 C 
ATOM     12  O   UNL     1       1.916  -6.158   2.627  0.00  0.00    -0.273 OA
ATOM     13  H   UNL     1       3.351  -4.268   0.656  0.00  0.00    +0.150 HD
BRANCH  10  14
ATOM     14  C   UNL     1       1.848  -5.610  -0.014  0.00  0.00    +0.278 C 
BRANCH  14  15
ATOM     15  S   UNL     1       0.338  -4.619  -0.185  0.00  0.00    +0.013 S 
ATOM     16  O   UNL     1      -0.162  -4.264   1.097  0.00  0.00    -0.168 OA
ATOM     17  O   UNL     1      -0.517  -5.195  -1.163  0.00  0.00    -0.168 OA
BRANCH  15  22
ATOM     18  C   UNL     1       2.166   0.591  -2.619  0.00  0.00    +0.044 C 
ATOM     19  C   UNL     1       1.710  -0.711  -2.011  0.00  0.00    -0.050 A 
ATOM     20  C   UNL     1       1.329  -1.759  -2.828  0.00  0.00    +0.005 A 
ATOM     21  C   UNL     1       0.911  -2.953  -2.270  0.00  0.00    +0.027 A 
ATOM     22  C   UNL     1       0.873  -3.098  -0.896  0.00  0.00    +0.090 A 
ATOM     23  C   UNL     1       1.254  -2.050  -0.079  0.00  0.00    +0.027 A 
ATOM     24  C   UNL     1       1.677  -0.858  -0.637  0.00  0.00    +0.005 A 
ENDBRANCH  15  22
ENDBRANCH  14  15
ENDBRANCH  10  14
ENDBRANCH   1  11
BRANCH   1  25
ATOM     25  N   UNL     1       3.731  -5.559   4.444  0.00  0.00    -0.280 N 
ATOM     26  C   UNL     1       2.647  -5.548   5.244  0.00  0.00    +0.221 C 
ATOM     27  O   UNL     1       1.641  -4.966   4.894  0.00  0.00    -0.275 OA
BRANCH  25  28
ATOM     28  C   UNL     1       4.904  -6.356   4.811  0.00  0.00    +0.030 C 
ATOM     29  C   UNL     1       6.066  -6.015   3.876  0.00  0.00    +0.031 C 
ATOM     30  C   UNL     1       5.302  -6.042   6.255  0.00  0.00    +0.031 C 
ATOM     31  C   UNL     1       4.569  -7.844   4.686  0.00  0.00    +0.031 C 
ENDBRANCH  25  28
BRANCH  26  32
ATOM     32  C   UNL     1       2.683  -6.259   6.572  0.00  0.00    +0.131 C 
BRANCH  32  33
ATOM     33  C   UNL     1       1.316  -6.211   7.205  0.00  0.00    -0.036 A 
ATOM     34  C   UNL     1       1.009  -5.215   8.113  0.00  0.00    +0.004 A 
ATOM     35  C   UNL     1      -0.244  -5.170   8.694  0.00  0.00    +0.000 A 
ATOM     36  C   UNL     1      -1.192  -6.122   8.365  0.00  0.00    +0.000 A 
ATOM     37  C   UNL     1      -0.886  -7.117   7.457  0.00  0.00    +0.003 A 
ATOM     38  C   UNL     1       0.366  -7.159   6.873  0.00  0.00    -0.047 A 
ATOM     39  C   UNL     1       0.698  -8.241   5.878  0.00  0.00    +0.044 C 
ENDBRANCH  32  33
ENDBRANCH  26  32
ENDBRANCH   1  25
TORSDOF 10
