REMARK  Name = ZINC37037608
REMARK  4 active torsions:
REMARK  status: ('A' for Active; 'I' for Inactive)
REMARK    1  A    between atoms: C_5  and  C_6
REMARK    2  A    between atoms: C_6  and  S_7
REMARK    3  A    between atoms: S_7  and  C_8
REMARK    4  A    between atoms: C_14  and  N_16
REMARK                            x       y       z     vdW  Elec       q    Type
REMARK                         _______ _______ _______ _____ _____    ______ ____
ROOT
ATOM      1  C   UNL     1      -3.118  -2.298  -1.522  0.00  0.00    +0.171 A 
ATOM      2  N   UNL     1      -3.750  -2.760  -2.636  0.00  0.00    -0.302 N 
ATOM      3  H   UNL     1      -3.424  -2.512  -3.516  0.00  0.00    +0.171 HD
ATOM      4  C   UNL     1      -4.830  -3.562  -2.520  0.00  0.00    +0.254 A 
ATOM      5  O   UNL     1      -5.402  -3.980  -3.514  0.00  0.00    -0.268 OA
ATOM      6  C   UNL     1      -5.281  -3.906  -1.242  0.00  0.00    +0.113 A 
ATOM      7  C   UNL     1      -4.602  -3.409  -0.139  0.00  0.00    +0.124 A 
ATOM      8  N   UNL     1      -3.534  -2.622  -0.315  0.00  0.00    -0.209 NA
ENDROOT
BRANCH   7   9
ATOM      9  N   UNL     1      -5.023  -3.730   1.136  0.00  0.00    -0.343 N 
ATOM     10  H   UNL     1      -5.795  -4.304   1.262  0.00  0.00    +0.144 HD
ATOM     11  H   UNL     1      -4.547  -3.382   1.907  0.00  0.00    +0.144 HD
ENDBRANCH   7   9
BRANCH   1  12
ATOM     12  S   UNL     1      -1.711  -1.253  -1.698  0.00  0.00    -0.080 S 
BRANCH  12  13
ATOM     13  C   UNL     1      -1.208  -0.902   0.009  0.00  0.00    +0.151 C 
BRANCH  13  18
ATOM     14  C   UNL     1      -0.016   1.341   0.009  0.00  0.00    +0.047 A 
ATOM     15  C   UNL     1       1.331   1.769  -0.001  0.00  0.00    +0.057 A 
ATOM     16  C   UNL     1       2.093   0.659  -0.014  0.00  0.00    +0.170 A 
ATOM     17  O   UNL     1       1.282  -0.412  -0.012  0.00  0.00    -0.452 OA
ATOM     18  C   UNL     1       0.002  -0.004   0.002  0.00  0.00    +0.117 A 
ATOM     19 BR   UNL     1       3.983   0.615  -0.034  0.00  0.00    -0.008 Br
ENDBRANCH  13  18
ENDBRANCH  12  13
ENDBRANCH   1  12
TORSDOF 4
