REMARK  Name = ZINC13163284
REMARK  9 active torsions:
REMARK  status: ('A' for Active; 'I' for Inactive)
REMARK    1  A    between atoms: C_1  and  C_2
REMARK    2  A    between atoms: C_10  and  C_16
REMARK    3  A    between atoms: C_16  and  O_18
REMARK    4  A    between atoms: O_18  and  C_19
REMARK    5  A    between atoms: C_19  and  C_21
REMARK    6  A    between atoms: C_19  and  C_22
REMARK    7  A    between atoms: N_24  and  C_25
REMARK    8  A    between atoms: C_28  and  N_35
REMARK    9  A    between atoms: C_30  and  C_31
REMARK                            x       y       z     vdW  Elec       q    Type
REMARK                         _______ _______ _______ _____ _____    ______ ____
ROOT
ATOM      1  C   UNL     1       1.302  -0.652  -0.000  0.00  0.00    +0.259 C 
ATOM      2  C   UNL     1       1.769  -0.896   1.436  0.00  0.00    +0.062 C 
ENDROOT
BRANCH   1   3
ATOM      3  C   UNL     1       1.204  -1.969  -0.727  0.00  0.00    +0.258 C 
ATOM      4  O   UNL     1       0.141  -2.331  -1.186  0.00  0.00    -0.271 OA
ATOM      5  N   UNL     1       2.298  -2.744  -0.868  0.00  0.00    -0.282 N 
ATOM      6  H   UNL     1       3.163  -2.419  -0.573  0.00  0.00    +0.155 HD
BRANCH   5   7
ATOM      7  C   UNL     1       2.185  -4.016  -1.440  0.00  0.00    +0.045 A 
ATOM      8  C   UNL     1       0.975  -4.695  -1.393  0.00  0.00    +0.026 A 
ATOM      9  C   UNL     1       0.867  -5.950  -1.958  0.00  0.00    +0.034 A 
ATOM     10  C   UNL     1       1.962  -6.531  -2.571  0.00  0.00    +0.127 A 
ATOM     11  C   UNL     1       3.169  -5.857  -2.620  0.00  0.00    +0.047 A 
ATOM     12  C   UNL     1       3.282  -4.599  -2.060  0.00  0.00    +0.078 A 
BRANCH  12  13
ATOM     13  C   UNL     1       4.596  -3.863  -2.119  0.00  0.00    +0.419 C 
ATOM     14  F   UNL     1       5.541  -4.648  -2.788  0.00  0.00    -0.166 F 
ATOM     15  F   UNL     1       4.423  -2.655  -2.803  0.00  0.00    -0.166 F 
ATOM     16  F   UNL     1       5.042  -3.603  -0.819  0.00  0.00    -0.166 F 
ENDBRANCH  12  13
BRANCH  10  17
ATOM     17  N   UNL     1       1.843  -7.876  -3.177  0.00  0.00    +0.056 N 
ATOM     18  O   UNL     1       0.781  -8.471  -3.135  0.00  0.00    -0.126 OA
ATOM     19  O   UNL     1       2.807  -8.389  -3.717  0.00  0.00    -0.126 OA
ENDBRANCH  10  17
ENDBRANCH   5   7
ENDBRANCH   1   3
BRANCH   1  20
ATOM     20  O   UNL     1      -0.001  -0.011   0.017  0.00  0.00    -0.449 OA
BRANCH  20  21
ATOM     21  C   UNL     1      -0.019   1.336   0.035  0.00  0.00    +0.340 C 
ATOM     22  O   UNL     1       1.024   1.958   0.036  0.00  0.00    -0.245 OA
BRANCH  21  31
ATOM     23  C   UNL     1      -2.070   9.228   0.314  0.00  0.00    +0.008 C 
ATOM     24  C   UNL     1      -2.877   7.948   0.539  0.00  0.00    -0.009 C 
ATOM     25  C   UNL     1      -4.160   8.000  -0.295  0.00  0.00    +0.009 C 
ATOM     26  C   UNL     1      -5.083   6.847   0.114  0.00  0.00    +0.054 C 
ATOM     27  C   UNL     1      -4.285   5.563   0.098  0.00  0.00    +0.020 A 
ATOM     28  C   UNL     1      -2.939   5.522   0.096  0.00  0.00    -0.019 A 
ATOM     29  C   UNL     1      -2.548   4.116   0.076  0.00  0.00    +0.004 A 
ATOM     30  C   UNL     1      -1.326   3.447   0.065  0.00  0.00    +0.025 A 
ATOM     31  C   UNL     1      -1.307   2.056   0.047  0.00  0.00    +0.060 A 
ATOM     32  C   UNL     1      -2.512   1.337   0.034  0.00  0.00    +0.017 A 
ATOM     33  C   UNL     1      -3.709   1.988   0.050  0.00  0.00    +0.027 A 
ATOM     34  C   UNL     1      -3.752   3.381   0.068  0.00  0.00    +0.047 A 
ATOM     35  N   UNL     1      -4.783   4.290   0.082  0.00  0.00    -0.358 N 
ATOM     36  H   UNL     1      -5.725   4.062   0.080  0.00  0.00    +0.166 HD
ATOM     37  C   UNL     1      -2.043   6.734   0.112  0.00  0.00    +0.040 C 
ENDBRANCH  21  31
ENDBRANCH  20  21
ENDBRANCH   1  20
TORSDOF 7
