REMARK  Name = ZINC40129328
REMARK  7 active torsions:
REMARK  status: ('A' for Active; 'I' for Inactive)
REMARK    1  A    between atoms: C_1  and  C_2
REMARK    2  A    between atoms: C_4  and  O_5
REMARK    3  A    between atoms: C_14  and  C_16
REMARK    4  A    between atoms: C_16  and  C_17
REMARK    5  A    between atoms: C_18  and  C_31
REMARK    6  A    between atoms: N_20  and  C_23
REMARK    7  A    between atoms: C_21  and  C_22
REMARK                            x       y       z     vdW  Elec       q    Type
REMARK                         _______ _______ _______ _____ _____    ______ ____
ROOT
ATOM      1  C   UNL     1       0.382   1.473   0.016  0.00  0.00    +0.045 C 
ATOM      2  C   UNL     1      -0.062   0.034   0.055  0.00  0.00    -0.033 A 
ATOM      3  C   UNL     1      -0.518  -0.595  -1.087  0.00  0.00    +0.091 A 
ATOM      4  C   UNL     1      -0.923  -1.921  -1.032  0.00  0.00    +0.285 A 
ATOM      5  O   UNL     1      -0.882  -2.614   0.111  0.00  0.00    -0.425 OA
ATOM      6  C   UNL     1      -0.446  -2.049   1.256  0.00  0.00    +0.141 A 
ATOM      7  C   UNL     1      -0.016  -0.703   1.257  0.00  0.00    +0.021 A 
ATOM      8  C   UNL     1       0.445  -0.112   2.447  0.00  0.00    +0.013 A 
ATOM      9  C   UNL     1       0.482  -0.838   3.595  0.00  0.00    +0.024 A 
ATOM     10  C   UNL     1       0.061  -2.180   3.602  0.00  0.00    +0.037 A 
ATOM     11  C   UNL     1      -0.409  -2.778   2.431  0.00  0.00    +0.070 A 
ATOM     12  N   UNL     1       0.103  -2.897   4.758  0.00  0.00    -0.285 N 
ATOM     13  C   UNL     1       0.019  -4.212   4.722  0.00  0.00    +0.222 C 
ATOM     14  O   UNL     1       0.026  -4.794   3.651  0.00  0.00    -0.275 OA
ATOM     15  H   UNL     1       0.195  -2.440   5.609  0.00  0.00    +0.155 HD
ENDROOT
BRANCH   4  16
ATOM     16  O   UNL     1      -1.366  -2.522  -2.152  0.00  0.00    -0.480 OA
ATOM     17  H   UNL     1      -1.628  -3.444  -2.027  0.00  0.00    +0.295 HD
ENDBRANCH   4  16
BRANCH  13  18
ATOM     18  C   UNL     1      -0.086  -4.996   6.005  0.00  0.00    +0.134 C 
BRANCH  18  19
ATOM     19  C   UNL     1      -0.169  -6.468   5.689  0.00  0.00    +0.005 A 
ATOM     20  C   UNL     1      -1.341  -7.196   5.463  0.00  0.00    +0.064 A 
ATOM     21  N   UNL     1      -1.011  -8.439   5.220  0.00  0.00    -0.171 NA
ATOM     22  N   UNL     1       0.385  -8.542   5.284  0.00  0.00    -0.234 N 
ATOM     23  C   UNL     1       0.879  -7.316   5.568  0.00  0.00    +0.046 A 
ATOM     24  C   UNL     1       2.335  -6.959   5.726  0.00  0.00    +0.066 C 
ATOM     25  C   UNL     1      -2.743  -6.645   5.494  0.00  0.00    +0.068 C 
BRANCH  22  26
ATOM     26  C   UNL     1       1.137  -9.709   5.083  0.00  0.00    +0.101 A 
ATOM     27  C   UNL     1       2.111 -10.075   6.003  0.00  0.00    +0.033 A 
ATOM     28  C   UNL     1       2.850 -11.225   5.804  0.00  0.00    +0.040 A 
ATOM     29  C   UNL     1       2.622 -12.013   4.688  0.00  0.00    +0.126 A 
ATOM     30  C   UNL     1       1.652 -11.651   3.769  0.00  0.00    +0.078 A 
ATOM     31  C   UNL     1       0.905 -10.504   3.967  0.00  0.00    +0.151 A 
ATOM     32  F   UNL     1      -0.045 -10.153   3.073  0.00  0.00    -0.203 F 
ATOM     33  F   UNL     1       3.347 -13.137   4.496  0.00  0.00    -0.205 F 
ENDBRANCH  22  26
ENDBRANCH  18  19
ENDBRANCH  13  18
TORSDOF 4
