REMARK  Name = ZINC39675884
REMARK  9 active torsions:
REMARK  status: ('A' for Active; 'I' for Inactive)
REMARK    1  A    between atoms: C_1  and  N_2
REMARK    2  A    between atoms: N_2  and  C_3
REMARK    3  A    between atoms: N_2  and  C_4
REMARK    4  A    between atoms: C_4  and  C_6
REMARK    5  A    between atoms: C_4  and  C_35
REMARK    6  A    between atoms: C_6  and  N_7
REMARK    7  A    between atoms: C_8  and  C_10
REMARK    8  A    between atoms: C_21  and  C_23
REMARK    9  A    between atoms: C_26  and  C_28
REMARK                            x       y       z     vdW  Elec       q    Type
REMARK                         _______ _______ _______ _____ _____    ______ ____
ROOT
ATOM      1  C   UNL     1      -2.632   3.795  -1.808  0.00  0.00    +0.100 C 
ATOM      2  C   UNL     1      -1.175   4.263  -2.022  0.00  0.00    +0.121 C 
ATOM      3  N   UNL     1      -1.111   4.649  -3.451  0.00  0.00    -0.294 N 
ATOM      4  C   UNL     1      -2.406   5.322  -3.709  0.00  0.00    +0.115 C 
ATOM      5  C   UNL     1      -3.437   4.495  -2.916  0.00  0.00    -0.004 C 
ATOM      6  C   UNL     1      -4.095   3.461  -3.825  0.00  0.00    -0.010 C 
ATOM      7  C   UNL     1      -4.936   4.181  -4.883  0.00  0.00    -0.082 C 
ATOM      8  N   UNL     1      -5.958   5.002  -4.223  0.00  0.00    +0.379 N 
ATOM      9  C   UNL     1      -5.316   6.053  -3.423  0.00  0.00    -0.082 C 
ATOM     10  C   UNL     1      -4.491   5.413  -2.304  0.00  0.00    -0.010 C 
ATOM     11  C   UNL     1      -0.103   4.436  -4.320  0.00  0.00    +0.282 C 
ATOM     12  O   UNL     1      -0.202   4.817  -5.472  0.00  0.00    -0.267 OA
ATOM     13  H   UNL     1      -6.549   5.427  -4.922  0.00  0.00    -0.086 HD
ATOM     14  H   UNL     1      -6.519   4.419  -3.621  0.00  0.00    -0.086 HD
ENDROOT
BRANCH  11  15
ATOM     15  C   UNL     1       1.112   3.746  -3.879  0.00  0.00    +0.190 A 
ATOM     16  C   UNL     1       2.214   3.470  -4.658  0.00  0.00    +0.055 A 
ATOM     17  C   UNL     1       3.131   2.805  -3.838  0.00  0.00    +0.051 A 
ATOM     18  C   UNL     1       2.562   2.700  -2.601  0.00  0.00    +0.139 A 
ATOM     19  O   UNL     1       1.348   3.275  -2.636  0.00  0.00    -0.450 OA
BRANCH  18  20
ATOM     20  C   UNL     1       3.181   2.066  -1.420  0.00  0.00    +0.052 A 
ATOM     21  C   UNL     1       3.738   0.789  -1.520  0.00  0.00    +0.014 A 
ATOM     22  C   UNL     1       4.314   0.203  -0.413  0.00  0.00    +0.001 A 
ATOM     23  C   UNL     1       4.341   0.875   0.797  0.00  0.00    +0.003 A 
ATOM     24  C   UNL     1       3.792   2.139   0.906  0.00  0.00    +0.039 A 
ATOM     25  C   UNL     1       3.217   2.743  -0.197  0.00  0.00    +0.134 A 
ATOM     26  F   UNL     1       2.685   3.981  -0.091  0.00  0.00    -0.205 F 
ENDBRANCH  18  20
ENDBRANCH  11  15
BRANCH   1  28
ATOM     27  N   UNL     1      -3.707   1.622  -1.321  0.00  0.00    -0.316 N 
ATOM     28  C   UNL     1      -2.729   2.298  -1.955  0.00  0.00    +0.218 C 
ATOM     29  O   UNL     1      -1.928   1.703  -2.643  0.00  0.00    -0.275 OA
ATOM     30  H   UNL     1      -4.348   2.098  -0.770  0.00  0.00    +0.149 HD
BRANCH  27  31
ATOM     31  C   UNL     1      -3.802   0.167  -1.463  0.00  0.00    +0.093 C 
BRANCH  31  32
ATOM     32  C   UNL     1      -4.927  -0.361  -0.570  0.00  0.00    -0.021 C 
BRANCH  32  33
ATOM     33  C   UNL     1      -6.247   0.190  -1.045  0.00  0.00    -0.059 A 
ATOM     34  C   UNL     1      -6.888  -0.387  -2.126  0.00  0.00    +0.002 A 
ATOM     35  C   UNL     1      -8.098   0.118  -2.562  0.00  0.00    +0.000 A 
ATOM     36  C   UNL     1      -8.668   1.200  -1.918  0.00  0.00    +0.000 A 
ATOM     37  C   UNL     1      -8.027   1.777  -0.837  0.00  0.00    +0.000 A 
ATOM     38  C   UNL     1      -6.819   1.269  -0.398  0.00  0.00    +0.002 A 
ENDBRANCH  32  33
BRANCH  32  40
ATOM     39  C   UNL     1      -3.660  -2.364  -0.199  0.00  0.00    -0.096 C 
ATOM     40  N   UNL     1      -4.957  -1.828  -0.635  0.00  0.00    +0.382 N 
ATOM     41  C   UNL     1      -6.017  -2.336   0.246  0.00  0.00    -0.096 C 
ATOM     42  H   UNL     1      -5.139  -2.119  -1.584  0.00  0.00    -0.082 HD
ENDBRANCH  32  40
ENDBRANCH  31  32
ENDBRANCH  27  31
ENDBRANCH   1  28
TORSDOF 7
