REMARK  Name = ZINC36031693
REMARK  13 active torsions:
REMARK  status: ('A' for Active; 'I' for Inactive)
REMARK    1  A    between atoms: C_1  and  C_2
REMARK    2  A    between atoms: C_5  and  C_33
REMARK    3  A    between atoms: C_6  and  C_8
REMARK    4  A    between atoms: C_8  and  N_9
REMARK    5  A    between atoms: N_9  and  C_10
REMARK    6  A    between atoms: N_9  and  C_20
REMARK    7  A    between atoms: C_10  and  C_11
REMARK    8  A    between atoms: C_20  and  C_21
REMARK    9  A    between atoms: C_21  and  C_23
REMARK   10  A    between atoms: C_21  and  O_32
REMARK   11  A    between atoms: C_23  and  O_24
REMARK   12  A    between atoms: O_24  and  C_25
REMARK   13  A    between atoms: C_30  and  C_31
REMARK                            x       y       z     vdW  Elec       q    Type
REMARK                         _______ _______ _______ _____ _____    ______ ____
ROOT
ATOM      1  N   UNL     1       1.755  -3.474   2.815  0.00  0.00    +0.387 N 
ATOM      2  H   UNL     1       1.994  -3.974   1.972  0.00  0.00    -0.081 HD
ENDROOT
BRANCH   1   3
ATOM      3  C   UNL     1       0.633  -2.566   2.545  0.00  0.00    -0.042 C 
BRANCH   3   9
ATOM      4  C   UNL     1      -1.440  -4.768  -1.442  0.00  0.00    +0.044 C 
ATOM      5  C   UNL     1      -1.494  -4.392   0.017  0.00  0.00    -0.050 A 
ATOM      6  C   UNL     1      -2.584  -4.757   0.785  0.00  0.00    +0.003 A 
ATOM      7  C   UNL     1      -2.633  -4.412   2.122  0.00  0.00    +0.004 A 
ATOM      8  C   UNL     1      -1.592  -3.703   2.692  0.00  0.00    -0.049 A 
ATOM      9  C   UNL     1      -0.502  -3.339   1.924  0.00  0.00    -0.061 A 
ATOM     10  C   UNL     1      -0.450  -3.688   0.588  0.00  0.00    +0.005 A 
ATOM     11  C   UNL     1      -1.646  -3.325   4.150  0.00  0.00    +0.044 C 
ENDBRANCH   3   9
ENDBRANCH   1   3
BRANCH   1  12
ATOM     12  C   UNL     1       2.916  -2.697   3.269  0.00  0.00    -0.042 C 
BRANCH  12  13
ATOM     13  C   UNL     1       3.395  -1.809   2.150  0.00  0.00    -0.060 A 
ATOM     14  C   UNL     1       4.248  -2.314   1.186  0.00  0.00    +0.005 A 
ATOM     15  C   UNL     1       4.690  -1.504   0.157  0.00  0.00    +0.050 A 
ATOM     16  C   UNL     1       4.279  -0.183   0.089  0.00  0.00    +0.166 A 
ATOM     17  C   UNL     1       3.420   0.326   1.060  0.00  0.00    +0.166 A 
ATOM     18  C   UNL     1       2.977  -0.493   2.086  0.00  0.00    +0.051 A 
ATOM     19  O   UNL     1       3.166   1.637   0.775  0.00  0.00    -0.453 OA
ATOM     20  C   UNL     1       4.199   2.037  -0.146  0.00  0.00    +0.466 C 
ATOM     21  O   UNL     1       4.564   0.809  -0.804  0.00  0.00    -0.453 OA
ENDBRANCH  12  13
ENDBRANCH   1  12
BRANCH   1  22
ATOM     22  C   UNL     1       1.369  -4.433   3.859  0.00  0.00    -0.043 C 
BRANCH  22  23
ATOM     23  C   UNL     1       0.635  -5.614   3.221  0.00  0.00    +0.135 C 
BRANCH  23  24
ATOM     24  O   UNL     1       1.525  -6.313   2.349  0.00  0.00    -0.390 OA
ATOM     25  H   UNL     1       2.309  -6.669   2.790  0.00  0.00    +0.210 HD
ENDBRANCH  23  24
BRANCH  23  26
ATOM     26  C   UNL     1       0.145  -6.562   4.316  0.00  0.00    +0.258 C 
BRANCH  26  27
ATOM     27  O   UNL     1      -0.647  -7.598   3.731  0.00  0.00    -0.489 OA
BRANCH  27  28
ATOM     28  C   UNL     1      -1.163  -8.531   4.574  0.00  0.00    +0.124 A 
ATOM     29  C   UNL     1      -0.917  -8.448   5.937  0.00  0.00    +0.046 A 
ATOM     30  C   UNL     1      -1.443  -9.398   6.791  0.00  0.00    +0.004 A 
ATOM     31  C   UNL     1      -2.214 -10.430   6.289  0.00  0.00    +0.000 A 
ATOM     32  C   UNL     1      -2.460 -10.515   4.931  0.00  0.00    +0.007 A 
ATOM     33  C   UNL     1      -1.941  -9.565   4.073  0.00  0.00    -0.009 A 
ATOM     34  C   UNL     1      -2.215  -9.655   2.594  0.00  0.00    +0.047 C 
ENDBRANCH  27  28
ENDBRANCH  26  27
ENDBRANCH  23  26
ENDBRANCH  22  23
ENDBRANCH   1  22
TORSDOF 10
