REMARK  Name = ZINC19579081
REMARK  9 active torsions:
REMARK  status: ('A' for Active; 'I' for Inactive)
REMARK    1  A    between atoms: C_1  and  C_2
REMARK    2  A    between atoms: C_3  and  C_9
REMARK    3  A    between atoms: C_4  and  C_8
REMARK    4  A    between atoms: C_9  and  C_10
REMARK    5  A    between atoms: C_11  and  C_31
REMARK    6  A    between atoms: C_14  and  C_15
REMARK    7  A    between atoms: N_17  and  C_18
REMARK    8  A    between atoms: C_18  and  C_20
REMARK    9  A    between atoms: C_18  and  C_21
REMARK                            x       y       z     vdW  Elec       q    Type
REMARK                         _______ _______ _______ _____ _____    ______ ____
ROOT
ATOM      1  C   UNL     1       7.715   1.221   0.898  0.00  0.00    +0.267 C 
ATOM      2  O   UNL     1       8.565   0.384   1.129  0.00  0.00    -0.268 OA
ATOM      3  N   UNL     1       6.707   0.942   0.048  0.00  0.00    -0.300 N 
ATOM      4  H   UNL     1       5.938   1.700  -0.162  0.00  0.00    +0.150 HD
ENDROOT
BRANCH   1   9
ATOM      5  C   UNL     1       8.835   3.042   2.379  0.00  0.00    +0.031 A 
ATOM      6  C   UNL     1       8.428   4.287   2.715  0.00  0.00    +0.138 A 
ATOM      7  O   UNL     1       7.239   4.476   2.127  0.00  0.00    -0.359 OA
ATOM      8  N   UNL     1       6.896   3.509   1.487  0.00  0.00    -0.073 NA
ATOM      9  C   UNL     1       7.787   2.551   1.551  0.00  0.00    +0.171 A 
ATOM     10  C   UNL     1       9.166   5.270   3.588  0.00  0.00    +0.089 C 
BRANCH   5  11
ATOM     11  C   UNL     1      10.105   2.338   2.784  0.00  0.00    +0.079 C 
BRANCH  11  14
ATOM     12  C   UNL     1      12.227   4.566   3.349  0.00  0.00    +0.065 C 
ATOM     13  C   UNL     1      12.142   3.715   2.108  0.00  0.00    +0.037 A 
ATOM     14  C   UNL     1      11.224   2.751   1.863  0.00  0.00    +0.000 A 
ATOM     15  C   UNL     1      11.501   2.202   0.607  0.00  0.00    +0.063 A 
ATOM     16  N   UNL     1      12.542   2.821   0.111  0.00  0.00    -0.179 NA
ATOM     17  N   UNL     1      12.967   3.778   1.042  0.00  0.00    -0.281 N 
ATOM     18  H   UNL     1      13.795   4.501   1.029  0.00  0.00    +0.189 HD
ATOM     19  C   UNL     1      10.731   1.093  -0.062  0.00  0.00    +0.068 C 
ENDBRANCH  11  14
ENDBRANCH   5  11
ENDBRANCH   1   9
BRANCH   3  20
ATOM     20  C   UNL     1       6.636  -0.372  -0.597  0.00  0.00    +0.136 C 
ATOM     21  C   UNL     1       7.503  -0.369  -1.858  0.00  0.00    +0.036 C 
BRANCH  20  22
ATOM     22  C   UNL     1       5.207  -0.671  -0.971  0.00  0.00    +0.126 A 
ATOM     23  C   UNL     1       4.617  -1.868  -0.851  0.00  0.00    +0.055 A 
ATOM     24  C   UNL     1       3.240  -1.696  -1.328  0.00  0.00    +0.022 A 
ATOM     25  C   UNL     1       2.141  -2.543  -1.457  0.00  0.00    +0.031 A 
ATOM     26  C   UNL     1       0.955  -2.048  -1.956  0.00  0.00    +0.042 A 
ATOM     27  C   UNL     1       0.855  -0.714  -2.328  0.00  0.00    +0.023 A 
ATOM     28  C   UNL     1       1.935   0.133  -2.205  0.00  0.00    +0.048 A 
ATOM     29  C   UNL     1       3.139  -0.346  -1.704  0.00  0.00    +0.135 A 
ATOM     30  O   UNL     1       4.339   0.225  -1.472  0.00  0.00    -0.458 OA
ATOM     31 CL   UNL     1      -0.419  -3.097  -2.120  0.00  0.00    -0.084 Cl
ENDBRANCH  20  22
ENDBRANCH   3  20
TORSDOF 5
