REMARK  Name = ZINC36024737
REMARK  6 active torsions:
REMARK  status: ('A' for Active; 'I' for Inactive)
REMARK    1  A    between atoms: C_1  and  C_2
REMARK    2  A    between atoms: C_5  and  C_8
REMARK    3  A    between atoms: C_17  and  C_28
REMARK    4  A    between atoms: N_21  and  C_22
REMARK    5  A    between atoms: C_22  and  C_23
REMARK    6  A    between atoms: C_28  and  C_29
REMARK                            x       y       z     vdW  Elec       q    Type
REMARK                         _______ _______ _______ _____ _____    ______ ____
ROOT
ATOM      1  C   UNL     1       0.396  -3.430   0.576  0.00  0.00    +0.247 C 
ATOM      2  O   UNL     1       0.563  -2.258   0.851  0.00  0.00    -0.270 OA
ATOM      3  N   UNL     1       0.210  -4.334   1.558  0.00  0.00    -0.298 N 
ATOM      4  C   UNL     1       0.106  -3.904   2.960  0.00  0.00    +0.108 C 
ATOM      5  C   UNL     1      -1.192  -4.463   3.551  0.00  0.00    +0.025 C 
ATOM      6  C   UNL     1      -1.233  -5.976   3.344  0.00  0.00    +0.007 C 
ATOM      7  C   UNL     1      -1.190  -6.310   1.854  0.00  0.00    +0.025 C 
ATOM      8  C   UNL     1       0.102  -5.766   1.248  0.00  0.00    +0.108 C 
ATOM      9  N   UNL     1      -2.466  -6.529   3.944  0.00  0.00    +0.401 N 
ATOM     10  C   UNL     1      -2.035  -6.904   5.312  0.00  0.00    +0.023 C 
ATOM     11  C   UNL     1      -0.548  -7.160   5.192  0.00  0.00    +0.201 C 
ATOM     12  O   UNL     1       0.135  -7.756   5.998  0.00  0.00    -0.277 OA
ATOM     13  N   UNL     1      -0.112  -6.614   4.039  0.00  0.00    -0.306 N 
ATOM     14  H   UNL     1      -3.191  -5.828   3.977  0.00  0.00    -0.082 HD
ATOM     15  H   UNL     1      -2.777  -7.342   3.433  0.00  0.00    -0.082 HD
ENDROOT
BRANCH   1  20
ATOM     16  C   UNL     1       0.400  -5.120  -4.925  0.00  0.00    +0.044 C 
ATOM     17  C   UNL     1       0.399  -4.678  -3.485  0.00  0.00    -0.050 A 
ATOM     18  C   UNL     1      -0.330  -3.564  -3.107  0.00  0.00    +0.004 A 
ATOM     19  C   UNL     1      -0.336  -3.154  -1.790  0.00  0.00    +0.013 A 
ATOM     20  C   UNL     1       0.397  -3.865  -0.838  0.00  0.00    +0.037 A 
ATOM     21  C   UNL     1       1.131  -4.987  -1.225  0.00  0.00    +0.013 A 
ATOM     22  C   UNL     1       1.123  -5.390  -2.545  0.00  0.00    +0.004 A 
ENDBRANCH   1  20
BRANCH  13  23
ATOM     23  C   UNL     1       1.271  -6.652   3.555  0.00  0.00    +0.180 C 
BRANCH  23  24
ATOM     24  C   UNL     1       1.531  -7.975   2.882  0.00  0.00    +0.122 A 
ATOM     25  C   UNL     1       1.238  -8.280   1.605  0.00  0.00    +0.046 A 
ATOM     26  C   UNL     1       1.649  -9.617   1.398  0.00  0.00    +0.041 A 
ATOM     27  C   UNL     1       2.169 -10.049   2.561  0.00  0.00    +0.195 A 
ATOM     28  O   UNL     1       2.100  -9.049   3.455  0.00  0.00    -0.466 OA
ENDBRANCH  23  24
ENDBRANCH  13  23
BRANCH  10  29
ATOM     29  C   UNL     1      -2.761  -8.169   5.772  0.00  0.00    +0.028 C 
BRANCH  29  30
ATOM     30  C   UNL     1      -4.236  -7.886   5.893  0.00  0.00    -0.048 A 
ATOM     31  C   UNL     1      -4.756  -7.426   7.089  0.00  0.00    +0.003 A 
ATOM     32  C   UNL     1      -6.109  -7.167   7.200  0.00  0.00    +0.000 A 
ATOM     33  C   UNL     1      -6.943  -7.367   6.116  0.00  0.00    +0.000 A 
ATOM     34  C   UNL     1      -6.423  -7.826   4.920  0.00  0.00    +0.000 A 
ATOM     35  C   UNL     1      -5.069  -8.081   4.808  0.00  0.00    +0.003 A 
ENDBRANCH  29  30
ENDBRANCH  10  29
TORSDOF 5
