REMARK  Name = ZINC09128160
REMARK  5 active torsions:
REMARK  status: ('A' for Active; 'I' for Inactive)
REMARK    1  A    between atoms: C_1  and  C_2
REMARK    2  A    between atoms: C_9  and  N_13
REMARK    3  A    between atoms: C_10  and  C_11
REMARK    4  A    between atoms: C_14  and  C_16
REMARK    5  A    between atoms: C_16  and  N_17
REMARK                            x       y       z     vdW  Elec       q    Type
REMARK                         _______ _______ _______ _____ _____    ______ ____
ROOT
ATOM      1  C   UNL     1       2.483  -3.936  -0.044  0.00  0.00    +0.214 C 
ENDROOT
BRANCH   1   2
ATOM      2  N   UNL     1       1.529  -5.048  -0.041  0.00  0.00    -0.215 N 
ATOM      3  C   UNL     1       1.024  -5.617  -1.155  0.00  0.00    +0.252 C 
ATOM      4  O   UNL     1       1.263  -5.317  -2.305  0.00  0.00    -0.272 OA
ATOM      5  C   UNL     1       0.098  -6.707  -0.667  0.00  0.00    +0.144 C 
ATOM      6  C   UNL     1       0.576  -8.070  -1.158  0.00  0.00    +0.081 C 
ATOM      7  C   UNL     1       0.224  -8.197  -2.646  0.00  0.00    +0.232 C 
ATOM      8  O   UNL     1      -1.198  -8.168  -2.779  0.00  0.00    -0.492 OA
ATOM      9  C   UNL     1      -1.879  -7.176  -2.149  0.00  0.00    +0.126 A 
ATOM     10  C   UNL     1      -1.309  -6.441  -1.123  0.00  0.00    +0.027 A 
ATOM     11  C   UNL     1      -2.042  -5.443  -0.503  0.00  0.00    +0.010 A 
ATOM     12  C   UNL     1      -3.336  -5.175  -0.904  0.00  0.00    +0.001 A 
ATOM     13  C   UNL     1      -3.906  -5.905  -1.931  0.00  0.00    +0.004 A 
ATOM     14  C   UNL     1      -3.182  -6.902  -2.553  0.00  0.00    +0.046 A 
ATOM     15  N   UNL     1       0.190  -6.625   0.796  0.00  0.00    -0.281 N 
ATOM     16  C   UNL     1       1.055  -5.629   1.068  0.00  0.00    +0.310 C 
ATOM     17  O   UNL     1       1.367  -5.293   2.193  0.00  0.00    -0.252 OA
ATOM     18  H   UNL     1      -0.277  -7.181   1.440  0.00  0.00    +0.152 HD
ENDBRANCH   1   2
BRANCH   1  20
ATOM     19  N   UNL     1       2.408  -1.463  -0.030  0.00  0.00    -0.278 N 
ATOM     20  C   UNL     1       1.732  -2.629  -0.029  0.00  0.00    +0.236 C 
ATOM     21  O   UNL     1       0.519  -2.627  -0.017  0.00  0.00    -0.274 OA
ATOM     22  H   UNL     1       3.378  -1.465  -0.040  0.00  0.00    +0.155 HD
BRANCH  19  30
ATOM     23  C   UNL     1      -1.860   5.093  -0.044  0.00  0.00    +0.008 C 
ATOM     24  C   UNL     1      -0.746   4.089  -0.347  0.00  0.00    -0.009 C 
ATOM     25  C   UNL     1       0.495   4.435   0.480  0.00  0.00    +0.008 C 
ATOM     26  C   UNL     1       1.685   3.598   0.007  0.00  0.00    +0.037 C 
ATOM     27  C   UNL     1       1.280   2.129   0.001  0.00  0.00    -0.018 A 
ATOM     28  C   UNL     1      -0.022   1.766   0.012  0.00  0.00    -0.004 A 
ATOM     29  S   UNL     1       0.002  -0.004   0.002  0.00  0.00    -0.077 S 
ATOM     30  C   UNL     1       1.716  -0.260  -0.016  0.00  0.00    +0.090 A 
ATOM     31  C   UNL     1       2.228   1.028  -0.014  0.00  0.00    +0.084 A 
ATOM     32  C   UNL     1      -1.212   2.675   0.023  0.00  0.00    +0.046 C 
BRANCH  31  33
ATOM     33  C   UNL     1       3.640   1.266  -0.026  0.00  0.00    +0.102 C 
ATOM     34  N   UNL     1       4.760   1.454  -0.036  0.00  0.00    -0.191 NA
ENDBRANCH  31  33
ENDBRANCH  19  30
ENDBRANCH   1  20
TORSDOF 4
