REMARK  Name = ZINC06385755
REMARK  8 active torsions:
REMARK  status: ('A' for Active; 'I' for Inactive)
REMARK    1  A    between atoms: C_1  and  C_2
REMARK    2  A    between atoms: C_2  and  O_3
REMARK    3  A    between atoms: O_3  and  C_4
REMARK    4  A    between atoms: C_4  and  C_6
REMARK    5  A    between atoms: C_7  and  N_30
REMARK    6  A    between atoms: C_11  and  C_13
REMARK    7  A    between atoms: C_16  and  C_18
REMARK    8  A    between atoms: C_21  and  C_24
REMARK                            x       y       z     vdW  Elec       q    Type
REMARK                         _______ _______ _______ _____ _____    ______ ____
ROOT
ATOM      1  C   UNL     1       4.851   0.735  -0.777  0.00  0.00    +0.108 C 
ATOM      2  C   UNL     1       4.435  -0.461  -1.268  0.00  0.00    +0.195 C 
ATOM      3  O   UNL     1       3.158  -0.665  -1.620  0.00  0.00    -0.446 OA
ATOM      4  C   UNL     1       2.188   0.119  -1.112  0.00  0.00    +0.115 C 
ATOM      5  C   UNL     1       2.462   1.338  -0.614  0.00  0.00    +0.048 C 
ATOM      6  C   UNL     1       3.876   1.867  -0.609  0.00  0.00    +0.133 C 
ATOM      7  C   UNL     1       1.447   2.155  -0.078  0.00  0.00    +0.163 C 
ATOM      8  O   UNL     1       1.730   3.258   0.344  0.00  0.00    -0.292 OA
ATOM      9  C   UNL     1       0.019   1.685  -0.018  0.00  0.00    +0.080 C 
ATOM     10  C   UNL     1       0.004   0.156   0.075  0.00  0.00    +0.016 C 
ATOM     11  C   UNL     1       0.773  -0.410  -1.121  0.00  0.00    +0.075 C 
ENDROOT
BRANCH   6  12
ATOM     12  C   UNL     1       4.047   2.846  -1.742  0.00  0.00    +0.118 A 
ATOM     13  C   UNL     1       4.385   4.144  -1.615  0.00  0.00    +0.046 A 
ATOM     14  C   UNL     1       4.437   4.686  -2.915  0.00  0.00    +0.050 A 
ATOM     15  C   UNL     1       4.115   3.681  -3.772  0.00  0.00    +0.135 A 
ATOM     16  O   UNL     1       3.881   2.571  -3.046  0.00  0.00    -0.459 OA
BRANCH  15  17
ATOM     17  C   UNL     1       4.035   3.789  -5.243  0.00  0.00    +0.017 A 
ATOM     18  C   UNL     1       4.297   5.007  -5.873  0.00  0.00    +0.012 A 
ATOM     19  C   UNL     1       4.226   5.099  -7.247  0.00  0.00    +0.004 A 
ATOM     20  C   UNL     1       3.884   3.990  -8.001  0.00  0.00    -0.050 A 
ATOM     21  C   UNL     1       3.618   2.781  -7.383  0.00  0.00    +0.004 A 
ATOM     22  C   UNL     1       3.691   2.674  -6.010  0.00  0.00    +0.012 A 
ATOM     23  C   UNL     1       3.803   4.100  -9.502  0.00  0.00    +0.044 C 
ENDBRANCH  15  17
ENDBRANCH   6  12
BRANCH   2  24
ATOM     24  N   UNL     1       5.340  -1.480  -1.406  0.00  0.00    -0.329 N 
ATOM     25  H   UNL     1       6.244  -1.375  -1.071  0.00  0.00    +0.145 HD
ATOM     26  H   UNL     1       5.076  -2.307  -1.839  0.00  0.00    +0.145 HD
ENDBRANCH   2  24
BRANCH   1  27
ATOM     27  C   UNL     1       6.197   0.915  -0.424  0.00  0.00    +0.341 C 
ATOM     28  O   UNL     1       6.530   0.876   0.747  0.00  0.00    -0.245 OA
BRANCH  27  29
ATOM     29  O   UNL     1       7.123   1.133  -1.382  0.00  0.00    -0.462 OA
BRANCH  29  31
ATOM     30  C   UNL     1       9.372   1.541  -2.168  0.00  0.00    +0.048 C 
ATOM     31  C   UNL     1       8.475   1.308  -0.951  0.00  0.00    +0.229 C 
ENDBRANCH  29  31
ENDBRANCH  27  29
ENDBRANCH   1  27
TORSDOF 6
