REMARK  Name = ZINC13351563
REMARK  4 active torsions:
REMARK  status: ('A' for Active; 'I' for Inactive)
REMARK    1  A    between atoms: C_6  and  C_7
REMARK    2  A    between atoms: C_10  and  C_12
REMARK    3  A    between atoms: C_13  and  C_14
REMARK    4  A    between atoms: C_21  and  C_25
REMARK                            x       y       z     vdW  Elec       q    Type
REMARK                         _______ _______ _______ _____ _____    ______ ____
ROOT
ATOM      1  C   UNL     1      -0.016   1.352   0.009  0.00  0.00    +0.070 C 
ATOM      2  C   UNL     1       0.002  -0.004   0.002  0.00  0.00    +0.087 C 
ATOM      3 CL   UNL     1      -1.489  -0.892   0.011  0.00  0.00    -0.080 Cl
ENDROOT
BRANCH   2   4
ATOM      4  C   UNL     1       1.240  -0.696  -0.013  0.00  0.00    +0.154 A 
ATOM      5  N   UNL     1       1.224  -2.070  -0.021  0.00  0.00    -0.190 NA
ATOM      6  C   UNL     1       2.383  -2.767  -0.036  0.00  0.00    +0.281 A 
ATOM      7  O   UNL     1       2.388  -3.984  -0.043  0.00  0.00    -0.265 OA
ATOM      8  C   UNL     1       3.640  -1.999  -0.043  0.00  0.00    +0.065 A 
ATOM      9  C   UNL     1       4.881  -2.632  -0.059  0.00  0.00    +0.016 A 
ATOM     10  C   UNL     1       6.026  -1.887  -0.067  0.00  0.00    +0.016 A 
ATOM     11  C   UNL     1       5.966  -0.487  -0.059  0.00  0.00    +0.065 A 
ATOM     12  C   UNL     1       4.740   0.165  -0.043  0.00  0.00    +0.041 A 
ATOM     13  C   UNL     1       3.561  -0.587  -0.035  0.00  0.00    +0.054 A 
ATOM     14  N   UNL     1       2.352   0.005  -0.026  0.00  0.00    -0.338 N 
ATOM     15  H   UNL     1       2.309   1.104  -0.028  0.00  0.00    +0.167 HD
BRANCH  11  16
ATOM     16  C   UNL     1       7.218   0.301  -0.066  0.00  0.00    +0.387 C 
ATOM     17  O   UNL     1       7.171   1.515  -0.059  0.00  0.00    -0.241 OA
ATOM     18  O   UNL     1       8.409  -0.326  -0.081  0.00  0.00    -0.241 OA
ENDBRANCH  11  16
ENDBRANCH   2   4
BRANCH   1  22
ATOM     19  C   UNL     1      -3.414   2.443   0.030  0.00  0.00    +0.136 A 
ATOM     20  C   UNL     1      -2.791   3.658   0.034  0.00  0.00    +0.050 A 
ATOM     21  C   UNL     1      -1.414   3.415   0.027  0.00  0.00    +0.050 A 
ATOM     22  C   UNL     1      -1.252   2.043   0.019  0.00  0.00    +0.130 A 
ATOM     23  O   UNL     1      -2.477   1.477   0.016  0.00  0.00    -0.455 OA
BRANCH  19  29
ATOM     24  C   UNL     1      -5.388   0.926   0.030  0.00  0.00    +0.013 A 
ATOM     25  C   UNL     1      -6.753   0.728   0.034  0.00  0.00    +0.022 A 
ATOM     26  C   UNL     1      -7.614   1.812   0.042  0.00  0.00    +0.059 A 
ATOM     27  C   UNL     1      -7.110   3.104   0.047  0.00  0.00    +0.060 A 
ATOM     28  C   UNL     1      -5.746   3.315   0.050  0.00  0.00    +0.033 A 
ATOM     29  C   UNL     1      -4.873   2.224   0.035  0.00  0.00    +0.019 A 
ATOM     30 CL   UNL     1      -8.196   4.458   0.058  0.00  0.00    -0.082 Cl
ATOM     31 CL   UNL     1      -9.330   1.554   0.047  0.00  0.00    -0.082 Cl
ENDBRANCH  19  29
ENDBRANCH   1  22
TORSDOF 4
