REMARK  Name = ZINC63490925
REMARK  7 active torsions:
REMARK  status: ('A' for Active; 'I' for Inactive)
REMARK    1  A    between atoms: C_1  and  C_2
REMARK    2  A    between atoms: C_3  and  O_16
REMARK    3  A    between atoms: O_16  and  C_17
REMARK    4  A    between atoms: C_17  and  C_18
REMARK    5  A    between atoms: N_20  and  C_21
REMARK    6  A    between atoms: C_21  and  C_22
REMARK    7  A    between atoms: C_22  and  C_23
REMARK                            x       y       z     vdW  Elec       q    Type
REMARK                         _______ _______ _______ _____ _____    ______ ____
ROOT
ATOM      1  C   UNL     1      -0.005  -0.773  -3.575  0.00  0.00    +0.324 C 
ENDROOT
BRANCH   1   2
ATOM      2  C   UNL     1      -0.025   0.154  -4.763  0.00  0.00    +0.251 C 
ATOM      3  O   UNL     1      -0.042   1.355  -4.594  0.00  0.00    -0.272 OA
ATOM      4  N   UNL     1      -0.024  -0.351  -6.012  0.00  0.00    -0.312 N 
ATOM      5  H   UNL     1      -0.011  -1.311  -6.147  0.00  0.00    +0.149 HD
BRANCH   4   6
ATOM      6  C   UNL     1      -0.043   0.551  -7.167  0.00  0.00    +0.108 C 
BRANCH   6   7
ATOM      7  C   UNL     1      -0.038  -0.272  -8.457  0.00  0.00    +0.052 C 
BRANCH   7   8
ATOM      8  C   UNL     1      -0.058   0.656  -9.644  0.00  0.00    -0.040 C 
ATOM      9  C   UNL     1       1.008   1.093 -10.352  0.00  0.00    +0.000 A 
ATOM     10  C   UNL     1       2.450   0.847 -10.232  0.00  0.00    +0.030 A 
ATOM     11  C   UNL     1       3.293   1.441 -11.108  0.00  0.00    +0.042 A 
ATOM     12  C   UNL     1       2.823   2.285 -12.126  0.00  0.00    +0.022 A 
ATOM     13  C   UNL     1       1.513   2.559 -12.299  0.00  0.00    +0.027 A 
ATOM     14  C   UNL     1       0.539   1.987 -11.435  0.00  0.00    +0.043 A 
ATOM     15  N   UNL     1      -0.767   2.098 -11.398  0.00  0.00    -0.380 N 
ATOM     16  C   UNL     1      -1.274   1.280 -10.290  0.00  0.00    +0.144 C 
ATOM     17 CL   UNL     1       4.999   1.152 -10.970  0.00  0.00    -0.084 Cl
ATOM     18  H   UNL     1      -1.308   2.628 -12.004  0.00  0.00    +0.160 HD
ENDBRANCH   7   8
ENDBRANCH   6   7
ENDBRANCH   4   6
ENDBRANCH   1   2
BRANCH   1  19
ATOM     19  O   UNL     1      -0.010  -0.005  -2.370  0.00  0.00    -0.482 OA
BRANCH  19  22
ATOM     20  C   UNL     1      -0.018   1.503   0.010  0.00  0.00    +0.051 C 
ATOM     21  C   UNL     1       0.002  -0.004   0.002  0.00  0.00    +0.034 A 
ATOM     22  C   UNL     1       0.006  -0.693  -1.200  0.00  0.00    +0.128 A 
ATOM     23  C   UNL     1       0.026  -2.086  -1.218  0.00  0.00    +0.047 A 
ATOM     24  C   UNL     1       0.042  -2.792  -0.051  0.00  0.00    +0.015 A 
ATOM     25  C   UNL     1       0.037  -2.113   1.173  0.00  0.00    +0.022 A 
ATOM     26  C   UNL     1       0.023  -0.706   1.197  0.00  0.00    +0.146 A 
ATOM     27  O   UNL     1       0.024  -0.057   2.381  0.00  0.00    -0.422 OA
ATOM     28  C   UNL     1       0.037  -0.722   3.545  0.00  0.00    +0.341 A 
ATOM     29  O   UNL     1       0.028  -0.091   4.587  0.00  0.00    -0.245 OA
ATOM     30  C   UNL     1       0.060  -2.134   3.597  0.00  0.00    +0.041 A 
ATOM     31  C   UNL     1       0.053  -2.845   2.442  0.00  0.00    -0.027 A 
ATOM     32  C   UNL     1       0.080  -4.327   2.736  0.00  0.00    +0.036 C 
ATOM     33  C   UNL     1       0.518  -4.434   4.213  0.00  0.00    +0.010 C 
ATOM     34  C   UNL     1       0.083  -3.074   4.783  0.00  0.00    +0.043 C 
ENDBRANCH  19  22
ENDBRANCH   1  19
TORSDOF 6
