REMARK  Name = ZINC20735140
REMARK  8 active torsions:
REMARK  status: ('A' for Active; 'I' for Inactive)
REMARK    1  A    between atoms: C_1  and  C_2
REMARK    2  A    between atoms: C_2  and  C_3
REMARK    3  A    between atoms: C_2  and  C_4
REMARK    4  A    between atoms: C_4  and  C_6
REMARK    5  A    between atoms: C_4  and  N_10
REMARK    6  A    between atoms: C_6  and  O_8
REMARK    7  A    between atoms: O_8  and  C_9
REMARK    8  A    between atoms: C_22  and  C_24
REMARK                            x       y       z     vdW  Elec       q    Type
REMARK                         _______ _______ _______ _____ _____    ______ ____
ROOT
ATOM      1  N   UNL     1      -1.251  -1.985  -2.266  0.00  0.00    -0.286 N 
ATOM      2  C   UNL     1      -1.994  -0.863  -2.338  0.00  0.00    +0.304 C 
ATOM      3  O   UNL     1      -2.195  -0.200  -1.339  0.00  0.00    -0.253 OA
ATOM      4  N   UNL     1      -2.515  -0.475  -3.520  0.00  0.00    -0.273 N 
ATOM      5  C   UNL     1      -3.236   0.801  -3.644  0.00  0.00    +0.116 C 
ATOM      6  C   UNL     1      -2.463   1.726  -4.591  0.00  0.00    +0.076 C 
ATOM      7  C   UNL     1      -2.044   0.938  -5.807  0.00  0.00    +0.066 A 
ATOM      8  C   UNL     1      -2.001  -0.410  -5.864  0.00  0.00    +0.064 A 
ATOM      9  N   UNL     1      -1.574  -0.748  -7.111  0.00  0.00    -0.346 N 
ATOM     10  H   UNL     1      -1.441  -1.646  -7.452  0.00  0.00    +0.167 HD
ATOM     11  C   UNL     1      -1.371   0.408  -7.785  0.00  0.00    +0.197 A 
ATOM     12  N   UNL     1      -1.655   1.411  -6.996  0.00  0.00    -0.240 NA
ATOM     13  C   UNL     1      -2.371  -1.316  -4.722  0.00  0.00    +0.156 C 
ATOM     14  H   UNL     1      -1.155  -2.554  -3.045  0.00  0.00    +0.151 HD
ENDROOT
BRANCH  13  15
ATOM     15  C   UNL     1      -3.676  -2.008  -5.023  0.00  0.00    -0.021 A 
ATOM     16  C   UNL     1      -4.791  -1.263  -5.359  0.00  0.00    +0.007 A 
ATOM     17  C   UNL     1      -5.988  -1.897  -5.636  0.00  0.00    +0.015 A 
ATOM     18  C   UNL     1      -6.070  -3.276  -5.577  0.00  0.00    +0.018 A 
ATOM     19  C   UNL     1      -4.954  -4.021  -5.241  0.00  0.00    +0.015 A 
ATOM     20  C   UNL     1      -3.756  -3.387  -4.970  0.00  0.00    +0.007 A 
ATOM     21 BR   UNL     1      -7.707  -4.144  -5.955  0.00  0.00    -0.050 Br
ENDBRANCH  13  15
BRANCH   1  22
ATOM     22  C   UNL     1      -0.588  -2.344  -1.010  0.00  0.00    +0.186 C 
BRANCH  22  24
ATOM     23  C   UNL     1      -1.926  -4.441  -0.780  0.00  0.00    +0.009 C 
ATOM     24  C   UNL     1      -1.566  -3.110  -0.117  0.00  0.00    +0.014 C 
ATOM     25  C   UNL     1      -0.916  -3.376   1.242  0.00  0.00    +0.009 C 
ENDBRANCH  22  24
BRANCH  22  26
ATOM     26  C   UNL     1       0.609  -3.212  -1.303  0.00  0.00    +0.328 C 
ATOM     27  O   UNL     1       0.880  -3.500  -2.445  0.00  0.00    -0.249 OA
BRANCH  26  28
ATOM     28  O   UNL     1       1.373  -3.663  -0.297  0.00  0.00    -0.467 OA
ATOM     29  C   UNL     1       2.491  -4.481  -0.648  0.00  0.00    +0.280 C 
ENDBRANCH  26  28
ENDBRANCH  22  26
ENDBRANCH   1  22
TORSDOF 5
