REMARK  Name = ZINC13251368
REMARK  6 active torsions:
REMARK  status: ('A' for Active; 'I' for Inactive)
REMARK    1  A    between atoms: C_3  and  N_18
REMARK    2  A    between atoms: C_5  and  S_7
REMARK    3  A    between atoms: S_7  and  N_10
REMARK    4  A    between atoms: C_19  and  C_21
REMARK    5  A    between atoms: C_21  and  C_22
REMARK    6  A    between atoms: C_22  and  C_28
REMARK                            x       y       z     vdW  Elec       q    Type
REMARK                         _______ _______ _______ _____ _____    ______ ____
ROOT
ATOM      1  C   UNL     1      -0.013   1.375  -0.179  0.00  0.00    +0.004 A 
ATOM      2  C   UNL     1       1.175   2.081  -0.182  0.00  0.00    +0.023 A 
ATOM      3  C   UNL     1       2.380   1.411  -0.018  0.00  0.00    +0.035 A 
ATOM      4  C   UNL     1       2.387   0.032   0.148  0.00  0.00    +0.052 A 
ATOM      5  C   UNL     1       1.197  -0.668   0.150  0.00  0.00    +0.114 A 
ATOM      6  C   UNL     1      -0.002   0.002  -0.014  0.00  0.00    +0.029 A 
ENDROOT
BRANCH   3   7
ATOM      7  N   UNL     1       3.584   2.123  -0.021  0.00  0.00    -0.285 N 
ATOM      8  C   UNL     1       3.628   3.375   0.478  0.00  0.00    +0.218 C 
ATOM      9  O   UNL     1       2.649   3.848   1.016  0.00  0.00    -0.275 OA
ATOM     10  H   UNL     1       4.387   1.717  -0.382  0.00  0.00    +0.155 HD
BRANCH   8  11
ATOM     11  C   UNL     1       4.893   4.186   0.368  0.00  0.00    +0.114 C 
BRANCH  11  12
ATOM     12  C   UNL     1       4.677   5.558   1.008  0.00  0.00    +0.080 C 
ATOM     13  C   UNL     1       3.540   6.285   0.285  0.00  0.00    +0.019 C 
ATOM     14  C   UNL     1       3.905   6.462  -1.190  0.00  0.00    +0.001 C 
ATOM     15  C   UNL     1       5.190   7.286  -1.302  0.00  0.00    +0.000 C 
ATOM     16  C   UNL     1       6.326   6.559  -0.579  0.00  0.00    +0.001 C 
ATOM     17  C   UNL     1       5.961   6.382   0.896  0.00  0.00    +0.019 C 
BRANCH  12  18
ATOM     18  C   UNL     1       4.317   5.383   2.461  0.00  0.00    +0.362 C 
ATOM     19  O   UNL     1       4.241   4.265   2.940  0.00  0.00    -0.246 OA
ATOM     20  O   UNL     1       4.102   6.361   3.158  0.00  0.00    -0.246 OA
ENDBRANCH  12  18
ENDBRANCH  11  12
ENDBRANCH   8  11
ENDBRANCH   3   7
BRANCH   5  21
ATOM     21  S   UNL     1       1.206  -2.417   0.360  0.00  0.00    +0.100 S 
ATOM     22  O   UNL     1       0.003  -2.902  -0.221  0.00  0.00    -0.146 OA
ATOM     23  O   UNL     1       2.487  -2.870  -0.054  0.00  0.00    -0.146 OA
BRANCH  21  24
ATOM     24  N   UNL     1       1.100  -2.716   1.986  0.00  0.00    -0.118 NA
ATOM     25  C   UNL     1       1.086  -3.934   2.420  0.00  0.00    +0.117 C 
ATOM     26  N   UNL     1       1.166  -5.021   1.536  0.00  0.00    -0.331 N 
ATOM     27  C   UNL     1       2.363  -5.809   1.573  0.00  0.00    +0.102 C 
ATOM     28  C   UNL     1       2.366  -6.978   2.572  0.00  0.00    +0.019 C 
ATOM     29  C   UNL     1       1.719  -6.545   3.912  0.00  0.00    +0.002 C 
ATOM     30  C   UNL     1       2.107  -5.154   4.329  0.00  0.00    +0.008 C 
ATOM     31  C   UNL     1       0.995  -4.223   3.835  0.00  0.00    +0.073 C 
ATOM     32  H   UNL     1       0.442  -5.230   0.925  0.00  0.00    +0.147 HD
ENDBRANCH  21  24
ENDBRANCH   5  21
TORSDOF 6
