REMARK  Name = ZINC25524437
REMARK  6 active torsions:
REMARK  status: ('A' for Active; 'I' for Inactive)
REMARK    1  A    between atoms: C_1  and  C_2
REMARK    2  A    between atoms: C_10  and  C_11
REMARK    3  A    between atoms: N_13  and  N_14
REMARK    4  A    between atoms: N_14  and  S_15
REMARK    5  A    between atoms: S_15  and  C_18
REMARK    6  A    between atoms: C_21  and  N_24
REMARK                            x       y       z     vdW  Elec       q    Type
REMARK                         _______ _______ _______ _____ _____    ______ ____
ROOT
ATOM      1  S   UNL     1      -6.436   5.889   0.092  0.00  0.00    +0.074 S 
ATOM      2  O   UNL     1      -6.194   7.219  -0.344  0.00  0.00    -0.152 OA
ATOM      3  O   UNL     1      -7.361   5.029  -0.561  0.00  0.00    -0.152 OA
ENDROOT
BRANCH   1   4
ATOM      4  C   UNL     1      -4.880   5.062   0.072  0.00  0.00    +0.107 A 
ATOM      5  C   UNL     1      -4.832   3.684  -0.039  0.00  0.00    +0.030 A 
ATOM      6  C   UNL     1      -3.615   3.033  -0.054  0.00  0.00    +0.030 A 
ATOM      7  C   UNL     1      -2.437   3.763   0.044  0.00  0.00    +0.069 A 
ATOM      8  C   UNL     1      -2.489   5.146   0.161  0.00  0.00    +0.030 A 
ATOM      9  C   UNL     1      -3.710   5.792   0.170  0.00  0.00    +0.030 A 
BRANCH   7  10
ATOM     10  N   UNL     1      -1.202   3.106   0.029  0.00  0.00    -0.196 N 
ATOM     11  C   UNL     1      -0.999   2.039   0.827  0.00  0.00    +0.292 A 
ATOM     12  O   UNL     1      -1.889   1.642   1.563  0.00  0.00    -0.264 OA
ATOM     13  C   UNL     1       0.248   1.385   0.805  0.00  0.00    +0.127 A 
ATOM     14  C   UNL     1       1.228   1.847  -0.025  0.00  0.00    +0.084 A 
ATOM     15  C   UNL     1       0.980   2.961  -0.841  0.00  0.00    +0.155 A 
ATOM     16  N   UNL     1      -0.179   3.563  -0.809  0.00  0.00    -0.170 NA
ATOM     17 CL   UNL     1       2.774   1.059  -0.071  0.00  0.00    -0.080 Cl
ATOM     18 CL   UNL     1       0.536   0.007   1.822  0.00  0.00    -0.076 Cl
ENDBRANCH   7  10
ENDBRANCH   1   4
BRANCH   1  19
ATOM     19  N   UNL     1      -6.918   5.989   1.673  0.00  0.00    -0.108 NA
ATOM     20  H   UNL     1      -7.750   5.577   1.954  0.00  0.00    +0.172 HD
BRANCH  19  23
ATOM     21  C   UNL     1      -6.652   7.666   3.341  0.00  0.00    +0.294 C 
ATOM     22  O   UNL     1      -7.819   7.977   3.196  0.00  0.00    -0.265 OA
ATOM     23  N   UNL     1      -6.123   6.668   2.606  0.00  0.00    -0.225 N 
ATOM     24  H   UNL     1      -5.068   6.388   2.737  0.00  0.00    +0.171 HD
BRANCH  21  34
ATOM     25  C   UNL     1      -7.620  10.005   5.148  0.00  0.00    +0.048 C 
ATOM     26  C   UNL     1      -6.241   9.400   5.109  0.00  0.00    +0.008 A 
ATOM     27  C   UNL     1      -5.086   9.792   5.916  0.00  0.00    +0.024 A 
ATOM     28  C   UNL     1      -4.869  10.759   6.902  0.00  0.00    +0.012 A 
ATOM     29  C   UNL     1      -3.635  10.877   7.474  0.00  0.00    +0.001 A 
ATOM     30  C   UNL     1      -2.595  10.044   7.083  0.00  0.00    +0.004 A 
ATOM     31  C   UNL     1      -2.788   9.085   6.113  0.00  0.00    +0.047 A 
ATOM     32  C   UNL     1      -4.035   8.946   5.516  0.00  0.00    +0.136 A 
ATOM     33  O   UNL     1      -4.517   8.122   4.565  0.00  0.00    -0.450 OA
ATOM     34  C   UNL     1      -5.819   8.379   4.320  0.00  0.00    +0.195 A 
ENDBRANCH  21  34
ENDBRANCH  19  23
ENDBRANCH   1  19
TORSDOF 5
