REMARK  Name = ZINC36027379
REMARK  9 active torsions:
REMARK  status: ('A' for Active; 'I' for Inactive)
REMARK    1  A    between atoms: C_1  and  C_2
REMARK    2  A    between atoms: C_2  and  C_3
REMARK    3  A    between atoms: C_3  and  C_5
REMARK    4  A    between atoms: C_3  and  C_6
REMARK    5  A    between atoms: C_6  and  N_7
REMARK    6  A    between atoms: C_10  and  C_28
REMARK    7  A    between atoms: N_16  and  S_19
REMARK    8  A    between atoms: S_19  and  C_22
REMARK    9  A    between atoms: C_28  and  C_29
REMARK                            x       y       z     vdW  Elec       q    Type
REMARK                         _______ _______ _______ _____ _____    ______ ____
ROOT
ATOM      1  N   UNL     1       1.347  -2.481  -2.464  0.00  0.00    -0.313 N 
ATOM      2  C   UNL     1       0.861  -2.735  -3.696  0.00  0.00    +0.201 C 
ATOM      3  O   UNL     1      -0.294  -2.606  -4.043  0.00  0.00    -0.277 OA
ATOM      4  C   UNL     1       2.000  -3.208  -4.573  0.00  0.00    +0.023 C 
ATOM      5  N   UNL     1       3.229  -2.808  -3.846  0.00  0.00    +0.401 N 
ATOM      6  C   UNL     1       2.786  -2.758  -2.439  0.00  0.00    +0.006 C 
ATOM      7  C   UNL     1       3.054  -4.104  -1.770  0.00  0.00    +0.023 C 
ATOM      8  C   UNL     1       2.559  -4.060  -0.320  0.00  0.00    +0.109 C 
ATOM      9  N   UNL     1       3.174  -2.908   0.354  0.00  0.00    -0.177 NA
ATOM     10  C   UNL     1       3.035  -1.577  -0.253  0.00  0.00    +0.109 C 
ATOM     11  C   UNL     1       3.526  -1.642  -1.703  0.00  0.00    +0.023 C 
ATOM     12  H   UNL     1       3.956  -3.497  -3.969  0.00  0.00    -0.082 HD
ATOM     13  H   UNL     1       3.542  -1.898  -4.150  0.00  0.00    -0.082 HD
ENDROOT
BRANCH   9  14
ATOM     14  S   UNL     1       4.008  -3.107   1.770  0.00  0.00    +0.061 S 
ATOM     15  O   UNL     1       3.983  -1.851   2.436  0.00  0.00    -0.153 OA
ATOM     16  O   UNL     1       3.513  -4.296   2.370  0.00  0.00    -0.153 OA
BRANCH  14  17
ATOM     17  C   UNL     1       5.689  -3.418   1.346  0.00  0.00    +0.105 A 
ATOM     18  C   UNL     1       6.122  -4.715   1.142  0.00  0.00    +0.028 A 
ATOM     19  C   UNL     1       7.441  -4.959   0.809  0.00  0.00    +0.002 A 
ATOM     20  C   UNL     1       8.328  -3.906   0.680  0.00  0.00    +0.000 A 
ATOM     21  C   UNL     1       7.895  -2.609   0.883  0.00  0.00    +0.002 A 
ATOM     22  C   UNL     1       6.575  -2.365   1.211  0.00  0.00    +0.028 A 
ENDBRANCH  14  17
ENDBRANCH   9  14
BRANCH   1  23
ATOM     23  C   UNL     1       0.559  -1.998  -1.327  0.00  0.00    +0.109 C 
BRANCH  23  24
ATOM     24  C   UNL     1       0.523  -0.468  -1.345  0.00  0.00    +0.003 C 
ATOM     25  C   UNL     1      -0.239   0.009  -2.583  0.00  0.00    +0.009 C 
BRANCH  24  27
ATOM     26  C   UNL     1      -0.107   1.568  -0.042  0.00  0.00    +0.004 C 
ATOM     27  C   UNL     1      -0.180   0.040  -0.085  0.00  0.00    +0.001 C 
ENDBRANCH  24  27
ENDBRANCH  23  24
ENDBRANCH   1  23
BRANCH   4  28
ATOM     28  C   UNL     1       1.948  -4.728  -4.740  0.00  0.00    +0.028 C 
BRANCH  28  29
ATOM     29  C   UNL     1       3.009  -5.163  -5.718  0.00  0.00    -0.048 A 
ATOM     30  C   UNL     1       2.719  -5.231  -7.068  0.00  0.00    +0.003 A 
ATOM     31  C   UNL     1       3.693  -5.630  -7.965  0.00  0.00    +0.000 A 
ATOM     32  C   UNL     1       4.957  -5.960  -7.511  0.00  0.00    +0.000 A 
ATOM     33  C   UNL     1       5.247  -5.890  -6.162  0.00  0.00    +0.000 A 
ATOM     34  C   UNL     1       4.274  -5.487  -5.265  0.00  0.00    +0.003 A 
ENDBRANCH  28  29
ENDBRANCH   4  28
TORSDOF 7
