REMARK  Name = ZINC20726288
REMARK  3 active torsions:
REMARK  status: ('A' for Active; 'I' for Inactive)
REMARK    1  A    between atoms: N_10  and  C_13
REMARK    2  A    between atoms: C_13  and  C_15
REMARK    3  A    between atoms: C_13  and  C_26
REMARK                            x       y       z     vdW  Elec       q    Type
REMARK                         _______ _______ _______ _____ _____    ______ ____
ROOT
ATOM      1  C   UNL     1       1.359  -5.759   1.921  0.00  0.00    +0.080 C 
ENDROOT
BRANCH   1  11
ATOM      2  C   UNL     1       0.001   1.380  -0.207  0.00  0.00    +0.005 A 
ATOM      3  C   UNL     1       1.194   2.058   0.008  0.00  0.00    +0.020 A 
ATOM      4  C   UNL     1       2.355   1.338   0.203  0.00  0.00    +0.113 A 
ATOM      5  N   UNL     1       2.344   0.018   0.189  0.00  0.00    -0.240 NA
ATOM      6  C   UNL     1       1.227  -0.664  -0.013  0.00  0.00    +0.121 A 
ATOM      7  C   UNL     1       0.020  -0.002  -0.217  0.00  0.00    +0.043 A 
ATOM      8  N   UNL     1       1.260  -2.054  -0.021  0.00  0.00    -0.319 N 
ATOM      9  C   UNL     1       2.540  -2.779  -0.031  0.00  0.00    +0.088 C 
ATOM     10  C   UNL     1       2.511  -3.830   1.084  0.00  0.00    -0.058 C 
ATOM     11  N   UNL     1       1.329  -4.685   0.919  0.00  0.00    +0.394 N 
ATOM     12  C   UNL     1       0.108  -3.888   1.095  0.00  0.00    -0.058 C 
ATOM     13  C   UNL     1       0.018  -2.840  -0.013  0.00  0.00    +0.088 C 
ATOM     14  H   UNL     1       1.334  -5.090  -0.005  0.00  0.00    -0.080 HD
ENDBRANCH   1  11
BRANCH   1  15
ATOM     15  C   UNL     1       2.607  -6.584   1.734  0.00  0.00    -0.025 A 
ATOM     16  C   UNL     1       3.363  -6.649   0.628  0.00  0.00    +0.086 A 
ATOM     17  N   UNL     1       4.414  -7.502   0.830  0.00  0.00    -0.360 N 
ATOM     18  H   UNL     1       5.097  -7.710   0.173  0.00  0.00    +0.165 HD
ATOM     19  C   UNL     1       4.358  -8.020   2.104  0.00  0.00    +0.048 A 
ATOM     20  C   UNL     1       3.227  -7.463   2.729  0.00  0.00    +0.002 A 
ATOM     21  C   UNL     1       2.918  -7.806   4.046  0.00  0.00    +0.011 A 
ATOM     22  C   UNL     1       3.720  -8.681   4.725  0.00  0.00    +0.016 A 
ATOM     23  C   UNL     1       4.839  -9.231   4.115  0.00  0.00    +0.020 A 
ATOM     24  C   UNL     1       5.157  -8.911   2.812  0.00  0.00    +0.041 A 
ATOM     25 BR   UNL     1       5.932 -10.438   5.076  0.00  0.00    -0.050 Br
ENDBRANCH   1  15
BRANCH   1  26
ATOM     26  C   UNL     1       0.146  -6.637   1.753  0.00  0.00    +0.347 C 
ATOM     27  O   UNL     1      -0.570  -6.506   0.775  0.00  0.00    -0.248 OA
ATOM     28  O   UNL     1      -0.118  -7.478   2.595  0.00  0.00    -0.248 OA
ENDBRANCH   1  26
TORSDOF 3
