REMARK  Name = ZINC43763798
REMARK  15 active torsions:
REMARK  status: ('A' for Active; 'I' for Inactive)
REMARK    1  A    between atoms: C_1  and  C_2
REMARK    2  A    between atoms: C_2  and  C_3
REMARK    3  A    between atoms: C_3  and  C_4
REMARK    4  A    between atoms: C_7  and  C_12
REMARK    5  A    between atoms: N_9  and  C_11
REMARK    6  A    between atoms: N_14  and  C_15
REMARK    7  A    between atoms: C_15  and  C_17
REMARK    8  A    between atoms: C_15  and  C_37
REMARK    9  A    between atoms: C_19  and  O_36
REMARK   10  A    between atoms: C_21  and  O_35
REMARK   11  A    between atoms: C_23  and  O_30
REMARK   12  A    between atoms: C_25  and  S_28
REMARK   13  A    between atoms: S_28  and  C_29
REMARK   14  A    between atoms: O_30  and  P_31
REMARK   15  A    between atoms: C_37  and  C_39
REMARK                            x       y       z     vdW  Elec       q    Type
REMARK                         _______ _______ _______ _____ _____    ______ ____
ROOT
ATOM      1  C   UNL     1       1.400  -6.405  -1.354  0.00  0.00    +0.122 C 
ENDROOT
BRANCH   1   2
ATOM      2  C   UNL     1       2.833  -6.064  -1.767  0.00  0.00    +0.172 C 
ATOM      3  C   UNL     1       3.234  -4.719  -1.156  0.00  0.00    +0.176 C 
ATOM      4  C   UNL     1       2.318  -3.622  -1.708  0.00  0.00    +0.178 C 
ATOM      5  C   UNL     1       2.410  -3.617  -3.236  0.00  0.00    +0.200 C 
ATOM      6  C   UNL     1       2.041  -5.004  -3.767  0.00  0.00    +0.208 C 
ATOM      7  O   UNL     1       2.911  -5.981  -3.192  0.00  0.00    -0.356 OA
BRANCH   6   8
ATOM      8  S   UNL     1       2.216  -5.028  -5.573  0.00  0.00    -0.130 S 
ATOM      9  C   UNL     1       1.464  -6.603  -6.066  0.00  0.00    +0.087 C 
ENDBRANCH   6   8
BRANCH   4  10
ATOM     10  O   UNL     1       2.731  -2.353  -1.197  0.00  0.00    -0.386 OA
ATOM     11  H   UNL     1       2.193  -1.611  -1.506  0.00  0.00    +0.210 HD
ENDBRANCH   4  10
BRANCH   3  12
ATOM     12  O   UNL     1       3.103  -4.782   0.266  0.00  0.00    -0.387 OA
ATOM     13  H   UNL     1       3.341  -3.962   0.720  0.00  0.00    +0.210 HD
ENDBRANCH   3  12
BRANCH   5  14
ATOM     14  O   UNL     1       3.744  -3.292  -3.633  0.00  0.00    -0.274 OA
BRANCH  14  15
ATOM     15  P   UNL     1       4.102  -2.009  -4.538  0.00  0.00    +0.532 P 
ATOM     16  O   UNL     1       3.263  -2.052  -5.860  0.00  0.00    -0.222 OA
ATOM     17  O   UNL     1       3.763  -0.701  -3.746  0.00  0.00    -0.115 OA
ATOM     18  O   UNL     1       5.629  -2.026  -4.888  0.00  0.00    -0.115 OA
ENDBRANCH  14  15
ENDBRANCH   5  14
ENDBRANCH   1   2
BRANCH   1  21
ATOM     19  C   UNL     1      -0.585  -5.068  -0.897  0.00  0.00    +0.200 C 
ATOM     20  O   UNL     1      -0.803  -5.769   0.068  0.00  0.00    -0.278 OA
ATOM     21  N   UNL     1       0.526  -5.263  -1.635  0.00  0.00    -0.310 N 
ATOM     22  H   UNL     1       0.747  -4.648  -2.351  0.00  0.00    +0.149 HD
BRANCH  19  25
ATOM     23  C   UNL     1      -1.463  -2.193   0.361  0.00  0.00    -0.029 C 
ATOM     24  C   UNL     1      -0.914  -2.597  -1.033  0.00  0.00    -0.005 C 
ATOM     25  C   UNL     1      -1.557  -3.979  -1.273  0.00  0.00    +0.019 C 
ATOM     26  N   UNL     1      -2.757  -4.056  -0.420  0.00  0.00    +0.386 N 
ATOM     27  C   UNL     1      -2.896  -2.781   0.316  0.00  0.00    -0.075 C 
ATOM     28  C   UNL     1      -3.944  -4.278  -1.256  0.00  0.00    -0.095 C 
ATOM     29  H   UNL     1      -2.658  -4.817   0.236  0.00  0.00    -0.081 HD
BRANCH  23  30
ATOM     30  C   UNL     1      -1.500  -0.671   0.515  0.00  0.00    +0.001 C 
BRANCH  30  32
ATOM     31  C   UNL     1      -0.108   1.389   0.757  0.00  0.00    +0.004 C 
ATOM     32  C   UNL     1      -0.071  -0.132   0.602  0.00  0.00    -0.003 C 
ENDBRANCH  30  32
ENDBRANCH  23  30
ENDBRANCH  19  25
ENDBRANCH   1  21
BRANCH   1  33
ATOM     33  C   UNL     1       0.918  -7.623  -2.144  0.00  0.00    +0.100 C 
ATOM     34  C   UNL     1      -0.554  -7.889  -1.823  0.00  0.00    +0.026 C 
ATOM     35 CL   UNL     1       1.901  -9.064  -1.687  0.00  0.00    -0.120 Cl
ENDBRANCH   1  33
TORSDOF 11
