REMARK  Name = ZINC36046679
REMARK  11 active torsions:
REMARK  status: ('A' for Active; 'I' for Inactive)
REMARK    1  A    between atoms: C_1  and  C_2
REMARK    2  A    between atoms: N_5  and  S_11
REMARK    3  A    between atoms: C_7  and  C_10
REMARK    4  A    between atoms: S_11  and  C_14
REMARK    5  A    between atoms: C_17  and  C_20
REMARK    6  A    between atoms: N_22  and  C_23
REMARK    7  A    between atoms: C_23  and  C_24
REMARK    8  A    between atoms: C_24  and  C_26
REMARK    9  A    between atoms: C_24  and  N_33
REMARK   10  A    between atoms: N_33  and  C_34
REMARK   11  A    between atoms: N_33  and  C_35
REMARK                            x       y       z     vdW  Elec       q    Type
REMARK                         _______ _______ _______ _____ _____    ______ ____
ROOT
ATOM      1  C   UNL     1       2.574   3.186  -3.558  0.00  0.00    +0.106 A 
ATOM      2  C   UNL     1       1.507   3.988  -3.924  0.00  0.00    +0.029 A 
ATOM      3  C   UNL     1       1.391   5.262  -3.409  0.00  0.00    +0.015 A 
ATOM      4  C   UNL     1       2.352   5.742  -2.517  0.00  0.00    +0.037 A 
ATOM      5  C   UNL     1       3.425   4.928  -2.153  0.00  0.00    +0.015 A 
ATOM      6  C   UNL     1       3.527   3.653  -2.671  0.00  0.00    +0.029 A 
ENDROOT
BRANCH   4   7
ATOM      7  C   UNL     1       2.233   7.107  -1.962  0.00  0.00    +0.244 C 
ATOM      8  O   UNL     1       1.298   7.814  -2.282  0.00  0.00    -0.270 OA
ATOM      9  N   UNL     1       3.163   7.568  -1.102  0.00  0.00    -0.313 N 
ATOM     10  H   UNL     1       3.910   7.003  -0.847  0.00  0.00    +0.149 HD
BRANCH   9  11
ATOM     11  C   UNL     1       3.046   8.920  -0.551  0.00  0.00    +0.094 C 
BRANCH  11  12
ATOM     12  C   UNL     1       4.151   9.148   0.482  0.00  0.00    -0.020 C 
BRANCH  12  13
ATOM     13  C   UNL     1       3.945   8.220   1.651  0.00  0.00    -0.041 A 
ATOM     14  C   UNL     1       4.688   7.059   1.752  0.00  0.00    +0.003 A 
ATOM     15  C   UNL     1       4.499   6.208   2.824  0.00  0.00    +0.000 A 
ATOM     16  C   UNL     1       3.566   6.517   3.797  0.00  0.00    +0.001 A 
ATOM     17  C   UNL     1       2.823   7.678   3.697  0.00  0.00    +0.020 A 
ATOM     18  C   UNL     1       3.015   8.533   2.627  0.00  0.00    +0.043 A 
ATOM     19 CL   UNL     1       2.087   9.994   2.505  0.00  0.00    -0.083 Cl
ENDBRANCH  12  13
BRANCH  12  20
ATOM     20  N   UNL     1       5.458   8.879  -0.132  0.00  0.00    +0.382 N 
ATOM     21  C   UNL     1       5.604   9.690  -1.348  0.00  0.00    -0.096 C 
ATOM     22  C   UNL     1       6.525   9.224   0.817  0.00  0.00    -0.096 C 
ATOM     23  H   UNL     1       5.523   7.901  -0.370  0.00  0.00    -0.082 HD
ENDBRANCH  12  20
ENDBRANCH  11  12
ENDBRANCH   9  11
ENDBRANCH   4   7
BRANCH   1  24
ATOM     24  S   UNL     1       2.715   1.559  -4.221  0.00  0.00    +0.061 S 
ATOM     25  O   UNL     1       4.090   1.206  -4.142  0.00  0.00    -0.153 OA
ATOM     26  O   UNL     1       1.997   1.556  -5.447  0.00  0.00    -0.153 OA
BRANCH  24  30
ATOM     27  C   UNL     1      -0.223   1.963  -1.702  0.00  0.00    +0.039 C 
ATOM     28  C   UNL     1      -0.245   0.474  -2.053  0.00  0.00    +0.131 C 
ATOM     29  C   UNL     1       0.476   0.252  -3.387  0.00  0.00    +0.140 C 
ATOM     30  N   UNL     1       1.906   0.541  -3.195  0.00  0.00    -0.172 NA
ATOM     31  C   UNL     1       2.596  -0.102  -2.066  0.00  0.00    +0.140 C 
ATOM     32  C   UNL     1       1.771   0.137  -0.796  0.00  0.00    +0.131 C 
ATOM     33  O   UNL     1       0.419  -0.268  -1.028  0.00  0.00    -0.371 OA
ATOM     34  C   UNL     1       2.360  -0.679   0.357  0.00  0.00    +0.039 C 
ENDBRANCH  24  30
ENDBRANCH   1  24
TORSDOF 7
