REMARK  Name = ZINC66978871
REMARK  6 active torsions:
REMARK  status: ('A' for Active; 'I' for Inactive)
REMARK    1  A    between atoms: C_1  and  N_2
REMARK    2  A    between atoms: C_6  and  C_9
REMARK    3  A    between atoms: C_9  and  N_10
REMARK    4  A    between atoms: C_16  and  N_19
REMARK    5  A    between atoms: C_20  and  C_22
REMARK    6  A    between atoms: C_22  and  C_23
REMARK                            x       y       z     vdW  Elec       q    Type
REMARK                         _______ _______ _______ _____ _____    ______ ____
ROOT
ATOM      1  N   UNL     1       2.828  -3.966   4.353  0.00  0.00    -0.299 N 
ATOM      2  C   UNL     1       2.368  -4.634   3.277  0.00  0.00    +0.302 C 
ATOM      3  O   UNL     1       1.715  -4.051   2.432  0.00  0.00    -0.253 OA
ATOM      4  N   UNL     1       2.630  -5.948   3.137  0.00  0.00    -0.286 N 
ATOM      5  C   UNL     1       2.240  -6.664   1.914  0.00  0.00    +0.111 C 
ATOM      6  C   UNL     1       1.407  -7.889   2.304  0.00  0.00    +0.041 C 
ATOM      7  C   UNL     1       2.194  -8.738   3.305  0.00  0.00    +0.076 C 
ATOM      8  C   UNL     1       2.468  -7.918   4.568  0.00  0.00    +0.041 C 
ATOM      9  C   UNL     1       3.318  -6.692   4.201  0.00  0.00    +0.111 C 
ATOM     10  H   UNL     1       3.286  -4.444   5.061  0.00  0.00    +0.150 HD
ENDROOT
BRANCH   7  11
ATOM     11  N   UNL     1       1.415  -9.928   3.655  0.00  0.00    -0.312 N 
ATOM     12  C   UNL     1       2.040 -11.040   4.088  0.00  0.00    +0.214 C 
ATOM     13  O   UNL     1       3.249 -11.056   4.187  0.00  0.00    -0.276 OA
ATOM     14  H   UNL     1       0.448  -9.915   3.576  0.00  0.00    +0.149 HD
BRANCH  12  15
ATOM     15  C   UNL     1       1.238 -12.264   4.448  0.00  0.00    +0.099 C 
BRANCH  15  16
ATOM     16  C   UNL     1       2.183 -13.377   4.906  0.00  0.00    -0.002 C 
ATOM     17  C   UNL     1       3.071 -13.805   3.736  0.00  0.00    +0.004 C 
ATOM     18  C   UNL     1       4.016 -14.918   4.193  0.00  0.00    +0.000 C 
ATOM     19  C   UNL     1       3.197 -16.116   4.676  0.00  0.00    +0.000 C 
ATOM     20  C   UNL     1       2.309 -15.688   5.846  0.00  0.00    +0.000 C 
ATOM     21  C   UNL     1       1.364 -14.575   5.389  0.00  0.00    +0.004 C 
ENDBRANCH  15  16
ENDBRANCH  12  15
ENDBRANCH   7  11
BRANCH   1  22
ATOM     22  C   UNL     1       2.637  -2.516   4.452  0.00  0.00    +0.107 C 
BRANCH  22  28
ATOM     23  C   UNL     1       3.174   1.382   7.365  0.00  0.00    -0.096 C 
ATOM     24  N   UNL     1       3.533  -0.030   7.175  0.00  0.00    +0.378 N 
ATOM     25  C   UNL     1       4.994  -0.159   7.124  0.00  0.00    -0.079 C 
ATOM     26  C   UNL     1       5.375  -1.637   7.008  0.00  0.00    -0.018 C 
ATOM     27  C   UNL     1       4.765  -2.217   5.729  0.00  0.00    +0.001 C 
ATOM     28  C   UNL     1       3.248  -2.010   5.759  0.00  0.00    -0.011 C 
ATOM     29  C   UNL     1       2.945  -0.518   5.922  0.00  0.00    -0.074 C 
ATOM     30  H   UNL     1       3.176  -0.573   7.947  0.00  0.00    -0.082 HD
ENDBRANCH  22  28
ENDBRANCH   1  22
TORSDOF 5
