REMARK  Name = ZINC39509292
REMARK  12 active torsions:
REMARK  status: ('A' for Active; 'I' for Inactive)
REMARK    1  A    between atoms: C_1  and  C_2
REMARK    2  A    between atoms: N_5  and  C_16
REMARK    3  A    between atoms: C_10  and  O_14
REMARK    4  A    between atoms: O_14  and  C_15
REMARK    5  A    between atoms: C_16  and  C_17
REMARK    6  A    between atoms: C_17  and  C_18
REMARK    7  A    between atoms: N_20  and  C_21
REMARK    8  A    between atoms: C_21  and  C_22
REMARK    9  A    between atoms: C_22  and  C_23
REMARK   10  A    between atoms: C_23  and  C_31
REMARK   11  A    between atoms: C_27  and  C_29
REMARK   12  A    between atoms: C_27  and  C_30
REMARK                            x       y       z     vdW  Elec       q    Type
REMARK                         _______ _______ _______ _____ _____    ______ ____
ROOT
ATOM      1  C   UNL     1       1.922  -3.921  -4.285  0.00  0.00    +0.211 C 
ATOM      2  O   UNL     1       2.393  -3.047  -4.982  0.00  0.00    -0.276 OA
ATOM      3  N   UNL     1       1.918  -5.198  -4.715  0.00  0.00    -0.315 N 
ATOM      4  H   UNL     1       1.541  -5.896  -4.158  0.00  0.00    +0.149 HD
ENDROOT
BRANCH   1   5
ATOM      5  C   UNL     1       1.341  -3.578  -2.937  0.00  0.00    +0.077 C 
BRANCH   5   6
ATOM      6  C   UNL     1       1.470  -2.073  -2.693  0.00  0.00    -0.069 C 
BRANCH   6  10
ATOM      7  C   UNL     1      -2.420  -2.395   0.175  0.00  0.00    +0.050 C 
ATOM      8  C   UNL     1      -0.954  -1.958   0.179  0.00  0.00    +0.154 C 
ATOM      9  C   UNL     1      -0.415  -2.014  -1.233  0.00  0.00    -0.034 C 
ATOM     10  N   UNL     1       1.018  -1.757  -1.332  0.00  0.00    +0.385 N 
ATOM     11  C   UNL     1       1.327  -0.354  -1.037  0.00  0.00    -0.039 C 
ATOM     12  C   UNL     1       1.462  -0.189   0.465  0.00  0.00    -0.022 A 
ATOM     13  C   UNL     1       2.695   0.085   1.022  0.00  0.00    +0.009 A 
ATOM     14  C   UNL     1       2.808   0.250   2.390  0.00  0.00    +0.046 A 
ATOM     15  C   UNL     1       1.686   0.141   3.199  0.00  0.00    +0.124 A 
ATOM     16  C   UNL     1       0.449  -0.140   2.637  0.00  0.00    +0.091 A 
ATOM     17  C   UNL     1       0.342  -0.312   1.265  0.00  0.00    +0.126 A 
ATOM     18  O   UNL     1      -0.859  -0.629   0.707  0.00  0.00    -0.491 OA
ATOM     19  H   UNL     1       1.506  -2.348  -0.676  0.00  0.00    -0.081 HD
BRANCH  15  20
ATOM     20  O   UNL     1       1.798   0.310   4.542  0.00  0.00    -0.495 OA
ATOM     21  C   UNL     1       3.102   0.597   5.053  0.00  0.00    +0.277 C 
ENDBRANCH  15  20
ENDBRANCH   6  10
ENDBRANCH   5   6
ENDBRANCH   1   5
BRANCH   3  22
ATOM     22  C   UNL     1       2.482  -5.531  -6.026  0.00  0.00    +0.105 C 
BRANCH  22  23
ATOM     23  C   UNL     1       2.353  -7.036  -6.269  0.00  0.00    +0.030 C 
BRANCH  23  24
ATOM     24  C   UNL     1       3.080  -7.407  -7.563  0.00  0.00    +0.002 C 
ATOM     25  C   UNL     1       3.039  -8.926  -7.756  0.00  0.00    +0.040 C 
ATOM     26  C   UNL     1       3.790  -9.600  -6.604  0.00  0.00    +0.161 C 
ATOM     27  O   UNL     1       5.132  -9.111  -6.563  0.00  0.00    -0.374 OA
ATOM     28  C   UNL     1       5.234  -7.704  -6.337  0.00  0.00    +0.065 C 
ATOM     29  C   UNL     1       4.541  -6.954  -7.478  0.00  0.00    +0.046 C 
ATOM     30  C   UNL     1       4.560  -7.350  -5.010  0.00  0.00    +0.041 C 
ATOM     31  C   UNL     1       6.709  -7.301  -6.284  0.00  0.00    +0.041 C 
BRANCH  24  32
ATOM     32  C   UNL     1       2.409  -6.731  -8.730  0.00  0.00    -0.041 A 
ATOM     33  C   UNL     1       3.148  -5.934  -9.585  0.00  0.00    +0.004 A 
ATOM     34  C   UNL     1       2.533  -5.314 -10.656  0.00  0.00    +0.000 A 
ATOM     35  C   UNL     1       1.179  -5.489 -10.873  0.00  0.00    +0.000 A 
ATOM     36  C   UNL     1       0.440  -6.286 -10.018  0.00  0.00    +0.000 A 
ATOM     37  C   UNL     1       1.056  -6.910  -8.950  0.00  0.00    +0.004 A 
ENDBRANCH  24  32
ENDBRANCH  23  24
ENDBRANCH  22  23
ENDBRANCH   3  22
TORSDOF 8
