REMARK  Name = ZINC41585906
REMARK  8 active torsions:
REMARK  status: ('A' for Active; 'I' for Inactive)
REMARK    1  A    between atoms: C_1  and  C_2
REMARK    2  A    between atoms: C_2  and  C_3
REMARK    3  A    between atoms: C_2  and  C_4
REMARK    4  A    between atoms: C_2  and  C_5
REMARK    5  A    between atoms: C_8  and  C_11
REMARK    6  A    between atoms: C_18  and  O_35
REMARK    7  A    between atoms: C_19  and  C_22
REMARK    8  A    between atoms: C_22  and  N_23
REMARK                            x       y       z     vdW  Elec       q    Type
REMARK                         _______ _______ _______ _____ _____    ______ ____
ROOT
ATOM      1  C   UNL     1       2.744  -1.895  -4.614  0.00  0.00    +0.058 C 
ATOM      2  C   UNL     1       3.997  -1.466  -4.909  0.00  0.00    +0.176 C 
ATOM      3  C   UNL     1       4.853  -0.628  -4.053  0.00  0.00    +0.231 C 
ATOM      4  O   UNL     1       4.595  -0.179  -2.950  0.00  0.00    -0.283 OA
ATOM      5  C   UNL     1       6.094  -0.454  -4.831  0.00  0.00    +0.068 A 
ATOM      6  C   UNL     1       7.287   0.227  -4.584  0.00  0.00    +0.019 A 
ATOM      7  C   UNL     1       8.286   0.209  -5.516  0.00  0.00    +0.046 A 
ATOM      8  C   UNL     1       8.116  -0.485  -6.710  0.00  0.00    +0.125 A 
ATOM      9  C   UNL     1       6.936  -1.165  -6.968  0.00  0.00    +0.051 A 
ATOM     10  C   UNL     1       5.910  -1.158  -6.032  0.00  0.00    +0.147 A 
ATOM     11  O   UNL     1       4.689  -1.735  -6.040  0.00  0.00    -0.451 OA
ENDROOT
BRANCH   1  15
ATOM     12  C   UNL     1       0.745  -0.404  -1.185  0.00  0.00    -0.042 A 
ATOM     13  C   UNL     1       0.588  -1.729  -1.552  0.00  0.00    +0.005 A 
ATOM     14  C   UNL     1       1.234  -2.222  -2.665  0.00  0.00    +0.008 A 
ATOM     15  C   UNL     1       2.051  -1.377  -3.426  0.00  0.00    -0.021 A 
ATOM     16  C   UNL     1       2.205  -0.039  -3.048  0.00  0.00    +0.008 A 
ATOM     17  C   UNL     1       1.547   0.439  -1.935  0.00  0.00    +0.005 A 
BRANCH  12  19
ATOM     18  C   UNL     1      -0.902   1.264  -0.377  0.00  0.00    +0.015 C 
ATOM     19  C   UNL     1       0.035   0.126   0.034  0.00  0.00    -0.013 C 
ATOM     20  C   UNL     1       1.064   0.650   1.037  0.00  0.00    +0.015 C 
ATOM     21  C   UNL     1      -0.779  -0.997   0.678  0.00  0.00    +0.015 C 
ENDBRANCH  12  19
ENDBRANCH   1  15
BRANCH   8  22
ATOM     22  O   UNL     1       9.114  -0.496  -7.630  0.00  0.00    -0.506 OA
ATOM     23  H   UNL     1       9.740  -1.225  -7.522  0.00  0.00    +0.292 HD
ENDBRANCH   8  22
BRANCH   9  24
ATOM     24  C   UNL     1       6.766  -1.913  -8.266  0.00  0.00    +0.127 C 
BRANCH  24  25
ATOM     25  N   UNL     1       7.239  -3.294  -8.101  0.00  0.00    -0.295 NA
ATOM     26  C   UNL     1       6.393  -4.030  -7.152  0.00  0.00    +0.103 C 
ATOM     27  C   UNL     1       7.020  -5.399  -6.870  0.00  0.00    +0.122 C 
ATOM     28  N   UNL     1       7.253  -6.080  -8.153  0.00  0.00    -0.314 N 
ATOM     29  C   UNL     1       7.976  -5.351  -9.206  0.00  0.00    +0.122 C 
ATOM     30  C   UNL     1       7.311  -3.983  -9.396  0.00  0.00    +0.103 C 
ATOM     31  C   UNL     1       6.801  -7.377  -8.365  0.00  0.00    +0.099 A 
ATOM     32  C   UNL     1       7.148  -8.046  -9.534  0.00  0.00    +0.042 A 
ATOM     33  C   UNL     1       6.691  -9.336  -9.732  0.00  0.00    +0.005 A 
ATOM     34  C   UNL     1       5.899  -9.917  -8.751  0.00  0.00    +0.018 A 
ATOM     35  C   UNL     1       5.593  -9.195  -7.615  0.00  0.00    +0.084 A 
ATOM     36  N   UNL     1       6.047  -7.967  -7.450  0.00  0.00    -0.350 N 
ATOM     37  H   UNL     1       5.820  -7.483  -6.640  0.00  0.00    +0.166 HD
ENDBRANCH  24  25
ENDBRANCH   9  24
TORSDOF 5
