REMARK  Name = ZINC34367489
REMARK  12 active torsions:
REMARK  status: ('A' for Active; 'I' for Inactive)
REMARK    1  A    between atoms: C_1  and  C_2
REMARK    2  A    between atoms: C_5  and  N_9
REMARK    3  A    between atoms: C_14  and  C_29
REMARK    4  A    between atoms: C_17  and  C_22
REMARK    5  A    between atoms: C_17  and  C_26
REMARK    6  A    between atoms: C_22  and  C_24
REMARK    7  A    between atoms: C_22  and  O_25
REMARK    8  A    between atoms: C_32  and  O_38
REMARK    9  A    between atoms: C_33  and  C_37
REMARK   10  A    between atoms: C_34  and  O_35
REMARK   11  A    between atoms: O_35  and  C_36
REMARK   12  A    between atoms: O_38  and  C_39
REMARK                            x       y       z     vdW  Elec       q    Type
REMARK                         _______ _______ _______ _____ _____    ______ ____
ROOT
ATOM      1  N   UNL     1      -0.393  -4.352  -1.311  0.00  0.00    -0.210 N 
ATOM      2  C   UNL     1      -0.274  -5.411  -2.177  0.00  0.00    +0.229 C 
ATOM      3  O   UNL     1      -0.052  -5.374  -3.368  0.00  0.00    -0.275 OA
ATOM      4  C   UNL     1      -0.471  -6.580  -1.351  0.00  0.00    +0.077 C 
ATOM      5  C   UNL     1      -0.220  -8.028  -1.369  0.00  0.00    -0.023 C 
ATOM      6  N   UNL     1      -0.314  -8.438   0.071  0.00  0.00    +0.397 N 
ATOM      7  C   UNL     1      -0.493  -7.191   0.884  0.00  0.00    +0.074 C 
ATOM      8  C   UNL     1       0.204  -6.131   0.005  0.00  0.00    +0.089 C 
ATOM      9  C   UNL     1      -0.353  -4.734  -0.000  0.00  0.00    +0.229 C 
ATOM     10  O   UNL     1      -0.698  -4.082   0.962  0.00  0.00    -0.275 OA
ATOM     11  H   UNL     1      -1.106  -9.049   0.203  0.00  0.00    -0.083 HD
ATOM     12  H   UNL     1       0.534  -8.909   0.349  0.00  0.00    -0.083 HD
ENDROOT
BRANCH   1  17
ATOM     13  C   UNL     1      -0.967   1.036  -3.003  0.00  0.00    +0.045 C 
ATOM     14  C   UNL     1      -0.814  -0.394  -2.553  0.00  0.00    -0.032 A 
ATOM     15  C   UNL     1      -0.705  -1.404  -3.491  0.00  0.00    +0.006 A 
ATOM     16  C   UNL     1      -0.566  -2.716  -3.083  0.00  0.00    +0.024 A 
ATOM     17  C   UNL     1      -0.534  -3.021  -1.728  0.00  0.00    +0.045 A 
ATOM     18  C   UNL     1      -0.643  -2.006  -0.788  0.00  0.00    +0.044 A 
ATOM     19  C   UNL     1      -0.778  -0.694  -1.203  0.00  0.00    +0.046 A 
ATOM     20 CL   UNL     1      -0.909   0.578  -0.028  0.00  0.00    -0.083 Cl
ENDBRANCH   1  17
BRANCH   5  21
ATOM     21  C   UNL     1       1.155  -8.318  -1.913  0.00  0.00    -0.018 A 
ATOM     22  C   UNL     1       2.085  -7.301  -2.018  0.00  0.00    +0.009 A 
ATOM     23  C   UNL     1       3.346  -7.564  -2.517  0.00  0.00    +0.046 A 
ATOM     24  C   UNL     1       3.683  -8.851  -2.913  0.00  0.00    +0.126 A 
ATOM     25  C   UNL     1       2.752  -9.873  -2.809  0.00  0.00    +0.033 A 
ATOM     26  C   UNL     1       1.488  -9.608  -2.303  0.00  0.00    +0.128 A 
ATOM     27  C   UNL     1       3.114 -11.271  -3.239  0.00  0.00    +0.051 C 
BRANCH  26  28
ATOM     28  O   UNL     1       0.576 -10.608  -2.194  0.00  0.00    -0.495 OA
ATOM     29  C   UNL     1      -0.273 -10.838  -3.320  0.00  0.00    +0.277 C 
ENDBRANCH  26  28
BRANCH  24  30
ATOM     30  O   UNL     1       4.923  -9.109  -3.404  0.00  0.00    -0.495 OA
ATOM     31  C   UNL     1       5.831  -8.008  -3.484  0.00  0.00    +0.277 C 
ENDBRANCH  24  30
ENDBRANCH   5  21
BRANCH   7  32
ATOM     32  C   UNL     1       0.206  -7.315   2.213  0.00  0.00    +0.349 C 
ATOM     33  O   UNL     1       0.787  -8.347   2.503  0.00  0.00    -0.248 OA
ATOM     34  O   UNL     1       0.191  -6.383   3.000  0.00  0.00    -0.248 OA
ENDBRANCH   7  32
BRANCH   7  35
ATOM     35  C   UNL     1      -1.978  -6.879   1.078  0.00  0.00    +0.112 C 
ATOM     36  C   UNL     1      -2.679  -8.094   1.689  0.00  0.00    +0.037 C 
BRANCH  35  37
ATOM     37  O   UNL     1      -2.119  -5.758   1.953  0.00  0.00    -0.393 OA
ATOM     38  H   UNL     1      -3.036  -5.503   2.122  0.00  0.00    +0.210 HD
ENDBRANCH  35  37
ENDBRANCH   7  35
TORSDOF 7
