REMARK  Name = ZINC51986023
REMARK  4 active torsions:
REMARK  status: ('A' for Active; 'I' for Inactive)
REMARK    1  A    between atoms: C_1  and  C_2
REMARK    2  A    between atoms: C_7  and  C_8
REMARK    3  A    between atoms: C_8  and  C_9
REMARK    4  A    between atoms: C_9  and  C_10
REMARK                            x       y       z     vdW  Elec       q    Type
REMARK                         _______ _______ _______ _____ _____    ______ ____
ROOT
ATOM      1  C   UNL     1      -1.411   1.134   4.208  0.00  0.00    +0.219 C 
ATOM      2  O   UNL     1      -0.362   1.369   4.770  0.00  0.00    -0.275 OA
ATOM      3  N   UNL     1      -2.574   1.540   4.754  0.00  0.00    -0.265 N 
ATOM      4  C   UNL     1      -2.572   2.228   5.962  0.00  0.00    +0.165 A 
ATOM      5  N   UNL     1      -1.541   2.574   6.704  0.00  0.00    -0.229 NA
ATOM      6  C   UNL     1      -1.691   3.236   7.844  0.00  0.00    +0.050 A 
ATOM      7  C   UNL     1      -2.979   3.521   8.178  0.00  0.00    -0.003 A 
ATOM      8  S   UNL     1      -3.888   2.829   6.827  0.00  0.00    -0.059 S 
ATOM      9  C   UNL     1      -3.449   4.242   9.393  0.00  0.00    -0.037 C 
ATOM     10  N   UNL     1      -2.339   4.280  10.366  0.00  0.00    +0.382 N 
ATOM     11  C   UNL     1      -1.120   4.760   9.702  0.00  0.00    -0.076 C 
ATOM     12  C   UNL     1      -0.564   3.683   8.764  0.00  0.00    +0.037 C 
ATOM     13  H   UNL     1      -3.413   1.352   4.304  0.00  0.00    +0.157 HD
ATOM     14  H   UNL     1      -2.577   4.904  11.123  0.00  0.00    -0.085 HD
ATOM     15  H   UNL     1      -2.180   3.353  10.731  0.00  0.00    -0.085 HD
ENDROOT
BRANCH   1  16
ATOM     16  C   UNL     1      -1.413   0.387   2.899  0.00  0.00    +0.101 C 
BRANCH  16  17
ATOM     17  C   UNL     1       0.025   0.045   2.504  0.00  0.00    +0.044 C 
BRANCH  17  24
ATOM     18  C   UNL     1      -0.018   1.503   0.010  0.00  0.00    +0.044 C 
ATOM     19  C   UNL     1       0.002  -0.004   0.002  0.00  0.00    -0.047 A 
ATOM     20  C   UNL     1       0.006  -0.689  -1.199  0.00  0.00    +0.003 A 
ATOM     21  C   UNL     1       0.025  -2.071  -1.207  0.00  0.00    +0.000 A 
ATOM     22  C   UNL     1       0.040  -2.768  -0.013  0.00  0.00    +0.000 A 
ATOM     23  C   UNL     1       0.037  -2.084   1.188  0.00  0.00    +0.004 A 
ATOM     24  C   UNL     1       0.023  -0.702   1.195  0.00  0.00    -0.044 A 
ENDBRANCH  17  24
ENDBRANCH  16  17
ENDBRANCH   1  16
TORSDOF 3
