REMARK  Name = ZINC09245761
REMARK  9 active torsions:
REMARK  status: ('A' for Active; 'I' for Inactive)
REMARK    1  A    between atoms: C_1  and  C_2
REMARK    2  A    between atoms: C_2  and  C_4
REMARK    3  A    between atoms: C_2  and  N_62
REMARK    4  A    between atoms: C_7  and  S_16
REMARK    5  A    between atoms: N_8  and  C_9
REMARK    6  A    between atoms: S_16  and  C_17
REMARK    7  A    between atoms: C_17  and  C_19
REMARK    8  A    between atoms: C_17  and  C_20
REMARK    9  A    between atoms: C_20  and  C_22
REMARK                            x       y       z     vdW  Elec       q    Type
REMARK                         _______ _______ _______ _____ _____    ______ ____
ROOT
ATOM      1  C   UNL     1      -0.747   1.579   3.646  0.00  0.00    +0.125 A 
ATOM      2  N   UNL     1      -2.023   1.769   3.829  0.00  0.00    -0.135 NA
ATOM      3  N   UNL     1      -2.231   2.299   4.981  0.00  0.00    -0.122 NA
ATOM      4  C   UNL     1      -1.088   2.486   5.600  0.00  0.00    +0.197 A 
ATOM      5  N   UNL     1      -0.103   2.032   4.767  0.00  0.00    -0.275 N 
ENDROOT
BRANCH   5   6
ATOM      6  C   UNL     1       1.279   2.032   5.009  0.00  0.00    +0.050 A 
ATOM      7  C   UNL     1       1.964   0.830   5.125  0.00  0.00    +0.029 A 
ATOM      8  C   UNL     1       3.325   0.831   5.359  0.00  0.00    +0.040 A 
ATOM      9  C   UNL     1       4.005   2.030   5.487  0.00  0.00    +0.124 A 
ATOM     10  C   UNL     1       3.323   3.230   5.377  0.00  0.00    +0.040 A 
ATOM     11  C   UNL     1       1.963   3.233   5.138  0.00  0.00    +0.029 A 
ATOM     12  F   UNL     1       5.336   2.030   5.721  0.00  0.00    -0.205 F 
ENDBRANCH   5   6
BRANCH   1  14
ATOM     13  C   UNL     1      -0.316  -0.536   2.425  0.00  0.00    -0.005 C 
ATOM     14  C   UNL     1      -0.099   0.979   2.425  0.00  0.00    -0.002 C 
BRANCH  14  20
ATOM     15  C   UNL     1      -0.013   1.086   0.008  0.00  0.00    -0.078 C 
ATOM     16  C   UNL     1      -0.752   1.593  -1.232  0.00  0.00    -0.019 C 
ATOM     17  C   UNL     1      -0.788   3.123  -1.209  0.00  0.00    -0.004 C 
ATOM     18  C   UNL     1      -1.465   3.591   0.082  0.00  0.00    -0.019 C 
ATOM     19  C   UNL     1      -0.705   3.026   1.284  0.00  0.00    -0.078 C 
ATOM     20  N   UNL     1      -0.728   1.550   1.216  0.00  0.00    +0.386 N 
ATOM     21  H   UNL     1      -1.704   1.234   1.167  0.00  0.00    -0.081 HD
ENDBRANCH  14  20
ENDBRANCH   1  14
BRANCH   4  22
ATOM     22  S   UNL     1      -0.865   3.188   7.200  0.00  0.00    -0.075 S 
BRANCH  22  23
ATOM     23  C   UNL     1      -2.589   3.524   7.639  0.00  0.00    +0.122 C 
ATOM     24  C   UNL     1      -3.160   4.581   6.691  0.00  0.00    +0.028 C 
BRANCH  23  25
ATOM     25  C   UNL     1      -2.657   4.031   9.056  0.00  0.00    +0.178 C 
ATOM     26  O   UNL     1      -1.694   4.578   9.552  0.00  0.00    -0.291 OA
BRANCH  25  27
ATOM     27  C   UNL     1      -3.846   3.869   9.811  0.00  0.00    +0.043 A 
ATOM     28  C   UNL     1      -5.017   3.273   9.393  0.00  0.00    +0.095 A 
ATOM     29  N   UNL     1      -5.923   3.308  10.389  0.00  0.00    -0.360 N 
ATOM     30  H   UNL     1      -6.822   2.948  10.329  0.00  0.00    +0.165 HD
ATOM     31  C   UNL     1      -5.397   3.925  11.505  0.00  0.00    +0.047 A 
ATOM     32  C   UNL     1      -4.078   4.299  11.204  0.00  0.00    +0.010 A 
ATOM     33  C   UNL     1      -3.302   4.955  12.155  0.00  0.00    +0.011 A 
ATOM     34  C   UNL     1      -3.831   5.224  13.399  0.00  0.00    +0.001 A 
ATOM     35  C   UNL     1      -5.132   4.851  13.701  0.00  0.00    +0.002 A 
ATOM     36  C   UNL     1      -5.913   4.206  12.766  0.00  0.00    +0.026 A 
ENDBRANCH  25  27
ENDBRANCH  23  25
ENDBRANCH  22  23
ENDBRANCH   4  22
TORSDOF 7
