REMARK  Name = ZINC39980367
REMARK  6 active torsions:
REMARK  status: ('A' for Active; 'I' for Inactive)
REMARK    1  A    between atoms: C_1  and  C_2
REMARK    2  A    between atoms: C_6  and  N_9
REMARK    3  A    between atoms: C_7  and  C_8
REMARK    4  A    between atoms: N_9  and  C_10
REMARK    5  A    between atoms: N_13  and  S_14
REMARK    6  A    between atoms: S_14  and  C_17
REMARK                            x       y       z     vdW  Elec       q    Type
REMARK                         _______ _______ _______ _____ _____    ______ ____
ROOT
ATOM      1  C   UNL     1      -0.040  -4.259   2.382  0.00  0.00    +0.237 C 
ATOM      2  C   UNL     1      -1.190  -4.654   3.281  0.00  0.00    +0.192 C 
ATOM      3  N   UNL     1      -2.390  -4.212   3.050  0.00  0.00    -0.110 NA
ATOM      4  N   UNL     1      -0.953  -5.469   4.321  0.00  0.00    -0.226 NA
ATOM      5  C   UNL     1       0.254  -5.931   4.576  0.00  0.00    +0.089 A 
ATOM      6  C   UNL     1       0.468  -6.790   5.684  0.00  0.00    +0.030 A 
ATOM      7  C   UNL     1       1.704  -7.266   5.950  0.00  0.00    +0.002 A 
ATOM      8  C   UNL     1       2.825  -6.948   5.166  0.00  0.00    +0.002 A 
ATOM      9  C   UNL     1       2.733  -6.138   4.089  0.00  0.00    +0.027 A 
ATOM     10  C   UNL     1       1.421  -5.578   3.731  0.00  0.00    +0.063 A 
ATOM     11  N   UNL     1       1.294  -4.794   2.698  0.00  0.00    -0.359 N 
ATOM     12  H   UNL     1       2.061  -4.568   2.150  0.00  0.00    +0.162 HD
ENDROOT
BRANCH   3  13
ATOM     13  S   UNL     1      -3.641  -4.653   4.042  0.00  0.00    +0.100 S 
ATOM     14  O   UNL     1      -3.825  -6.051   3.866  0.00  0.00    -0.146 OA
ATOM     15  O   UNL     1      -3.375  -4.073   5.312  0.00  0.00    -0.146 OA
BRANCH  13  16
ATOM     16  C   UNL     1      -5.095  -3.871   3.427  0.00  0.00    +0.113 A 
ATOM     17  C   UNL     1      -5.446  -2.612   3.876  0.00  0.00    +0.030 A 
ATOM     18  C   UNL     1      -6.586  -1.998   3.393  0.00  0.00    +0.017 A 
ATOM     19  C   UNL     1      -7.377  -2.644   2.460  0.00  0.00    +0.018 A 
ATOM     20  C   UNL     1      -7.025  -3.905   2.010  0.00  0.00    +0.017 A 
ATOM     21  C   UNL     1      -5.882  -4.515   2.490  0.00  0.00    +0.030 A 
ATOM     22 BR   UNL     1      -8.937  -1.806   1.799  0.00  0.00    -0.050 Br
ENDBRANCH  13  16
ENDBRANCH   3  13
BRANCH   1  23
ATOM     23  N   UNL     1       0.051  -2.796   2.390  0.00  0.00    -0.318 N 
ATOM     24  H   UNL     1       0.086  -2.317   3.233  0.00  0.00    +0.148 HD
BRANCH  23  30
ATOM     25  C   UNL     1       0.029   1.495  -0.005  0.00  0.00    +0.044 C 
ATOM     26  C   UNL     1       0.080  -0.011  -0.007  0.00  0.00    -0.046 A 
ATOM     27  C   UNL     1       0.164  -0.698  -1.204  0.00  0.00    +0.004 A 
ATOM     28  C   UNL     1       0.210  -2.080  -1.211  0.00  0.00    +0.002 A 
ATOM     29  C   UNL     1       0.172  -2.779  -0.020  0.00  0.00    +0.023 A 
ATOM     30  C   UNL     1       0.089  -2.093   1.185  0.00  0.00    +0.032 A 
ATOM     31  C   UNL     1       0.048  -0.704   1.187  0.00  0.00    -0.027 A 
ATOM     32  C   UNL     1      -0.037   0.045   2.492  0.00  0.00    +0.046 C 
ENDBRANCH  23  30
ENDBRANCH   1  23
TORSDOF 4
