REMARK  Name = ZINC38889765
REMARK  10 active torsions:
REMARK  status: ('A' for Active; 'I' for Inactive)
REMARK    1  A    between atoms: C_1  and  C_2
REMARK    2  A    between atoms: C_5  and  C_8
REMARK    3  A    between atoms: C_10  and  C_13
REMARK    4  A    between atoms: C_13  and  N_14
REMARK    5  A    between atoms: C_18  and  C_21
REMARK    6  A    between atoms: N_23  and  C_24
REMARK    7  A    between atoms: C_24  and  C_25
REMARK    8  A    between atoms: C_25  and  S_26
REMARK    9  A    between atoms: S_26  and  C_27
REMARK   10  A    between atoms: C_27  and  C_28
REMARK                            x       y       z     vdW  Elec       q    Type
REMARK                         _______ _______ _______ _____ _____    ______ ____
ROOT
ATOM      1  N   UNL     1      -1.278  -7.884   1.946  0.00  0.00    +0.386 N 
ATOM      2  C   UNL     1      -1.949  -6.806   2.683  0.00  0.00    -0.078 C 
ATOM      3  C   UNL     1      -3.410  -7.187   2.932  0.00  0.00    -0.018 C 
ATOM      4  C   UNL     1      -3.463  -8.478   3.753  0.00  0.00    +0.009 C 
ATOM      5  C   UNL     1      -2.696  -9.576   3.010  0.00  0.00    +0.058 C 
ATOM      6  C   UNL     1      -1.262  -9.107   2.758  0.00  0.00    -0.065 C 
ATOM      7  H   UNL     1      -1.774  -8.059   1.085  0.00  0.00    -0.081 HD
ENDROOT
BRANCH   5   8
ATOM      8  C   UNL     1      -2.678 -10.831   3.844  0.00  0.00    +0.214 C 
ATOM      9  O   UNL     1      -1.620 -11.306   4.200  0.00  0.00    -0.276 OA
ATOM     10  N   UNL     1      -3.836 -11.424   4.195  0.00  0.00    -0.314 N 
ATOM     11  H   UNL     1      -4.681 -11.043   3.911  0.00  0.00    +0.149 HD
BRANCH  10  12
ATOM     12  C   UNL     1      -3.818 -12.643   5.007  0.00  0.00    +0.115 C 
BRANCH  12  13
ATOM     13  C   UNL     1      -5.253 -13.108   5.262  0.00  0.00    +0.088 C 
BRANCH  13  14
ATOM     14  S   UNL     1      -5.230 -14.618   6.266  0.00  0.00    -0.155 S 
BRANCH  14  15
ATOM     15  C   UNL     1      -6.984 -15.032   6.476  0.00  0.00    +0.104 C 
BRANCH  15  16
ATOM     16  C   UNL     1      -7.109 -16.285   7.304  0.00  0.00    -0.037 A 
ATOM     17  C   UNL     1      -7.123 -17.522   6.688  0.00  0.00    +0.006 A 
ATOM     18  C   UNL     1      -7.238 -18.671   7.447  0.00  0.00    +0.020 A 
ATOM     19  C   UNL     1      -7.338 -18.584   8.823  0.00  0.00    +0.041 A 
ATOM     20  C   UNL     1      -7.324 -17.345   9.440  0.00  0.00    +0.020 A 
ATOM     21  C   UNL     1      -7.204 -16.197   8.681  0.00  0.00    +0.006 A 
ATOM     22 CL   UNL     1      -7.483 -20.027   9.777  0.00  0.00    -0.084 Cl
ENDBRANCH  15  16
ENDBRANCH  14  15
ENDBRANCH  13  14
ENDBRANCH  12  13
ENDBRANCH  10  12
ENDBRANCH   5   8
BRANCH   1  23
ATOM     23  C   UNL     1       0.102  -7.482   1.642  0.00  0.00    +0.022 C 
BRANCH  23  26
ATOM     24  C   UNL     1       0.059  -4.256  -0.021  0.00  0.00    +0.202 A 
ATOM     25  N   UNL     1       0.070  -5.047   1.067  0.00  0.00    -0.193 NA
ATOM     26  C   UNL     1       0.086  -6.299   0.708  0.00  0.00    +0.211 A 
ATOM     27  O   UNL     1       0.086  -6.357  -0.630  0.00  0.00    -0.340 OA
ATOM     28  N   UNL     1       0.064  -5.015  -1.090  0.00  0.00    -0.056 NA
BRANCH  24  33
ATOM     29  C   UNL     1      -0.018   1.503   0.010  0.00  0.00    +0.044 C 
ATOM     30  C   UNL     1       0.002  -0.004   0.002  0.00  0.00    -0.050 A 
ATOM     31  C   UNL     1       0.006  -0.686  -1.201  0.00  0.00    +0.004 A 
ATOM     32  C   UNL     1       0.024  -2.067  -1.214  0.00  0.00    +0.012 A 
ATOM     33  C   UNL     1       0.040  -2.772  -0.013  0.00  0.00    +0.022 A 
ATOM     34  C   UNL     1       0.036  -2.080   1.196  0.00  0.00    +0.012 A 
ATOM     35  C   UNL     1       0.023  -0.700   1.198  0.00  0.00    +0.004 A 
ENDBRANCH  24  33
ENDBRANCH  23  26
ENDBRANCH   1  23
TORSDOF 9
