REMARK  Name = ZINC39324514
REMARK  14 active torsions:
REMARK  status: ('A' for Active; 'I' for Inactive)
REMARK    1  A    between atoms: C_1  and  C_2
REMARK    2  A    between atoms: C_2  and  N_3
REMARK    3  A    between atoms: C_6  and  C_7
REMARK    4  A    between atoms: C_12  and  O_13
REMARK    5  A    between atoms: O_13  and  C_14
REMARK    6  A    between atoms: C_14  and  C_15
REMARK    7  A    between atoms: C_14  and  C_16
REMARK    8  A    between atoms: C_20  and  C_28
REMARK    9  A    between atoms: C_22  and  C_26
REMARK   10  A    between atoms: C_23  and  N_25
REMARK   11  A    between atoms: C_33  and  O_34
REMARK   12  A    between atoms: O_34  and  C_35
REMARK   13  A    between atoms: C_35  and  C_36
REMARK   14  A    between atoms: C_35  and  C_37
REMARK                            x       y       z     vdW  Elec       q    Type
REMARK                         _______ _______ _______ _____ _____    ______ ____
ROOT
ATOM      1  N   UNL     1       0.135  -1.449   1.289  0.00  0.00    -0.294 NA
ATOM      2  C   UNL     1      -0.768  -0.992   2.362  0.00  0.00    +0.123 C 
ATOM      3  C   UNL     1      -2.174  -1.027   1.800  0.00  0.00    +0.010 C 
ATOM      4  C   UNL     1      -3.054  -0.044   2.062  0.00  0.00    +0.020 C 
ATOM      5  C   UNL     1      -2.542  -2.180   0.952  0.00  0.00    +0.136 C 
ATOM      6  C   UNL     1      -1.596  -3.026   0.541  0.00  0.00    -0.000 C 
ATOM      7  C   UNL     1      -0.152  -2.839   0.929  0.00  0.00    +0.120 C 
ATOM      8  C   UNL     1      -1.954  -4.204  -0.333  0.00  0.00    +0.099 C 
ATOM      9  C   UNL     1      -3.304  -4.001  -0.960  0.00  0.00    +0.098 C 
ATOM     10  C   UNL     1      -4.172  -3.089  -0.456  0.00  0.00    +0.199 C 
ATOM     11  O   UNL     1      -3.845  -2.344   0.615  0.00  0.00    -0.441 OA
ENDROOT
BRANCH   4  12
ATOM     12  C   UNL     1      -2.711   1.014   3.026  0.00  0.00    +0.017 A 
ATOM     13  C   UNL     1      -1.923   0.720   4.142  0.00  0.00    +0.011 A 
ATOM     14  C   UNL     1      -1.605   1.716   5.040  0.00  0.00    +0.001 A 
ATOM     15  C   UNL     1      -2.062   3.008   4.841  0.00  0.00    +0.004 A 
ATOM     16  C   UNL     1      -2.842   3.312   3.741  0.00  0.00    +0.046 A 
ATOM     17  C   UNL     1      -3.167   2.325   2.825  0.00  0.00    +0.128 A 
BRANCH  17  18
ATOM     18  O   UNL     1      -3.928   2.624   1.741  0.00  0.00    -0.489 OA
BRANCH  18  19
ATOM     19  C   UNL     1      -4.353   3.982   1.601  0.00  0.00    +0.167 C 
ATOM     20  C   UNL     1      -3.240   4.798   0.940  0.00  0.00    +0.051 C 
ATOM     21  C   UNL     1      -5.611   4.036   0.732  0.00  0.00    +0.051 C 
ENDBRANCH  18  19
ENDBRANCH  17  18
ENDBRANCH   4  12
BRANCH   8  22
ATOM     22  C   UNL     1      -1.982  -5.456   0.505  0.00  0.00    +0.007 A 
ATOM     23  C   UNL     1      -2.856  -5.556   1.570  0.00  0.00    +0.008 A 
ATOM     24  C   UNL     1      -2.881  -6.704   2.340  0.00  0.00    +0.001 A 
ATOM     25  C   UNL     1      -2.032  -7.756   2.046  0.00  0.00    +0.004 A 
ATOM     26  C   UNL     1      -1.157  -7.661   0.981  0.00  0.00    +0.046 A 
ATOM     27  C   UNL     1      -1.133  -6.511   0.204  0.00  0.00    +0.125 A 
BRANCH  27  28
ATOM     28  O   UNL     1      -0.277  -6.418  -0.847  0.00  0.00    -0.489 OA
BRANCH  28  29
ATOM     29  C   UNL     1       0.623  -7.509  -1.050  0.00  0.00    +0.167 C 
ATOM     30  C   UNL     1      -0.089  -8.620  -1.824  0.00  0.00    +0.051 C 
ATOM     31  C   UNL     1       1.837  -7.028  -1.848  0.00  0.00    +0.051 C 
ENDBRANCH  28  29
ENDBRANCH  27  28
ENDBRANCH   8  22
BRANCH  10  32
ATOM     32  N   UNL     1      -5.400  -2.923  -1.046  0.00  0.00    -0.328 N 
ATOM     33  H   UNL     1      -5.643  -3.457  -1.819  0.00  0.00    +0.145 HD
ATOM     34  H   UNL     1      -6.026  -2.272  -0.691  0.00  0.00    +0.145 HD
ENDBRANCH  10  32
BRANCH   1  36
ATOM     35  C   UNL     1       1.866   0.204   1.807  0.00  0.00    +0.020 C 
ATOM     36  C   UNL     1       1.541  -1.286   1.680  0.00  0.00    +0.082 C 
ENDBRANCH   1  36
BRANCH   9  37
ATOM     37  C   UNL     1      -3.679  -4.779  -2.102  0.00  0.00    +0.101 C 
ATOM     38  N   UNL     1      -3.976  -5.397  -3.008  0.00  0.00    -0.191 NA
ENDBRANCH   9  37
TORSDOF 9
