REMARK  Name = ZINC64886816
REMARK  7 active torsions:
REMARK  status: ('A' for Active; 'I' for Inactive)
REMARK    1  A    between atoms: C_4  and  C_8
REMARK    2  A    between atoms: C_9  and  C_10
REMARK    3  A    between atoms: N_12  and  N_13
REMARK    4  A    between atoms: N_16  and  C_17
REMARK    5  A    between atoms: C_17  and  C_18
REMARK    6  A    between atoms: C_18  and  C_19
REMARK    7  A    between atoms: C_19  and  N_20
REMARK                            x       y       z     vdW  Elec       q    Type
REMARK                         _______ _______ _______ _____ _____    ______ ____
ROOT
ATOM      1  N   UNL     1       6.666  -4.045   1.705  0.00  0.00    -0.218 N 
ATOM      2  C   UNL     1       6.900  -5.033   2.591  0.00  0.00    +0.316 C 
ATOM      3  O   UNL     1       7.963  -5.623   2.578  0.00  0.00    -0.251 OA
ATOM      4  N   UNL     1       5.955  -5.367   3.493  0.00  0.00    -0.298 N 
ATOM      5  H   UNL     1       7.345  -3.805   1.056  0.00  0.00    +0.174 HD
ATOM      6  H   UNL     1       5.107  -4.896   3.504  0.00  0.00    +0.150 HD
ENDROOT
BRANCH   1   9
ATOM      7  C   UNL     1       5.207  -2.378   0.834  0.00  0.00    +0.253 C 
ATOM      8  O   UNL     1       6.059  -2.076   0.019  0.00  0.00    -0.269 OA
ATOM      9  N   UNL     1       5.441  -3.365   1.720  0.00  0.00    -0.230 N 
ATOM     10  H   UNL     1       4.761  -3.606   2.369  0.00  0.00    +0.173 HD
BRANCH   7  12
ATOM     11  C   UNL     1       3.693  -0.679  -0.037  0.00  0.00    +0.016 C 
ATOM     12  C   UNL     1       3.927  -1.668   0.850  0.00  0.00    +0.069 C 
BRANCH  11  16
ATOM     13  C   UNL     1      -0.017   1.379   0.010  0.00  0.00    +0.003 A 
ATOM     14  C   UNL     1       1.167   2.096   0.002  0.00  0.00    +0.020 A 
ATOM     15  C   UNL     1       2.379   1.434  -0.013  0.00  0.00    +0.049 A 
ATOM     16  C   UNL     1       2.407   0.035  -0.021  0.00  0.00    +0.012 A 
ATOM     17  C   UNL     1       1.204  -0.682  -0.013  0.00  0.00    +0.049 A 
ATOM     18  C   UNL     1       0.002  -0.004   0.002  0.00  0.00    +0.020 A 
ATOM     19 CL   UNL     1       1.225  -2.418  -0.023  0.00  0.00    -0.083 Cl
ATOM     20 CL   UNL     1       3.862   2.335  -0.023  0.00  0.00    -0.083 Cl
ENDBRANCH  11  16
ENDBRANCH   7  12
ENDBRANCH   1   9
BRANCH   4  21
ATOM     21  C   UNL     1       6.210  -6.441   4.457  0.00  0.00    +0.107 C 
BRANCH  21  22
ATOM     22  C   UNL     1       4.986  -6.616   5.359  0.00  0.00    +0.040 C 
BRANCH  22  23
ATOM     23  C   UNL     1       5.252  -7.738   6.365  0.00  0.00    +0.124 C 
BRANCH  23  24
ATOM     24  N   UNL     1       4.081  -7.906   7.229  0.00  0.00    -0.338 N 
ATOM     25  C   UNL     1       3.845  -7.261   8.413  0.00  0.00    +0.104 A 
ATOM     26  C   UNL     1       2.661  -7.709   8.872  0.00  0.00    +0.101 A 
ATOM     27  N   UNL     1       2.187  -8.603   7.992  0.00  0.00    -0.352 N 
ATOM     28  C   UNL     1       3.029  -8.723   7.003  0.00  0.00    +0.173 A 
ATOM     29  H   UNL     1       1.347  -9.083   8.076  0.00  0.00    +0.166 HD
ENDBRANCH  23  24
ENDBRANCH  22  23
ENDBRANCH  21  22
ENDBRANCH   4  21
TORSDOF 7
