REMARK  Name = ZINC04165698
REMARK  7 active torsions:
REMARK  status: ('A' for Active; 'I' for Inactive)
REMARK    1  A    between atoms: C_1  and  C_2
REMARK    2  A    between atoms: C_2  and  C_3
REMARK    3  A    between atoms: C_2  and  C_4
REMARK    4  A    between atoms: C_11  and  N_27
REMARK    5  A    between atoms: C_12  and  C_25
REMARK    6  A    between atoms: C_13  and  C_15
REMARK    7  A    between atoms: C_20  and  C_21
REMARK                            x       y       z     vdW  Elec       q    Type
REMARK                         _______ _______ _______ _____ _____    ______ ____
ROOT
ATOM      1  C   UNL     1      -1.858  -0.913   0.152  0.00  0.00    +0.073 A 
ATOM      2  C   UNL     1      -2.253  -1.478  -1.053  0.00  0.00    +0.050 A 
ATOM      3  C   UNL     1      -3.565  -1.843  -0.940  0.00  0.00    +0.222 A 
ATOM      4  N   UNL     1      -3.972  -1.517   0.297  0.00  0.00    -0.246 N 
ATOM      5  H   UNL     1      -4.859  -1.659   0.662  0.00  0.00    +0.192 HD
ATOM      6  N   UNL     1      -2.884  -0.938   0.969  0.00  0.00    -0.175 NA
ATOM      7  O   UNL     1      -4.253  -2.425  -1.954  0.00  0.00    -0.423 OA
ATOM      8  C   UNL     1      -3.699  -2.394  -3.183  0.00  0.00    +0.200 C 
ATOM      9  C   UNL     1      -2.411  -2.062  -3.420  0.00  0.00    +0.098 C 
ATOM     10  C   UNL     1      -1.454  -1.693  -2.313  0.00  0.00    +0.102 C 
ENDROOT
BRANCH  10  11
ATOM     11  C   UNL     1      -0.464  -2.810  -2.102  0.00  0.00    -0.023 A 
ATOM     12  C   UNL     1      -0.889  -4.025  -1.598  0.00  0.00    +0.005 A 
ATOM     13  C   UNL     1       0.018  -5.049  -1.405  0.00  0.00    +0.000 A 
ATOM     14  C   UNL     1       1.352  -4.858  -1.716  0.00  0.00    +0.001 A 
ATOM     15  C   UNL     1       1.777  -3.644  -2.221  0.00  0.00    +0.012 A 
ATOM     16  C   UNL     1       0.868  -2.621  -2.418  0.00  0.00    +0.059 A 
BRANCH  16  17
ATOM     17  C   UNL     1       1.330  -1.298  -2.974  0.00  0.00    +0.418 C 
ATOM     18  F   UNL     1       2.685  -1.383  -3.313  0.00  0.00    -0.166 F 
ATOM     19  F   UNL     1       0.583  -0.985  -4.114  0.00  0.00    -0.166 F 
ATOM     20  F   UNL     1       1.152  -0.300  -2.010  0.00  0.00    -0.166 F 
ENDBRANCH  16  17
ENDBRANCH  10  11
BRANCH   1  22
ATOM     21  C   UNL     1      -0.572   1.144   0.666  0.00  0.00    +0.014 C 
ATOM     22  C   UNL     1      -0.488  -0.371   0.469  0.00  0.00    +0.034 C 
ATOM     23  C   UNL     1       0.035  -1.024   1.750  0.00  0.00    +0.014 C 
ENDBRANCH   1  22
BRANCH   8  24
ATOM     24  N   UNL     1      -4.490  -2.719  -4.257  0.00  0.00    -0.328 N 
ATOM     25  H   UNL     1      -5.419  -2.962  -4.119  0.00  0.00    +0.145 HD
ATOM     26  H   UNL     1      -4.120  -2.706  -5.153  0.00  0.00    +0.145 HD
ENDBRANCH   8  24
BRANCH   9  27
ATOM     27  C   UNL     1      -1.936  -2.060  -4.771  0.00  0.00    +0.101 C 
ATOM     28  N   UNL     1      -1.560  -2.058  -5.842  0.00  0.00    -0.191 NA
ENDBRANCH   9  27
TORSDOF 5
