REMARK  Name = ZINC31815414
REMARK  8 active torsions:
REMARK  status: ('A' for Active; 'I' for Inactive)
REMARK    1  A    between atoms: C_6  and  C_7
REMARK    2  A    between atoms: C_7  and  O_8
REMARK    3  A    between atoms: C_9  and  C_13
REMARK    4  A    between atoms: C_13  and  C_15
REMARK    5  A    between atoms: C_13  and  N_18
REMARK    6  A    between atoms: N_21  and  C_24
REMARK    7  A    between atoms: C_24  and  C_25
REMARK    8  A    between atoms: C_25  and  N_26
REMARK                            x       y       z     vdW  Elec       q    Type
REMARK                         _______ _______ _______ _____ _____    ______ ____
ROOT
ATOM      1  C   UNL     1      -1.361  -0.549  -0.064  0.00  0.00    +0.080 C 
ENDROOT
BRANCH   1   8
ATOM      2  C   UNL     1      -3.967   0.646  -4.619  0.00  0.00    +0.008 A 
ATOM      3  C   UNL     1      -2.602   0.794  -4.734  0.00  0.00    +0.026 A 
ATOM      4  C   UNL     1      -1.784   0.524  -3.643  0.00  0.00    +0.047 A 
ATOM      5  C   UNL     1      -2.365   0.101  -2.433  0.00  0.00    +0.002 A 
ATOM      6  C   UNL     1      -3.750  -0.043  -2.339  0.00  0.00    +0.016 A 
ATOM      7  C   UNL     1      -4.536   0.229  -3.424  0.00  0.00    -0.021 A 
ATOM      8  C   UNL     1      -1.255  -0.097  -1.498  0.00  0.00    -0.025 A 
ATOM      9  C   UNL     1      -0.127   0.207  -2.158  0.00  0.00    +0.086 A 
ATOM     10  N   UNL     1      -0.422   0.575  -3.443  0.00  0.00    -0.360 N 
ATOM     11  H   UNL     1       0.243   0.880  -4.264  0.00  0.00    +0.165 HD
BRANCH   7  12
ATOM     12  C   UNL     1      -6.031   0.074  -3.322  0.00  0.00    +0.191 C 
BRANCH  12  13
ATOM     13  O   UNL     1      -6.399  -1.258  -3.687  0.00  0.00    -0.390 OA
ATOM     14  H   UNL     1      -7.456  -1.561  -3.673  0.00  0.00    +0.210 HD
ENDBRANCH  12  13
ENDBRANCH   7  12
ENDBRANCH   1   8
BRANCH   1  15
ATOM     15  N   UNL     1      -0.217  -0.030   0.698  0.00  0.00    +0.393 N 
ATOM     16  C   UNL     1      -0.184   1.438   0.665  0.00  0.00    -0.062 C 
ATOM     17  C   UNL     1       1.062   1.935   1.401  0.00  0.00    +0.066 C 
ATOM     18  N   UNL     1       1.039   1.442   2.786  0.00  0.00    -0.308 NA
ATOM     19  C   UNL     1       1.007  -0.026   2.819  0.00  0.00    +0.066 C 
ATOM     20  C   UNL     1      -0.240  -0.523   2.083  0.00  0.00    -0.062 C 
ATOM     21  H   UNL     1       0.702  -0.402   0.221  0.00  0.00    -0.080 HD
BRANCH  18  22
ATOM     22  C   UNL     1       2.183   1.961   3.548  0.00  0.00    +0.066 C 
BRANCH  22  23
ATOM     23  C   UNL     1       2.048   3.477   3.702  0.00  0.00    -0.063 C 
BRANCH  23  24
ATOM     24  N   UNL     1       3.192   3.995   4.465  0.00  0.00    +0.381 N 
ATOM     25  C   UNL     1       4.476   3.548   3.868  0.00  0.00    -0.079 C 
ATOM     26  C   UNL     1       5.501   4.566   4.428  0.00  0.00    -0.020 C 
ATOM     27  C   UNL     1       4.707   5.892   4.427  0.00  0.00    -0.020 C 
ATOM     28  C   UNL     1       3.225   5.473   4.432  0.00  0.00    -0.079 C 
ATOM     29  H   UNL     1       3.064   3.618   5.490  0.00  0.00    -0.082 HD
ENDBRANCH  23  24
ENDBRANCH  22  23
ENDBRANCH  18  22
ENDBRANCH   1  15
BRANCH   1  30
ATOM     30  C   UNL     1      -1.359  -2.055  -0.011  0.00  0.00    +0.347 C 
ATOM     31  O   UNL     1      -0.317  -2.654   0.114  0.00  0.00    -0.248 OA
ATOM     32  O   UNL     1      -2.515  -2.731  -0.103  0.00  0.00    -0.248 OA
ENDBRANCH   1  30
TORSDOF 8
