REMARK  Name = ZINC09778674
REMARK  7 active torsions:
REMARK  status: ('A' for Active; 'I' for Inactive)
REMARK    1  A    between atoms: C_1  and  C_2
REMARK    2  A    between atoms: C_2  and  C_4
REMARK    3  A    between atoms: C_2  and  N_60
REMARK    4  A    between atoms: N_6  and  C_7
REMARK    5  A    between atoms: C_8  and  C_17
REMARK    6  A    between atoms: N_21  and  S_24
REMARK    7  A    between atoms: S_24  and  C_27
REMARK                            x       y       z     vdW  Elec       q    Type
REMARK                         _______ _______ _______ _____ _____    ______ ____
ROOT
ATOM      1  C   UNL     1      -0.843   1.712  -1.114  0.00  0.00    -0.004 C 
ATOM      2  C   UNL     1      -0.013   1.086   0.008  0.00  0.00    +0.017 C 
ENDROOT
BRANCH   2   8
ATOM      3  C   UNL     1      -1.821   0.448   1.487  0.00  0.00    -0.060 C 
ATOM      4  C   UNL     1      -2.362   0.612   2.911  0.00  0.00    +0.091 C 
ATOM      5  N   UNL     1      -2.631   2.039   3.147  0.00  0.00    -0.180 NA
ATOM      6  C   UNL     1      -1.563   3.006   2.850  0.00  0.00    +0.091 C 
ATOM      7  C   UNL     1      -1.054   2.748   1.428  0.00  0.00    -0.060 C 
ATOM      8  N   UNL     1      -0.645   1.330   1.321  0.00  0.00    +0.389 N 
ATOM      9  H   UNL     1       0.034   1.122   2.062  0.00  0.00    -0.081 HD
BRANCH   5  10
ATOM     10  S   UNL     1      -4.096   2.543   3.732  0.00  0.00    +0.061 S 
ATOM     11  O   UNL     1      -4.661   1.435   4.420  0.00  0.00    -0.153 OA
ATOM     12  O   UNL     1      -3.873   3.797   4.360  0.00  0.00    -0.153 OA
BRANCH  10  13
ATOM     13  C   UNL     1      -5.133   2.854   2.341  0.00  0.00    +0.105 A 
ATOM     14  C   UNL     1      -5.165   4.112   1.771  0.00  0.00    +0.028 A 
ATOM     15  C   UNL     1      -5.975   4.355   0.677  0.00  0.00    +0.002 A 
ATOM     16  C   UNL     1      -6.760   3.341   0.160  0.00  0.00    +0.000 A 
ATOM     17  C   UNL     1      -6.732   2.084   0.734  0.00  0.00    +0.002 A 
ATOM     18  C   UNL     1      -5.918   1.840   1.825  0.00  0.00    +0.028 A 
ENDBRANCH  10  13
ENDBRANCH   5  10
ENDBRANCH   2   8
BRANCH   2  19
ATOM     19  C   UNL     1       1.365   1.697   0.015  0.00  0.00    +0.204 C 
ATOM     20  O   UNL     1       1.667   2.501   0.871  0.00  0.00    -0.277 OA
ATOM     21  N   UNL     1       2.260   1.351  -0.931  0.00  0.00    -0.280 N 
ATOM     22  H   UNL     1       2.018   0.709  -1.616  0.00  0.00    +0.155 HD
BRANCH  21  23
ATOM     23  C   UNL     1       3.529   1.915  -0.925  0.00  0.00    +0.090 A 
ATOM     24  C   UNL     1       4.576   1.688  -1.803  0.00  0.00    +0.084 A 
ATOM     25  C   UNL     1       5.818   2.414  -1.579  0.00  0.00    -0.018 A 
ATOM     26  C   UNL     1       5.811   3.238  -0.509  0.00  0.00    -0.004 A 
ATOM     27  S   UNL     1       4.185   3.077   0.178  0.00  0.00    -0.077 S 
ATOM     28  C   UNL     1       6.927   4.101  -0.009  0.00  0.00    +0.043 C 
ATOM     29  C   UNL     1       7.512   4.899  -1.182  0.00  0.00    +0.005 C 
ATOM     30  C   UNL     1       8.627   4.077  -1.819  0.00  0.00    +0.001 C 
ATOM     31  C   UNL     1       8.304   2.587  -1.721  0.00  0.00    +0.005 C 
ATOM     32  C   UNL     1       7.029   2.265  -2.492  0.00  0.00    +0.037 C 
BRANCH  24  33
ATOM     33  C   UNL     1       4.441   0.771  -2.895  0.00  0.00    +0.102 C 
ATOM     34  N   UNL     1       4.334   0.044  -3.761  0.00  0.00    -0.191 NA
ENDBRANCH  24  33
ENDBRANCH  21  23
ENDBRANCH   2  19
TORSDOF 6
