REMARK  Name = ZINC20344284
REMARK  8 active torsions:
REMARK  status: ('A' for Active; 'I' for Inactive)
REMARK    1  A    between atoms: C_1  and  C_2
REMARK    2  A    between atoms: C_4  and  O_5
REMARK    3  A    between atoms: N_13  and  C_14
REMARK    4  A    between atoms: C_14  and  N_16
REMARK    5  A    between atoms: N_16  and  C_17
REMARK    6  A    between atoms: C_20  and  S_23
REMARK    7  A    between atoms: S_23  and  N_26
REMARK    8  A    between atoms: N_26  and  C_27
REMARK                            x       y       z     vdW  Elec       q    Type
REMARK                         _______ _______ _______ _____ _____    ______ ____
ROOT
ATOM      1  N   UNL     1       6.574   5.188   1.092  0.00  0.00    -0.297 N 
ATOM      2  H   UNL     1       6.355   5.414   2.146  0.00  0.00    +0.154 HD
ENDROOT
BRANCH   1   3
ATOM      3  C   UNL     1       6.425   3.883   0.611  0.00  0.00    +0.033 A 
ATOM      4  C   UNL     1       6.944   2.813   1.330  0.00  0.00    +0.025 A 
ATOM      5  C   UNL     1       6.796   1.526   0.852  0.00  0.00    +0.030 A 
ATOM      6  C   UNL     1       6.132   1.301  -0.339  0.00  0.00    +0.109 A 
ATOM      7  C   UNL     1       5.618   2.364  -1.060  0.00  0.00    +0.030 A 
ATOM      8  C   UNL     1       5.759   3.654  -0.585  0.00  0.00    +0.025 A 
BRANCH   6   9
ATOM      9  S   UNL     1       5.945  -0.343  -0.945  0.00  0.00    +0.072 S 
ATOM     10  O   UNL     1       6.912  -1.136  -0.271  0.00  0.00    -0.150 OA
ATOM     11  O   UNL     1       5.890  -0.250  -2.362  0.00  0.00    -0.150 OA
BRANCH   9  12
ATOM     12  N   UNL     1       4.460  -0.882  -0.448  0.00  0.00    -0.216 N 
ATOM     13  H   UNL     1       3.691  -1.137  -1.191  0.00  0.00    +0.174 HD
BRANCH  12  14
ATOM     14  C   UNL     1       4.186  -1.014   0.915  0.00  0.00    +0.048 A 
ATOM     15  C   UNL     1       2.971  -0.574   1.426  0.00  0.00    +0.024 A 
ATOM     16  C   UNL     1       2.703  -0.705   2.775  0.00  0.00    +0.002 A 
ATOM     17  C   UNL     1       3.642  -1.273   3.616  0.00  0.00    +0.000 A 
ATOM     18  C   UNL     1       4.852  -1.712   3.111  0.00  0.00    +0.002 A 
ATOM     19  C   UNL     1       5.127  -1.584   1.763  0.00  0.00    +0.024 A 
ENDBRANCH  12  14
ENDBRANCH   9  12
ENDBRANCH   6   9
ENDBRANCH   1   3
BRANCH   1  20
ATOM     20  C   UNL     1       6.984   6.169   0.264  0.00  0.00    +0.139 C 
ATOM     21  S   UNL     1       7.218   5.842  -1.400  0.00  0.00    -0.018 S 
BRANCH  20  33
ATOM     22  C   UNL     1       9.640  11.363  -3.860  0.00  0.00    +0.045 C 
ATOM     23  C   UNL     1       8.628  11.569  -2.762  0.00  0.00    -0.033 A 
ATOM     24  C   UNL     1       8.024  12.774  -2.588  0.00  0.00    +0.091 A 
ATOM     25  C   UNL     1       7.080  12.942  -1.554  0.00  0.00    +0.285 A 
ATOM     26  O   UNL     1       6.754  11.937  -0.727  0.00  0.00    -0.425 OA
ATOM     27  C   UNL     1       7.317  10.715  -0.846  0.00  0.00    +0.141 A 
ATOM     28  C   UNL     1       8.268  10.477  -1.856  0.00  0.00    +0.021 A 
ATOM     29  C   UNL     1       8.854   9.212  -1.984  0.00  0.00    +0.013 A 
ATOM     30  C   UNL     1       8.505   8.213  -1.123  0.00  0.00    +0.024 A 
ATOM     31  C   UNL     1       7.559   8.440  -0.123  0.00  0.00    +0.036 A 
ATOM     32  C   UNL     1       6.969   9.688   0.017  0.00  0.00    +0.070 A 
ATOM     33  N   UNL     1       7.209   7.407   0.746  0.00  0.00    -0.297 N 
ATOM     34  H   UNL     1       7.117   7.603   1.824  0.00  0.00    +0.154 HD
BRANCH  25  35
ATOM     35  O   UNL     1       6.546  14.027  -1.409  0.00  0.00    -0.480 OA
ATOM     36  H   UNL     1       5.807  14.173  -0.608  0.00  0.00    +0.295 HD
ENDBRANCH  25  35
ENDBRANCH  20  33
ENDBRANCH   1  20
TORSDOF 7
