REMARK  Name = ZINC08611040
REMARK  12 active torsions:
REMARK  status: ('A' for Active; 'I' for Inactive)
REMARK    1  A    between atoms: C_1  and  C_2
REMARK    2  A    between atoms: C_2  and  N_3
REMARK    3  A    between atoms: N_3  and  C_4
REMARK    4  A    between atoms: N_3  and  C_6
REMARK    5  A    between atoms: C_4  and  C_5
REMARK    6  A    between atoms: C_6  and  C_7
REMARK    7  A    between atoms: C_7  and  N_8
REMARK    8  A    between atoms: C_9  and  C_11
REMARK    9  A    between atoms: C_11  and  N_12
REMARK   10  A    between atoms: N_25  and  C_26
REMARK   11  A    between atoms: C_26  and  C_27
REMARK   12  A    between atoms: C_32  and  C_33
REMARK                            x       y       z     vdW  Elec       q    Type
REMARK                         _______ _______ _______ _____ _____    ______ ____
ROOT
ATOM      1  N   UNL     1      -6.793  -8.503   0.246  0.00  0.00    -0.219 N 
ATOM      2  C   UNL     1      -7.203  -8.616  -1.033  0.00  0.00    +0.292 A 
ATOM      3  O   UNL     1      -6.431  -8.387  -1.950  0.00  0.00    -0.264 OA
ATOM      4  C   UNL     1      -8.538  -9.003  -1.302  0.00  0.00    +0.119 A 
ATOM      5  C   UNL     1      -9.388  -9.255  -0.226  0.00  0.00    +0.033 A 
ATOM      6  C   UNL     1      -8.903  -9.121   1.092  0.00  0.00    +0.143 A 
ATOM      7  N   UNL     1      -7.666  -8.768   1.306  0.00  0.00    -0.175 NA
ATOM      8  C   UNL     1     -10.688  -9.630  -0.799  0.00  0.00    +0.009 A 
ATOM      9  C   UNL     1     -11.918  -9.990  -0.247  0.00  0.00    +0.010 A 
ATOM     10  C   UNL     1     -12.970 -10.291  -1.066  0.00  0.00    +0.001 A 
ATOM     11  C   UNL     1     -12.825 -10.241  -2.445  0.00  0.00    +0.002 A 
ATOM     12  C   UNL     1     -11.620  -9.889  -3.011  0.00  0.00    +0.026 A 
ATOM     13  C   UNL     1     -10.534  -9.578  -2.195  0.00  0.00    +0.051 A 
ATOM     14  N   UNL     1      -9.238  -9.200  -2.472  0.00  0.00    -0.331 N 
ENDROOT
BRANCH   1  15
ATOM     15  C   UNL     1      -5.413  -8.103   0.530  0.00  0.00    +0.243 C 
BRANCH  15  17
ATOM     16  N   UNL     1      -4.158  -6.004   0.900  0.00  0.00    -0.316 N 
ATOM     17  C   UNL     1      -5.338  -6.602   0.641  0.00  0.00    +0.235 C 
ATOM     18  O   UNL     1      -6.339  -5.932   0.497  0.00  0.00    -0.274 OA
ATOM     19  H   UNL     1      -3.358  -6.539   1.015  0.00  0.00    +0.149 HD
BRANCH  16  20
ATOM     20  C   UNL     1      -4.085  -4.544   1.008  0.00  0.00    +0.086 C 
BRANCH  20  21
ATOM     21  C   UNL     1      -2.643  -4.127   1.305  0.00  0.00    -0.060 C 
BRANCH  21  22
ATOM     22  N   UNL     1      -2.551  -2.660   1.317  0.00  0.00    +0.380 N 
ATOM     23  H   UNL     1      -2.912  -2.293   0.450  0.00  0.00    -0.082 HD
BRANCH  22  25
ATOM     24  C   UNL     1      -3.345  -0.601   2.379  0.00  0.00    -0.017 C 
ATOM     25  C   UNL     1      -3.339  -2.130   2.438  0.00  0.00    -0.082 C 
ENDBRANCH  22  25
BRANCH  22  26
ATOM     26  C   UNL     1      -1.147  -2.260   1.472  0.00  0.00    -0.082 C 
ATOM     27  C   UNL     1      -0.360  -2.664   0.224  0.00  0.00    -0.017 C 
ENDBRANCH  22  26
ENDBRANCH  21  22
ENDBRANCH  20  21
ENDBRANCH  16  20
ENDBRANCH  15  17
ENDBRANCH   1  15
BRANCH  14  28
ATOM     28  C   UNL     1      -8.683  -9.032  -3.818  0.00  0.00    +0.158 C 
BRANCH  28  29
ATOM     29  C   UNL     1      -8.139 -10.350  -4.305  0.00  0.00    -0.025 A 
ATOM     30  C   UNL     1      -8.298 -11.489  -3.538  0.00  0.00    +0.005 A 
ATOM     31  C   UNL     1      -7.800 -12.699  -3.985  0.00  0.00    +0.000 A 
ATOM     32  C   UNL     1      -7.142 -12.769  -5.199  0.00  0.00    +0.000 A 
ATOM     33  C   UNL     1      -6.984 -11.630  -5.966  0.00  0.00    +0.004 A 
ATOM     34  C   UNL     1      -7.487 -10.422  -5.521  0.00  0.00    -0.046 A 
ATOM     35  C   UNL     1      -7.319  -9.181  -6.360  0.00  0.00    +0.044 C 
ENDBRANCH  28  29
ENDBRANCH  14  28
TORSDOF 9
