REMARK  Name = ZINC39872870
REMARK  5 active torsions:
REMARK  status: ('A' for Active; 'I' for Inactive)
REMARK    1  A    between atoms: C_1  and  C_2
REMARK    2  A    between atoms: C_2  and  O_3
REMARK    3  A    between atoms: O_3  and  C_4
REMARK    4  A    between atoms: C_8  and  C_10
REMARK    5  A    between atoms: N_25  and  C_26
REMARK                            x       y       z     vdW  Elec       q    Type
REMARK                         _______ _______ _______ _____ _____    ______ ____
ROOT
ATOM      1  C   UNL     1       2.275  -4.298   3.754  0.00  0.00    +0.150 C 
ATOM      2  C   UNL     1       3.645  -4.753   3.372  0.00  0.00    +0.072 A 
ATOM      3  C   UNL     1       4.789  -4.018   2.823  0.00  0.00    +0.199 A 
ATOM      4  O   UNL     1       4.829  -2.802   2.750  0.00  0.00    -0.287 OA
ATOM      5  C   UNL     1       5.896  -4.896   2.366  0.00  0.00    +0.064 A 
ATOM      6  C   UNL     1       6.965  -4.367   1.643  0.00  0.00    +0.015 A 
ATOM      7  C   UNL     1       7.973  -5.190   1.225  0.00  0.00    +0.001 A 
ATOM      8  C   UNL     1       7.936  -6.546   1.518  0.00  0.00    +0.004 A 
ATOM      9  C   UNL     1       6.889  -7.085   2.232  0.00  0.00    +0.047 A 
ATOM     10  C   UNL     1       5.849  -6.266   2.672  0.00  0.00    +0.139 A 
ATOM     11  O   UNL     1       4.836  -6.814   3.381  0.00  0.00    -0.450 OA
ATOM     12  C   UNL     1       3.721  -6.095   3.615  0.00  0.00    +0.199 A 
ATOM     13  C   UNL     1       2.422  -6.542   4.147  0.00  0.00    +0.287 C 
ATOM     14  O   UNL     1       2.156  -7.685   4.463  0.00  0.00    -0.266 OA
ATOM     15  N   UNL     1       1.571  -5.498   4.233  0.00  0.00    -0.253 N 
ENDROOT
BRANCH  15  16
ATOM     16  C   UNL     1       0.252  -5.547   4.696  0.00  0.00    +0.038 A 
ATOM     17  C   UNL     1      -0.518  -4.392   4.726  0.00  0.00    +0.026 A 
ATOM     18  C   UNL     1      -1.821  -4.443   5.183  0.00  0.00    +0.040 A 
ATOM     19  C   UNL     1      -2.358  -5.645   5.612  0.00  0.00    +0.124 A 
ATOM     20  C   UNL     1      -1.592  -6.798   5.583  0.00  0.00    +0.040 A 
ATOM     21  C   UNL     1      -0.292  -6.753   5.121  0.00  0.00    +0.026 A 
ATOM     22  F   UNL     1      -3.632  -5.692   6.059  0.00  0.00    -0.205 F 
ENDBRANCH  15  16
BRANCH   1  27
ATOM     23  C   UNL     1       0.802  -1.824   1.306  0.00  0.00    +0.121 A 
ATOM     24  C   UNL     1       0.260  -2.673   0.351  0.00  0.00    +0.045 A 
ATOM     25  C   UNL     1       0.372  -4.041   0.501  0.00  0.00    +0.004 A 
ATOM     26  C   UNL     1       1.024  -4.566   1.602  0.00  0.00    +0.006 A 
ATOM     27  C   UNL     1       1.565  -3.723   2.555  0.00  0.00    -0.019 A 
ATOM     28  C   UNL     1       1.460  -2.353   2.406  0.00  0.00    +0.051 A 
BRANCH  23  29
ATOM     29  O   UNL     1       0.693  -0.477   1.160  0.00  0.00    -0.492 OA
BRANCH  29  31
ATOM     30  C   UNL     1      -0.019   1.526   0.010  0.00  0.00    +0.048 C 
ATOM     31  C   UNL     1       0.002  -0.004   0.002  0.00  0.00    +0.225 C 
ENDBRANCH  29  31
ENDBRANCH  23  29
ENDBRANCH   1  27
TORSDOF 4
