REMARK  Name = ZINC22339464
REMARK  11 active torsions:
REMARK  status: ('A' for Active; 'I' for Inactive)
REMARK    1  A    between atoms: C_1  and  C_2
REMARK    2  A    between atoms: C_7  and  O_8
REMARK    3  A    between atoms: O_8  and  C_9
REMARK    4  A    between atoms: C_9  and  C_10
REMARK    5  A    between atoms: C_10  and  C_12
REMARK    6  A    between atoms: C_10  and  N_13
REMARK    7  A    between atoms: C_14  and  C_16
REMARK    8  A    between atoms: C_16  and  N_17
REMARK    9  A    between atoms: N_17  and  C_18
REMARK   10  A    between atoms: N_17  and  S_25
REMARK   11  A    between atoms: S_25  and  C_28
REMARK                            x       y       z     vdW  Elec       q    Type
REMARK                         _______ _______ _______ _____ _____    ______ ____
ROOT
ATOM      1  N   UNL     1      -1.291   1.130   4.651  0.00  0.00    -0.308 N 
ATOM      2  C   UNL     1      -1.702   1.525   5.872  0.00  0.00    +0.232 C 
ATOM      3  O   UNL     1      -0.969   1.397   6.830  0.00  0.00    -0.274 OA
ATOM      4  H   UNL     1      -1.955   1.246   3.782  0.00  0.00    +0.149 HD
ENDROOT
BRANCH   1   5
ATOM      5  C   UNL     1       0.042   0.545   4.481  0.00  0.00    +0.107 C 
ATOM      6  C   UNL     1       1.071   1.664   4.304  0.00  0.00    +0.031 C 
BRANCH   5   7
ATOM      7  C   UNL     1       0.050  -0.355   3.244  0.00  0.00    +0.251 C 
BRANCH   7   8
ATOM      8  O   UNL     1      -0.167   0.439   2.075  0.00  0.00    -0.490 OA
BRANCH   8  15
ATOM      9  C   UNL     1      -0.594   1.990  -0.246  0.00  0.00    +0.047 C 
ATOM     10  C   UNL     1      -0.394   0.497  -0.292  0.00  0.00    -0.009 A 
ATOM     11  C   UNL     1      -0.422  -0.167  -1.503  0.00  0.00    +0.007 A 
ATOM     12  C   UNL     1      -0.234  -1.536  -1.546  0.00  0.00    +0.000 A 
ATOM     13  C   UNL     1      -0.029  -2.245  -0.376  0.00  0.00    +0.004 A 
ATOM     14  C   UNL     1      -0.006  -1.586   0.838  0.00  0.00    +0.046 A 
ATOM     15  C   UNL     1      -0.189  -0.212   0.883  0.00  0.00    +0.123 A 
ENDBRANCH   8  15
ENDBRANCH   7   8
ENDBRANCH   5   7
ENDBRANCH   1   5
BRANCH   2  16
ATOM     16  C   UNL     1      -3.073   2.126   6.047  0.00  0.00    +0.226 C 
BRANCH  16  17
ATOM     17  N   UNL     1      -3.315   2.384   7.469  0.00  0.00    -0.198 N 
BRANCH  17  18
ATOM     18  C   UNL     1      -2.880   3.580   8.046  0.00  0.00    +0.065 A 
ATOM     19  C   UNL     1      -1.581   3.689   8.525  0.00  0.00    +0.026 A 
ATOM     20  C   UNL     1      -1.152   4.874   9.091  0.00  0.00    +0.002 A 
ATOM     21  C   UNL     1      -2.018   5.947   9.191  0.00  0.00    +0.001 A 
ATOM     22  C   UNL     1      -3.313   5.841   8.720  0.00  0.00    +0.017 A 
ATOM     23  C   UNL     1      -3.748   4.660   8.148  0.00  0.00    +0.040 A 
ATOM     24 BR   UNL     1      -5.520   4.515   7.505  0.00  0.00    -0.048 Br
ENDBRANCH  17  18
BRANCH  17  25
ATOM     25  S   UNL     1      -4.105   1.258   8.392  0.00  0.00    +0.043 S 
ATOM     26  O   UNL     1      -4.590   1.984   9.513  0.00  0.00    -0.155 OA
ATOM     27  O   UNL     1      -5.006   0.623   7.495  0.00  0.00    -0.155 OA
ATOM     28  C   UNL     1      -2.815   0.094   8.912  0.00  0.00    +0.218 C 
ENDBRANCH  17  25
ENDBRANCH  16  17
ENDBRANCH   2  16
TORSDOF 8
