REMARK  Name = ZINC02982573
REMARK  10 active torsions:
REMARK  status: ('A' for Active; 'I' for Inactive)
REMARK    1  A    between atoms: C_1  and  C_2
REMARK    2  A    between atoms: C_5  and  S_8
REMARK    3  A    between atoms: S_8  and  N_11
REMARK    4  A    between atoms: N_11  and  C_12
REMARK    5  A    between atoms: N_11  and  C_24
REMARK    6  A    between atoms: C_12  and  C_13
REMARK    7  A    between atoms: N_15  and  C_16
REMARK    8  A    between atoms: C_16  and  C_17
REMARK    9  A    between atoms: C_27  and  C_31
REMARK   10  A    between atoms: C_29  and  C_30
REMARK                            x       y       z     vdW  Elec       q    Type
REMARK                         _______ _______ _______ _____ _____    ______ ____
ROOT
ATOM      1  N   UNL     1      -0.028   1.143  -4.718  0.00  0.00    -0.194 N 
ENDROOT
BRANCH   1   2
ATOM      2  C   UNL     1       0.979   2.069  -5.002  0.00  0.00    +0.055 A 
ATOM      3  C   UNL     1       2.198   1.997  -4.340  0.00  0.00    +0.025 A 
ATOM      4  C   UNL     1       3.191   2.913  -4.622  0.00  0.00    +0.005 A 
ATOM      5  C   UNL     1       2.973   3.903  -5.564  0.00  0.00    -0.050 A 
ATOM      6  C   UNL     1       1.761   3.978  -6.225  0.00  0.00    +0.008 A 
ATOM      7  C   UNL     1       0.765   3.061  -5.950  0.00  0.00    -0.028 A 
ATOM      8  C   UNL     1      -0.554   3.140  -6.675  0.00  0.00    +0.046 C 
ATOM      9  C   UNL     1       4.060   4.901  -5.871  0.00  0.00    +0.044 C 
ENDBRANCH   1   2
BRANCH   1  10
ATOM     10  S   UNL     1      -0.157  -0.241  -5.618  0.00  0.00    +0.075 S 
ATOM     11  O   UNL     1       1.073  -0.390  -6.313  0.00  0.00    -0.150 OA
ATOM     12  O   UNL     1      -0.668  -1.243  -4.751  0.00  0.00    -0.150 OA
BRANCH  10  17
ATOM     13  C   UNL     1      -4.392   0.741  -9.803  0.00  0.00    +0.044 C 
ATOM     14  C   UNL     1      -3.334   0.495  -8.758  0.00  0.00    -0.050 A 
ATOM     15  C   UNL     1      -1.998   0.654  -9.076  0.00  0.00    +0.005 A 
ATOM     16  C   UNL     1      -1.028   0.429  -8.117  0.00  0.00    +0.029 A 
ATOM     17  C   UNL     1      -1.394   0.046  -6.840  0.00  0.00    +0.109 A 
ATOM     18  C   UNL     1      -2.729  -0.118  -6.524  0.00  0.00    +0.029 A 
ATOM     19  C   UNL     1      -3.700   0.112  -7.481  0.00  0.00    +0.005 A 
ENDBRANCH  10  17
ENDBRANCH   1  10
BRANCH   1  20
ATOM     20  C   UNL     1      -0.970   1.397  -3.625  0.00  0.00    +0.227 C 
BRANCH  20  21
ATOM     21  C   UNL     1      -0.369   0.924  -2.326  0.00  0.00    +0.232 C 
ATOM     22  O   UNL     1       0.736   0.426  -2.314  0.00  0.00    -0.274 OA
ATOM     23  N   UNL     1      -1.061   1.057  -1.176  0.00  0.00    -0.310 N 
ATOM     24  H   UNL     1      -1.945   1.456  -1.185  0.00  0.00    +0.149 HD
BRANCH  23  25
ATOM     25  C   UNL     1      -0.477   0.598   0.087  0.00  0.00    +0.139 C 
BRANCH  25  26
ATOM     26  C   UNL     1      -1.446   0.858   1.211  0.00  0.00    -0.030 A 
ATOM     27  C   UNL     1      -1.400   2.057   1.899  0.00  0.00    +0.006 A 
ATOM     28  C   UNL     1      -2.292   2.298   2.927  0.00  0.00    +0.020 A 
ATOM     29  C   UNL     1      -3.223   1.336   3.275  0.00  0.00    +0.041 A 
ATOM     30  C   UNL     1      -3.265   0.135   2.590  0.00  0.00    +0.020 A 
ATOM     31  C   UNL     1      -2.376  -0.104   1.559  0.00  0.00    +0.006 A 
ATOM     32 CL   UNL     1      -4.339   1.636   4.571  0.00  0.00    -0.084 Cl
ENDBRANCH  25  26
ENDBRANCH  23  25
ENDBRANCH  20  21
ENDBRANCH   1  20
TORSDOF 7
