REMARK  Name = ZINC06162477
REMARK  16 active torsions:
REMARK  status: ('A' for Active; 'I' for Inactive)
REMARK    1  A    between atoms: C_1  and  C_2
REMARK    2  A    between atoms: C_2  and  C_3
REMARK    3  A    between atoms: C_3  and  O_4
REMARK    4  A    between atoms: O_4  and  C_5
REMARK    5  A    between atoms: C_8  and  C_13
REMARK    6  A    between atoms: C_10  and  O_11
REMARK    7  A    between atoms: O_11  and  C_12
REMARK    8  A    between atoms: C_18  and  C_23
REMARK    9  A    between atoms: C_26  and  O_31
REMARK   10  A    between atoms: C_27  and  O_29
REMARK   11  A    between atoms: O_29  and  C_30
REMARK   12  A    between atoms: O_31  and  C_32
REMARK   13  A    between atoms: C_34  and  C_40
REMARK   14  A    between atoms: C_35  and  C_36
REMARK   15  A    between atoms: C_36  and  O_38
REMARK   16  A    between atoms: O_38  and  C_39
REMARK                            x       y       z     vdW  Elec       q    Type
REMARK                         _______ _______ _______ _____ _____    ______ ____
ROOT
ATOM      1  C   UNL     1       1.227  -2.186  -0.021  0.00  0.00    +0.092 C 
ATOM      2  C   UNL     1       1.957  -2.679   1.203  0.00  0.00    +0.024 C 
ATOM      3  C   UNL     1       3.224  -3.135   1.113  0.00  0.00    +0.016 C 
ATOM      4  C   UNL     1       3.960  -3.632   2.332  0.00  0.00    +0.059 C 
ATOM      5  C   UNL     1       3.466  -2.883   3.572  0.00  0.00    +0.032 C 
ATOM      6  C   UNL     1       1.955  -3.103   3.703  0.00  0.00    +0.088 C 
ATOM      7  C   UNL     1       1.283  -2.647   2.436  0.00  0.00    +0.162 C 
ATOM      8  O   UNL     1       0.137  -2.245   2.480  0.00  0.00    -0.292 OA
ATOM      9  N   UNL     1       3.870  -3.159  -0.095  0.00  0.00    -0.321 N 
ATOM     10  C   UNL     1       3.162  -3.116  -1.263  0.00  0.00    +0.016 C 
ATOM     11  C   UNL     1       1.896  -2.663  -1.276  0.00  0.00    +0.065 C 
ATOM     12  C   UNL     1       3.805  -3.580  -2.545  0.00  0.00    +0.061 C 
ATOM     13  H   UNL     1       4.968  -3.214  -0.130  0.00  0.00    +0.152 HD
ENDROOT
BRANCH   1  17
ATOM     14  C   UNL     1       1.181   2.091   0.002  0.00  0.00    +0.162 A 
ATOM     15  C   UNL     1       2.386   1.408  -0.013  0.00  0.00    +0.050 A 
ATOM     16  C   UNL     1       2.398   0.026  -0.020  0.00  0.00    +0.008 A 
ATOM     17  C   UNL     1       1.208  -0.679  -0.013  0.00  0.00    -0.032 A 
ATOM     18  C   UNL     1       0.002  -0.004   0.002  0.00  0.00    +0.054 A 
ATOM     19  C   UNL     1      -0.017   1.381   0.010  0.00  0.00    +0.162 A 
BRANCH  19  20
ATOM     20  O   UNL     1      -1.203   2.047   0.019  0.00  0.00    -0.491 OA
ATOM     21  C   UNL     1      -2.392   1.254   0.020  0.00  0.00    +0.277 C 
ENDBRANCH  19  20
BRANCH  14  22
ATOM     22  O   UNL     1       1.167   3.450   0.009  0.00  0.00    -0.488 OA
BRANCH  22  23
ATOM     23  C   UNL     1       2.434   4.112   0.001  0.00  0.00    +0.229 C 
BRANCH  23  25
ATOM     24  C   UNL     1       3.575   6.334   0.001  0.00  0.00    +0.007 C 
ATOM     25  C   UNL     1       2.219   5.626   0.010  0.00  0.00    +0.038 C 
ENDBRANCH  23  25
ENDBRANCH  22  23
ENDBRANCH  14  22
ENDBRANCH   1  17
BRANCH   5  26
ATOM     26  C   UNL     1       4.163  -3.415   4.797  0.00  0.00    -0.040 A 
ATOM     27  C   UNL     1       4.029  -4.747   5.143  0.00  0.00    +0.008 A 
ATOM     28  C   UNL     1       4.671  -5.241   6.263  0.00  0.00    +0.049 A 
ATOM     29  C   UNL     1       5.443  -4.399   7.047  0.00  0.00    +0.161 A 
ATOM     30  C   UNL     1       5.574  -3.058   6.702  0.00  0.00    +0.162 A 
ATOM     31  C   UNL     1       4.932  -2.570   5.575  0.00  0.00    +0.053 A 
BRANCH  30  32
ATOM     32  O   UNL     1       6.331  -2.227   7.468  0.00  0.00    -0.491 OA
ATOM     33  C   UNL     1       6.420  -0.863   7.053  0.00  0.00    +0.277 C 
ENDBRANCH  30  32
BRANCH  29  34
ATOM     34  O   UNL     1       6.071  -4.883   8.153  0.00  0.00    -0.491 OA
ATOM     35  C   UNL     1       5.892  -6.270   8.446  0.00  0.00    +0.277 C 
ENDBRANCH  29  34
ENDBRANCH   5  26
BRANCH  11  36
ATOM     36  C   UNL     1       1.182  -2.636  -2.497  0.00  0.00    +0.337 C 
ATOM     37  O   UNL     1       1.714  -3.021  -3.522  0.00  0.00    -0.245 OA
BRANCH  36  38
ATOM     38  O   UNL     1      -0.089  -2.184  -2.525  0.00  0.00    -0.465 OA
ATOM     39  C   UNL     1      -0.750  -2.185  -3.792  0.00  0.00    +0.280 C 
ENDBRANCH  36  38
ENDBRANCH  11  36
TORSDOF 10
