REMARK  Name = ZINC20411478
REMARK  2 active torsions:
REMARK  status: ('A' for Active; 'I' for Inactive)
REMARK    1  A    between atoms: C_4  and  N_7
REMARK    2  A    between atoms: C_10  and  C_17
REMARK                            x       y       z     vdW  Elec       q    Type
REMARK                         _______ _______ _______ _____ _____    ______ ____
ROOT
ATOM      1  N   UNL     1       3.623  -0.652  -0.037  0.00  0.00    -0.229 N 
ATOM      2  C   UNL     1       3.640  -1.996   0.051  0.00  0.00    +0.267 A 
ATOM      3  O   UNL     1       2.596  -2.619   0.146  0.00  0.00    -0.267 OA
ATOM      4  C   UNL     1       4.870  -2.677   0.034  0.00  0.00    +0.073 A 
ATOM      5  C   UNL     1       6.024  -1.958  -0.073  0.00  0.00    +0.260 A 
ATOM      6  N   UNL     1       5.961  -0.590  -0.161  0.00  0.00    -0.274 N 
ATOM      7  H   UNL     1       6.779  -0.074  -0.237  0.00  0.00    +0.173 HD
ATOM      8  C   UNL     1       4.772   0.040  -0.147  0.00  0.00    +0.337 A 
ATOM      9  O   UNL     1       4.736   1.252  -0.232  0.00  0.00    -0.246 OA
ATOM     10  O   UNL     1       7.218  -2.587  -0.091  0.00  0.00    -0.267 OA
ENDROOT
BRANCH   4  11
ATOM     11  C   UNL     1       4.913  -4.180   0.133  0.00  0.00    +0.018 C 
ATOM     12  C   UNL     1       4.385  -4.615   1.479  0.00  0.00    +0.011 A 
ATOM     13  C   UNL     1       3.548  -5.666   1.636  0.00  0.00    -0.022 A 
ATOM     14  C   UNL     1       3.258  -5.776   3.048  0.00  0.00    +0.003 A 
ATOM     15  C   UNL     1       2.466  -6.656   3.791  0.00  0.00    +0.010 A 
ATOM     16  C   UNL     1       2.423  -6.458   5.149  0.00  0.00    +0.001 A 
ATOM     17  C   UNL     1       3.127  -5.437   5.767  0.00  0.00    +0.002 A 
ATOM     18  C   UNL     1       3.919  -4.552   5.056  0.00  0.00    +0.026 A 
ATOM     19  C   UNL     1       3.982  -4.728   3.676  0.00  0.00    +0.047 A 
ATOM     20  N   UNL     1       4.651  -4.050   2.697  0.00  0.00    -0.359 N 
ATOM     21  H   UNL     1       5.227  -3.284   2.843  0.00  0.00    +0.166 HD
ATOM     22  C   UNL     1       3.062  -6.513   0.487  0.00  0.00    +0.018 C 
ATOM     23  C   UNL     1       3.958  -6.221  -0.725  0.00  0.00    -0.076 C 
ATOM     24  N   UNL     1       4.069  -4.768  -0.919  0.00  0.00    +0.388 N 
ATOM     25  H   UNL     1       3.149  -4.356  -0.879  0.00  0.00    -0.084 HD
ATOM     26  H   UNL     1       4.479  -4.580  -1.821  0.00  0.00    -0.084 HD
ENDBRANCH   4  11
BRANCH   1  30
ATOM     27  C   UNL     1      -0.017   1.377   0.011  0.00  0.00    +0.000 A 
ATOM     28  C   UNL     1       0.524   0.960  -1.191  0.00  0.00    +0.002 A 
ATOM     29  C   UNL     1       1.730   0.287  -1.210  0.00  0.00    +0.026 A 
ATOM     30  C   UNL     1       2.399   0.031  -0.021  0.00  0.00    +0.054 A 
ATOM     31  C   UNL     1       1.854   0.452   1.184  0.00  0.00    +0.026 A 
ATOM     32  C   UNL     1       0.647   1.124   1.197  0.00  0.00    +0.002 A 
ENDBRANCH   1  30
TORSDOF 2
