REMARK  Name = ZINC10050073
REMARK  9 active torsions:
REMARK  status: ('A' for Active; 'I' for Inactive)
REMARK    1  A    between atoms: C_1  and  C_2
REMARK    2  A    between atoms: C_6  and  N_8
REMARK    3  A    between atoms: C_9  and  C_36
REMARK    4  A    between atoms: C_10  and  C_35
REMARK    5  A    between atoms: N_18  and  C_23
REMARK    6  A    between atoms: N_21  and  C_22
REMARK    7  A    between atoms: C_23  and  C_24
REMARK    8  A    between atoms: C_24  and  C_25
REMARK    9  A    between atoms: C_25  and  N_69
REMARK                            x       y       z     vdW  Elec       q    Type
REMARK                         _______ _______ _______ _____ _____    ______ ____
ROOT
ATOM      1  N   UNL     1      -0.069   5.242   0.029  0.00  0.00    -0.282 N 
ATOM      2  C   UNL     1      -0.562   6.056  -0.975  0.00  0.00    +0.043 A 
ATOM      3  C   UNL     1      -0.403   7.322  -0.599  0.00  0.00    +0.044 A 
ATOM      4  N   UNL     1       0.193   7.335   0.650  0.00  0.00    -0.274 N 
ATOM      5  C   UNL     1       0.392   6.052   1.036  0.00  0.00    +0.223 A 
ATOM      6  N   UNL     1       0.968   6.039   2.229  0.00  0.00    -0.193 NA
ATOM      7  C   UNL     1       1.153   7.285   2.658  0.00  0.00    +0.170 A 
ATOM      8  C   UNL     1       0.668   8.143   1.672  0.00  0.00    +0.157 A 
ATOM      9  C   UNL     1       0.743   9.531   1.875  0.00  0.00    +0.283 A 
ATOM     10  O   UNL     1       0.326  10.301   1.027  0.00  0.00    -0.265 OA
ATOM     11  N   UNL     1       1.281  10.004   3.018  0.00  0.00    -0.259 N 
ATOM     12  C   UNL     1       1.746   9.168   3.963  0.00  0.00    +0.333 A 
ATOM     13  O   UNL     1       2.224   9.632   4.981  0.00  0.00    -0.246 OA
ATOM     14  N   UNL     1       1.695   7.832   3.811  0.00  0.00    -0.279 N 
ATOM     15  C   UNL     1       2.212   6.954   4.864  0.00  0.00    +0.155 C 
ATOM     16  C   UNL     1      -0.804   8.536  -1.397  0.00  0.00    +0.066 C 
ATOM     17  C   UNL     1      -1.173   5.590  -2.271  0.00  0.00    +0.066 C 
ENDROOT
BRANCH   1  23
ATOM     18  C   UNL     1       2.490   1.044  -0.016  0.00  0.00    +0.044 C 
ATOM     19  C   UNL     1       1.177   1.782   0.000  0.00  0.00    -0.048 A 
ATOM     20  C   UNL     1      -0.013   1.076   0.008  0.00  0.00    +0.003 A 
ATOM     21  C   UNL     1      -1.220   1.749   0.017  0.00  0.00    +0.002 A 
ATOM     22  C   UNL     1      -1.242   3.130   0.030  0.00  0.00    +0.026 A 
ATOM     23  C   UNL     1      -0.050   3.842   0.022  0.00  0.00    +0.050 A 
ATOM     24  C   UNL     1       1.161   3.163   0.007  0.00  0.00    +0.029 A 
ENDBRANCH   1  23
BRANCH  11  25
ATOM     25  C   UNL     1       1.361  11.450   3.233  0.00  0.00    +0.128 C 
BRANCH  25  26
ATOM     26  C   UNL     1       2.690  11.975   2.686  0.00  0.00    +0.003 C 
BRANCH  26  27
ATOM     27  C   UNL     1       2.773  13.486   2.910  0.00  0.00    -0.077 C 
BRANCH  27  37
ATOM     28  C   UNL     1       4.068  15.461   2.365  0.00  0.00    -0.074 C 
ATOM     29  C   UNL     1       5.511  15.925   2.168  0.00  0.00    +0.017 C 
ATOM     30  C   UNL     1       6.128  15.207   0.995  0.00  0.00    -0.048 A 
ATOM     31  C   UNL     1       7.287  15.726   0.437  0.00  0.00    +0.004 A 
ATOM     32  C   UNL     1       7.886  15.098  -0.635  0.00  0.00    +0.000 A 
ATOM     33  C   UNL     1       7.329  13.945  -1.157  0.00  0.00    +0.000 A 
ATOM     34  C   UNL     1       6.175  13.429  -0.603  0.00  0.00    +0.002 A 
ATOM     35  C   UNL     1       5.570  14.060   0.475  0.00  0.00    -0.061 A 
ATOM     36  C   UNL     1       4.310  13.461   1.042  0.00  0.00    -0.043 C 
ATOM     37  N   UNL     1       4.070  13.984   2.397  0.00  0.00    +0.383 N 
ATOM     38  H   UNL     1       4.821  13.663   3.019  0.00  0.00    -0.081 HD
ENDBRANCH  27  37
ENDBRANCH  26  27
ENDBRANCH  25  26
ENDBRANCH  11  25
TORSDOF 5
