REMARK  Name = ZINC05324824
REMARK  8 active torsions:
REMARK  status: ('A' for Active; 'I' for Inactive)
REMARK    1  A    between atoms: C_1  and  S_2
REMARK    2  A    between atoms: S_2  and  C_3
REMARK    3  A    between atoms: C_3  and  C_4
REMARK    4  A    between atoms: C_4  and  C_5
REMARK    5  A    between atoms: C_5  and  C_7
REMARK    6  A    between atoms: C_5  and  N_15
REMARK    7  A    between atoms: N_9  and  C_10
REMARK    8  A    between atoms: C_16  and  C_18
REMARK                            x       y       z     vdW  Elec       q    Type
REMARK                         _______ _______ _______ _____ _____    ______ ____
ROOT
ATOM      1  N   UNL     1      -5.054   2.290   4.685  0.00  0.00    -0.305 N 
ATOM      2  C   UNL     1      -6.199   2.704   5.262  0.00  0.00    +0.200 C 
ATOM      3  O   UNL     1      -6.820   3.629   4.783  0.00  0.00    -0.278 OA
ATOM      4  H   UNL     1      -4.557   1.550   5.068  0.00  0.00    +0.149 HD
ENDROOT
BRANCH   2   5
ATOM      5  C   UNL     1      -6.709   2.016   6.502  0.00  0.00    +0.021 C 
ATOM      6  C   UNL     1      -7.441   0.731   6.113  0.00  0.00    +0.028 C 
ATOM      7  C   UNL     1      -8.159   0.164   7.311  0.00  0.00    -0.047 A 
ATOM      8  C   UNL     1      -8.581  -1.156   7.266  0.00  0.00    +0.004 A 
ATOM      9  C   UNL     1      -9.249  -1.711   8.338  0.00  0.00    +0.000 A 
ATOM     10  C   UNL     1      -9.499  -0.947   9.464  0.00  0.00    +0.000 A 
ATOM     11  C   UNL     1      -9.077   0.366   9.510  0.00  0.00    +0.002 A 
ATOM     12  C   UNL     1      -8.404   0.925   8.434  0.00  0.00    -0.061 A 
ATOM     13  C   UNL     1      -7.960   2.361   8.534  0.00  0.00    -0.045 C 
ATOM     14  N   UNL     1      -7.658   2.902   7.201  0.00  0.00    +0.389 N 
ATOM     15  H   UNL     1      -8.525   2.970   6.657  0.00  0.00    -0.084 HD
ATOM     16  H   UNL     1      -7.242   3.836   7.300  0.00  0.00    -0.084 HD
ENDBRANCH   2   5
BRANCH   1  17
ATOM     17  C   UNL     1      -4.558   2.959   3.479  0.00  0.00    +0.159 C 
BRANCH  17  18
ATOM     18  C   UNL     1      -3.686   2.009   2.700  0.00  0.00    +0.234 C 
ATOM     19  O   UNL     1      -3.497   0.883   3.111  0.00  0.00    -0.274 OA
ATOM     20  N   UNL     1      -3.116   2.409   1.546  0.00  0.00    -0.311 N 
ATOM     21  H   UNL     1      -3.267   3.309   1.218  0.00  0.00    +0.149 HD
BRANCH  20  22
ATOM     22  C   UNL     1      -2.268   1.485   0.789  0.00  0.00    +0.073 C 
ATOM     23  C   UNL     1      -0.789   1.611   1.242  0.00  0.00    +0.022 C 
ATOM     24  C   UNL     1      -0.013   1.086   0.008  0.00  0.00    +0.002 C 
ATOM     25  C   UNL     1      -0.809   1.622  -1.200  0.00  0.00    +0.002 C 
ATOM     26  C   UNL     1      -2.243   1.875  -0.703  0.00  0.00    +0.022 C 
ENDBRANCH  20  22
ENDBRANCH  17  18
BRANCH  17  27
ATOM     27  C   UNL     1      -3.741   4.190   3.878  0.00  0.00    +0.042 C 
BRANCH  27  28
ATOM     28  C   UNL     1      -4.656   5.210   4.560  0.00  0.00    +0.071 C 
BRANCH  28  30
ATOM     29  C   UNL     1      -4.902   7.766   5.816  0.00  0.00    +0.084 C 
ATOM     30  S   UNL     1      -3.688   6.669   5.032  0.00  0.00    -0.164 S 
ENDBRANCH  28  30
ENDBRANCH  27  28
ENDBRANCH  17  27
ENDBRANCH   1  17
TORSDOF 7
