REMARK  Name = ZINC22918407
REMARK  6 active torsions:
REMARK  status: ('A' for Active; 'I' for Inactive)
REMARK    1  A    between atoms: C_1  and  C_2
REMARK    2  A    between atoms: C_15  and  C_17
REMARK    3  A    between atoms: C_17  and  C_19
REMARK    4  A    between atoms: C_17  and  N_20
REMARK    5  A    between atoms: N_23  and  C_26
REMARK    6  A    between atoms: C_26  and  C_27
REMARK                            x       y       z     vdW  Elec       q    Type
REMARK                         _______ _______ _______ _____ _____    ______ ____
ROOT
ATOM      1  C   UNL     1      -4.152  -3.584   1.446  0.00  0.00    -0.004 C 
ATOM      2  C   UNL     1      -4.659  -3.398   2.878  0.00  0.00    -0.005 C 
ENDROOT
BRANCH   1  16
ATOM      3  C   UNL     1       3.754   2.097  -0.646  0.00  0.00    +0.008 C 
ATOM      4  C   UNL     1       2.378   1.432  -0.567  0.00  0.00    -0.009 C 
ATOM      5  C   UNL     1       1.611   1.974   0.642  0.00  0.00    +0.008 C 
ATOM      6  C   UNL     1       0.156   1.507   0.586  0.00  0.00    +0.037 C 
ATOM      7  C   UNL     1       0.130  -0.010   0.420  0.00  0.00    -0.023 A 
ATOM      8  C   UNL     1       1.224  -0.672  -0.025  0.00  0.00    -0.004 A 
ATOM      9  S   UNL     1       0.748  -2.382  -0.062  0.00  0.00    -0.073 S 
ATOM     10  C   UNL     1      -0.910  -2.206   0.516  0.00  0.00    +0.116 A 
ATOM     11  C   UNL     1      -1.041  -0.815   0.720  0.00  0.00    +0.075 A 
ATOM     12  C   UNL     1      -2.309  -0.343   1.200  0.00  0.00    +0.260 A 
ATOM     13  O   UNL     1      -2.525   0.839   1.408  0.00  0.00    -0.267 OA
ATOM     14  N   UNL     1      -3.250  -1.295   1.406  0.00  0.00    -0.312 N 
ATOM     15  H   UNL     1      -4.248  -1.011   1.773  0.00  0.00    +0.170 HD
ATOM     16  C   UNL     1      -3.030  -2.612   1.181  0.00  0.00    +0.097 A 
ATOM     17  N   UNL     1      -1.884  -3.083   0.742  0.00  0.00    -0.228 NA
ATOM     18  C   UNL     1       2.548  -0.085  -0.403  0.00  0.00    +0.046 C 
ENDBRANCH   1  16
BRANCH   1  19
ATOM     19  N   UNL     1      -3.660  -4.957   1.275  0.00  0.00    +0.388 N 
ATOM     20  C   UNL     1      -4.777  -5.910   1.195  0.00  0.00    -0.062 C 
ATOM     21  C   UNL     1      -4.228  -7.315   0.938  0.00  0.00    +0.066 C 
ATOM     22  N   UNL     1      -3.302  -7.682   2.018  0.00  0.00    -0.300 NA
ATOM     23  C   UNL     1      -2.186  -6.730   2.098  0.00  0.00    +0.066 C 
ATOM     24  C   UNL     1      -2.735  -5.324   2.356  0.00  0.00    -0.062 C 
ATOM     25  H   UNL     1      -3.108  -5.002   0.325  0.00  0.00    -0.081 HD
BRANCH  22  26
ATOM     26  C   UNL     1      -2.811  -9.056   1.847  0.00  0.00    +0.147 C 
BRANCH  26  27
ATOM     27  C   UNL     1      -3.967  -9.966   1.525  0.00  0.00    +0.093 A 
ATOM     28  N   UNL     1      -4.447 -10.280   0.355  0.00  0.00    -0.243 NA
ATOM     29  C   UNL     1      -5.496 -11.116   0.202  0.00  0.00    +0.079 A 
ATOM     30  C   UNL     1      -6.125 -11.547  -0.987  0.00  0.00    +0.029 A 
ATOM     31  C   UNL     1      -7.182 -12.402  -0.943  0.00  0.00    +0.002 A 
ATOM     32  C   UNL     1      -7.683 -12.880   0.260  0.00  0.00    +0.001 A 
ATOM     33  C   UNL     1      -7.095 -12.480   1.446  0.00  0.00    +0.017 A 
ATOM     34  C   UNL     1      -6.027 -11.618   1.412  0.00  0.00    +0.039 A 
ATOM     35  S   UNL     1      -4.976 -10.856   2.623  0.00  0.00    -0.071 S 
ENDBRANCH  26  27
ENDBRANCH  22  26
ENDBRANCH   1  19
TORSDOF 4
