REMARK  Name = ZINC65403239
REMARK  5 active torsions:
REMARK  status: ('A' for Active; 'I' for Inactive)
REMARK    1  A    between atoms: C_1  and  C_2
REMARK    2  A    between atoms: C_2  and  C_24
REMARK    3  A    between atoms: C_6  and  C_14
REMARK    4  A    between atoms: C_14  and  C_15
REMARK    5  A    between atoms: N_17  and  C_18
REMARK                            x       y       z     vdW  Elec       q    Type
REMARK                         _______ _______ _______ _____ _____    ______ ____
ROOT
ATOM      1  C   UNL     1      -0.019   1.526   0.010  0.00  0.00    +0.013 C 
ATOM      2  C   UNL     1       0.002  -0.004   0.002  0.00  0.00    -0.014 C 
ATOM      3  C   UNL     1       0.618  -0.470  -1.291  0.00  0.00    +0.063 C 
ATOM      4  C   UNL     1       1.891   0.241  -1.623  0.00  0.00    +0.049 A 
ATOM      5  N   UNL     1       2.317   0.518  -2.884  0.00  0.00    -0.345 N 
ATOM      6  C   UNL     1       3.514   1.148  -2.787  0.00  0.00    +0.117 A 
ATOM      7  N   UNL     1       3.824   1.272  -1.532  0.00  0.00    -0.227 NA
ATOM      8  C   UNL     1       2.830   0.727  -0.768  0.00  0.00    +0.146 A 
ATOM      9  H   UNL     1       1.850   0.303  -3.705  0.00  0.00    +0.167 HD
ATOM     10  C   UNL     1       2.840   0.721   0.693  0.00  0.00    +0.264 C 
ATOM     11  O   UNL     1       3.815   1.230   1.213  0.00  0.00    -0.268 OA
ATOM     12  N   UNL     1       1.941   0.242   1.521  0.00  0.00    -0.310 N 
ATOM     13  C   UNL     1       0.733  -0.482   1.227  0.00  0.00    +0.111 C 
ATOM     14  C   UNL     1      -1.440  -0.512   0.064  0.00  0.00    +0.013 C 
ATOM     15  H   UNL     1       2.115   0.399   2.462  0.00  0.00    +0.149 HD
ENDROOT
BRANCH   6  16
ATOM     16  C   UNL     1       4.350   1.625  -3.946  0.00  0.00    +0.169 C 
BRANCH  16  17
ATOM     17  C   UNL     1       4.646   3.094  -3.782  0.00  0.00    +0.221 C 
ATOM     18  O   UNL     1       4.220   3.694  -2.817  0.00  0.00    -0.275 OA
ATOM     19  N   UNL     1       5.384   3.740  -4.706  0.00  0.00    -0.312 N 
ATOM     20  H   UNL     1       5.724   3.260  -5.477  0.00  0.00    +0.149 HD
BRANCH  19  21
ATOM     21  C   UNL     1       5.671   5.168  -4.546  0.00  0.00    +0.073 C 
ATOM     22  C   UNL     1       4.511   5.989  -5.111  0.00  0.00    +0.022 C 
ATOM     23  C   UNL     1       4.811   7.479  -4.944  0.00  0.00    +0.002 C 
ATOM     24  C   UNL     1       6.097   7.828  -5.697  0.00  0.00    +0.000 C 
ATOM     25  C   UNL     1       7.258   7.007  -5.131  0.00  0.00    +0.002 C 
ATOM     26  C   UNL     1       6.957   5.516  -5.298  0.00  0.00    +0.022 C 
ENDBRANCH  19  21
ENDBRANCH  16  17
ENDBRANCH   6  16
TORSDOF 3
