REMARK  Name = ZINC35776813
REMARK  10 active torsions:
REMARK  status: ('A' for Active; 'I' for Inactive)
REMARK    1  A    between atoms: C_1  and  C_2
REMARK    2  A    between atoms: C_2  and  C_3
REMARK    3  A    between atoms: C_8  and  N_9
REMARK    4  A    between atoms: N_9  and  C_10
REMARK    5  A    between atoms: C_11  and  C_25
REMARK    6  A    between atoms: C_15  and  C_16
REMARK    7  A    between atoms: C_19  and  O_23
REMARK    8  A    between atoms: C_20  and  C_22
REMARK    9  A    between atoms: C_25  and  O_27
REMARK   10  A    between atoms: O_27  and  C_28
REMARK                            x       y       z     vdW  Elec       q    Type
REMARK                         _______ _______ _______ _____ _____    ______ ____
ROOT
ATOM      1  C   UNL     1       4.342   0.138  -0.266  0.00  0.00    +0.088 C 
ATOM      2  C   UNL     1       5.274   0.444   0.732  0.00  0.00    +0.134 C 
ATOM      3  C   UNL     1       6.621  -0.038   0.562  0.00  0.00    +0.209 C 
ATOM      4  O   UNL     1       7.499   0.180   1.381  0.00  0.00    -0.286 OA
ATOM      5  C   UNL     1       6.865  -0.811  -0.667  0.00  0.00    +0.062 C 
ATOM      6  C   UNL     1       8.019  -1.385  -1.092  0.00  0.00    +0.027 C 
ATOM      7  S   UNL     1       5.265  -0.815  -1.453  0.00  0.00    -0.069 S 
ENDROOT
BRANCH   6   8
ATOM      8  C   UNL     1       9.188  -1.427  -0.205  0.00  0.00    -0.023 A 
ATOM      9  C   UNL     1       9.021  -1.644   1.169  0.00  0.00    +0.011 A 
ATOM     10  C   UNL     1      10.120  -1.682   1.996  0.00  0.00    +0.046 A 
ATOM     11  C   UNL     1      11.395  -1.505   1.470  0.00  0.00    +0.120 A 
ATOM     12  C   UNL     1      11.567  -1.288   0.108  0.00  0.00    -0.008 A 
ATOM     13  C   UNL     1      10.475  -1.255  -0.730  0.00  0.00    +0.015 A 
ATOM     14  C   UNL     1      12.952  -1.097  -0.454  0.00  0.00    +0.047 C 
BRANCH  11  15
ATOM     15  O   UNL     1      12.476  -1.543   2.291  0.00  0.00    -0.507 OA
ATOM     16  H   UNL     1      12.857  -2.425   2.399  0.00  0.00    +0.292 HD
ENDBRANCH  11  15
ENDBRANCH   6   8
BRANCH   1  17
ATOM     17  N   UNL     1       3.020   0.488  -0.315  0.00  0.00    -0.308 N 
ATOM     18  H   UNL     1       2.608   0.935   0.440  0.00  0.00    +0.153 HD
BRANCH  17  24
ATOM     19  C   UNL     1       0.938  -0.197  -1.328  0.00  0.00    -0.026 A 
ATOM     20  C   UNL     1       0.191  -0.475  -2.456  0.00  0.00    +0.005 A 
ATOM     21  C   UNL     1       0.763  -0.366  -3.710  0.00  0.00    +0.000 A 
ATOM     22  C   UNL     1       2.084   0.022  -3.839  0.00  0.00    +0.002 A 
ATOM     23  C   UNL     1       2.836   0.302  -2.716  0.00  0.00    +0.023 A 
ATOM     24  C   UNL     1       2.263   0.199  -1.454  0.00  0.00    +0.035 A 
BRANCH  19  26
ATOM     25  C   UNL     1      -0.206   1.053   0.483  0.00  0.00    +0.009 C 
ATOM     26  C   UNL     1       0.313  -0.316   0.039  0.00  0.00    +0.033 C 
ENDBRANCH  19  26
ENDBRANCH  17  24
ENDBRANCH   1  17
BRANCH   2  27
ATOM     27  C   UNL     1       4.893   1.226   1.906  0.00  0.00    +0.345 C 
ATOM     28  O   UNL     1       3.750   1.623   2.028  0.00  0.00    -0.245 OA
BRANCH  27  29
ATOM     29  O   UNL     1       5.810   1.508   2.854  0.00  0.00    -0.464 OA
ATOM     30  C   UNL     1       5.369   2.277   3.975  0.00  0.00    +0.280 C 
ENDBRANCH  27  29
ENDBRANCH   2  27
TORSDOF 7
