REMARK  Name = ZINC01956816
REMARK  12 active torsions:
REMARK  status: ('A' for Active; 'I' for Inactive)
REMARK    1  A    between atoms: C_1  and  C_2
REMARK    2  A    between atoms: C_2  and  O_3
REMARK    3  A    between atoms: O_3  and  C_4
REMARK    4  A    between atoms: C_4  and  C_6
REMARK    5  A    between atoms: C_10  and  N_11
REMARK    6  A    between atoms: C_12  and  C_14
REMARK    7  A    between atoms: C_14  and  C_16
REMARK    8  A    between atoms: C_14  and  O_17
REMARK    9  A    between atoms: O_17  and  C_18
REMARK   10  A    between atoms: C_20  and  C_26
REMARK   11  A    between atoms: C_22  and  C_24
REMARK   12  A    between atoms: C_28  and  C_32
REMARK                            x       y       z     vdW  Elec       q    Type
REMARK                         _______ _______ _______ _____ _____    ______ ____
ROOT
ATOM      1  N   UNL     1      -3.397  -2.316   2.413  0.00  0.00    -0.276 N 
ATOM      2  C   UNL     1      -4.021  -2.782   3.514  0.00  0.00    +0.258 C 
ATOM      3  O   UNL     1      -5.040  -3.429   3.404  0.00  0.00    -0.271 OA
ATOM      4  H   UNL     1      -2.582  -1.798   2.501  0.00  0.00    +0.155 HD
ENDROOT
BRANCH   1   9
ATOM      5  C   UNL     1      -3.421  -2.181  -0.075  0.00  0.00    +0.091 A 
ATOM      6  C   UNL     1      -4.162  -2.592  -1.255  0.00  0.00    -0.021 A 
ATOM      7  C   UNL     1      -5.269  -3.318  -0.988  0.00  0.00    -0.004 A 
ATOM      8  S   UNL     1      -5.310  -3.441   0.776  0.00  0.00    -0.077 S 
ATOM      9  C   UNL     1      -3.922  -2.576   1.157  0.00  0.00    +0.086 A 
ATOM     10  C   UNL     1      -6.236  -3.883  -1.982  0.00  0.00    +0.046 C 
ATOM     11  C   UNL     1      -5.992  -3.199  -3.335  0.00  0.00    -0.009 C 
ATOM     12  C   UNL     1      -4.490  -3.213  -3.634  0.00  0.00    +0.008 C 
ATOM     13  C   UNL     1      -3.761  -2.259  -2.684  0.00  0.00    +0.037 C 
ATOM     14  C   UNL     1      -6.742  -3.954  -4.434  0.00  0.00    +0.008 C 
BRANCH   5  15
ATOM     15  C   UNL     1      -2.195  -1.387  -0.181  0.00  0.00    +0.342 C 
ATOM     16  O   UNL     1      -1.117  -1.943  -0.278  0.00  0.00    -0.245 OA
BRANCH  15  17
ATOM     17  O   UNL     1      -2.261  -0.040  -0.172  0.00  0.00    -0.461 OA
BRANCH  17  19
ATOM     18  C   UNL     1      -1.299   2.176  -0.251  0.00  0.00    +0.048 C 
ATOM     19  C   UNL     1      -1.026   0.671  -0.279  0.00  0.00    +0.229 C 
ENDBRANCH  17  19
ENDBRANCH  15  17
ENDBRANCH   5  15
ENDBRANCH   1   9
BRANCH   2  20
ATOM     20  C   UNL     1      -3.450  -2.499   4.880  0.00  0.00    +0.256 C 
ATOM     21  C   UNL     1      -2.094  -3.193   5.020  0.00  0.00    +0.062 C 
BRANCH  20  22
ATOM     22  O   UNL     1      -4.343  -2.993   5.880  0.00  0.00    -0.480 OA
BRANCH  22  23
ATOM     23  C   UNL     1      -4.285  -2.405   7.104  0.00  0.00    +0.122 A 
ATOM     24  C   UNL     1      -3.314  -1.449   7.370  0.00  0.00    +0.050 A 
ATOM     25  C   UNL     1      -3.256  -0.853   8.614  0.00  0.00    -0.028 A 
ATOM     26  C   UNL     1      -4.164  -1.208   9.596  0.00  0.00    +0.047 A 
ATOM     27  C   UNL     1      -5.132  -2.161   9.333  0.00  0.00    -0.028 A 
ATOM     28  C   UNL     1      -5.198  -2.755   8.088  0.00  0.00    +0.050 A 
ATOM     29  C   UNL     1      -6.120  -2.546  10.404  0.00  0.00    +0.045 C 
ATOM     30 CL   UNL     1      -4.088  -0.458  11.159  0.00  0.00    -0.083 Cl
ATOM     31  C   UNL     1      -2.202   0.185   8.903  0.00  0.00    +0.045 C 
ENDBRANCH  22  23
ENDBRANCH  20  22
ENDBRANCH   2  20
TORSDOF 7
