REMARK  Name = ZINC39228113
REMARK  4 active torsions:
REMARK  status: ('A' for Active; 'I' for Inactive)
REMARK    1  A    between atoms: C_17  and  O_34
REMARK    2  A    between atoms: C_19  and  C_21
REMARK    3  A    between atoms: N_23  and  C_24
REMARK    4  A    between atoms: C_24  and  C_25
REMARK                            x       y       z     vdW  Elec       q    Type
REMARK                         _______ _______ _______ _____ _____    ______ ____
ROOT
ATOM      1  C   UNL     1      -0.017   1.381   0.010  0.00  0.00    +0.001 A 
ATOM      2  C   UNL     1       0.002  -0.004   0.002  0.00  0.00    +0.002 A 
ATOM      3  C   UNL     1      -1.159  -0.758   0.009  0.00  0.00    +0.026 A 
ATOM      4  C   UNL     1      -2.365  -0.061   0.025  0.00  0.00    +0.047 A 
ATOM      5  N   UNL     1      -3.664  -0.481   0.037  0.00  0.00    -0.359 N 
ATOM      6  C   UNL     1      -4.500   0.601   0.054  0.00  0.00    +0.006 A 
ATOM      7  H   UNL     1      -3.951  -1.408   0.033  0.00  0.00    +0.166 HD
ATOM      8  C   UNL     1      -6.008   0.599   0.077  0.00  0.00    -0.020 C 
ATOM      9  C   UNL     1      -6.548  -0.473  -0.873  0.00  0.00    -0.005 C 
ATOM     10  C   UNL     1      -8.077  -0.448  -0.817  0.00  0.00    +0.004 C 
ATOM     11  C   UNL     1      -8.572   0.954  -1.181  0.00  0.00    -0.024 C 
ATOM     12  C   UNL     1     -10.097   0.991  -1.074  0.00  0.00    +0.004 C 
ATOM     13  C   UNL     1     -10.694  -0.024  -2.051  0.00  0.00    +0.032 C 
ATOM     14  C   UNL     1     -10.187  -1.427  -1.714  0.00  0.00    +0.127 C 
ATOM     15  C   UNL     1      -8.658  -1.456  -1.808  0.00  0.00    +0.107 C 
ATOM     16  C   UNL     1      -7.956   1.977  -0.225  0.00  0.00    -0.074 C 
ATOM     17  N   UNL     1      -6.488   1.920  -0.351  0.00  0.00    +0.386 N 
ATOM     18  C   UNL     1      -5.867   2.974   0.456  0.00  0.00    -0.073 C 
ATOM     19  C   UNL     1      -4.389   3.118   0.062  0.00  0.00    +0.019 C 
ATOM     20  C   UNL     1      -3.772   1.742   0.049  0.00  0.00    -0.022 A 
ATOM     21  C   UNL     1      -2.378   1.359   0.032  0.00  0.00    +0.003 A 
ATOM     22  C   UNL     1      -1.190   2.095   0.030  0.00  0.00    +0.010 A 
ATOM     23  H   UNL     1      -6.234   2.065  -1.316  0.00  0.00    -0.081 HD
ENDROOT
BRANCH  15  24
ATOM     24  C   UNL     1      -8.163  -2.839  -1.469  0.00  0.00    +0.219 C 
ATOM     25  O   UNL     1      -7.417  -3.002  -0.527  0.00  0.00    -0.275 OA
ATOM     26  N   UNL     1      -8.549  -3.894  -2.213  0.00  0.00    -0.311 N 
ATOM     27  H   UNL     1      -9.145  -3.764  -2.967  0.00  0.00    +0.149 HD
BRANCH  26  28
ATOM     28  C   UNL     1      -8.067  -5.238  -1.884  0.00  0.00    +0.139 C 
BRANCH  28  29
ATOM     29  C   UNL     1      -8.641  -6.231  -2.862  0.00  0.00    -0.027 A 
ATOM     30  C   UNL     1      -9.851  -6.843  -2.592  0.00  0.00    +0.009 A 
ATOM     31  C   UNL     1     -10.381  -7.754  -3.486  0.00  0.00    +0.050 A 
ATOM     32  C   UNL     1      -9.701  -8.056  -4.655  0.00  0.00    +0.166 A 
ATOM     33  C   UNL     1      -8.482  -7.439  -4.926  0.00  0.00    +0.167 A 
ATOM     34  C   UNL     1      -7.959  -6.523  -4.029  0.00  0.00    +0.054 A 
ATOM     35  O   UNL     1      -8.018  -7.899  -6.124  0.00  0.00    -0.453 OA
ATOM     36  C   UNL     1      -8.760  -9.104  -6.388  0.00  0.00    +0.466 C 
ATOM     37  O   UNL     1     -10.000  -8.903  -5.683  0.00  0.00    -0.453 OA
ENDBRANCH  28  29
ENDBRANCH  26  28
ENDBRANCH  15  24
BRANCH  14  38
ATOM     38  O   UNL     1     -10.591  -1.773  -0.388  0.00  0.00    -0.391 OA
ATOM     39  H   UNL     1     -11.549  -1.777  -0.257  0.00  0.00    +0.210 HD
ENDBRANCH  14  38
TORSDOF 4
