REMARK  Name = ZINC39675460
REMARK  10 active torsions:
REMARK  status: ('A' for Active; 'I' for Inactive)
REMARK    1  A    between atoms: C_1  and  C_2
REMARK    2  A    between atoms: C_2  and  C_4
REMARK    3  A    between atoms: C_2  and  N_14
REMARK    4  A    between atoms: C_4  and  C_5
REMARK    5  A    between atoms: C_5  and  C_6
REMARK    6  A    between atoms: C_9  and  O_12
REMARK    7  A    between atoms: O_12  and  C_13
REMARK    8  A    between atoms: C_15  and  C_17
REMARK    9  A    between atoms: C_28  and  C_30
REMARK   10  A    between atoms: C_33  and  C_35
REMARK                            x       y       z     vdW  Elec       q    Type
REMARK                         _______ _______ _______ _____ _____    ______ ____
ROOT
ATOM      1  C   UNL     1      -3.465  -1.164  -1.134  0.00  0.00    +0.100 C 
ATOM      2  C   UNL     1      -4.361  -0.271  -0.248  0.00  0.00    +0.121 C 
ATOM      3  N   UNL     1      -4.986   0.685  -1.192  0.00  0.00    -0.294 N 
ATOM      4  C   UNL     1      -5.292  -0.128  -2.393  0.00  0.00    +0.115 C 
ATOM      5  C   UNL     1      -4.080  -1.071  -2.540  0.00  0.00    -0.004 C 
ATOM      6  C   UNL     1      -3.071  -0.482  -3.521  0.00  0.00    -0.010 C 
ATOM      7  C   UNL     1      -3.687  -0.452  -4.923  0.00  0.00    -0.082 C 
ATOM      8  N   UNL     1      -4.055  -1.815  -5.327  0.00  0.00    +0.379 N 
ATOM      9  C   UNL     1      -5.094  -2.339  -4.432  0.00  0.00    -0.082 C 
ATOM     10  C   UNL     1      -4.538  -2.449  -3.010  0.00  0.00    -0.010 C 
ATOM     11  C   UNL     1      -5.224   1.998  -1.002  0.00  0.00    +0.282 C 
ATOM     12  O   UNL     1      -5.750   2.655  -1.881  0.00  0.00    -0.267 OA
ATOM     13  H   UNL     1      -4.403  -1.801  -6.274  0.00  0.00    -0.086 HD
ATOM     14  H   UNL     1      -3.241  -2.409  -5.280  0.00  0.00    -0.086 HD
ENDROOT
BRANCH  11  15
ATOM     15  C   UNL     1      -4.848   2.635   0.263  0.00  0.00    +0.190 A 
ATOM     16  C   UNL     1      -5.038   3.960   0.590  0.00  0.00    +0.055 A 
ATOM     17  C   UNL     1      -4.535   4.133   1.884  0.00  0.00    +0.050 A 
ATOM     18  C   UNL     1      -4.063   2.920   2.296  0.00  0.00    +0.136 A 
ATOM     19  O   UNL     1      -4.262   2.025   1.314  0.00  0.00    -0.450 OA
BRANCH  18  20
ATOM     20  C   UNL     1      -3.442   2.638   3.606  0.00  0.00    +0.017 A 
ATOM     21  C   UNL     1      -3.302   3.658   4.550  0.00  0.00    +0.011 A 
ATOM     22  C   UNL     1      -2.721   3.388   5.771  0.00  0.00    +0.001 A 
ATOM     23  C   UNL     1      -2.277   2.110   6.062  0.00  0.00    +0.000 A 
ATOM     24  C   UNL     1      -2.412   1.095   5.132  0.00  0.00    +0.001 A 
ATOM     25  C   UNL     1      -2.996   1.350   3.908  0.00  0.00    +0.011 A 
ENDBRANCH  18  20
ENDBRANCH  11  15
BRANCH   1  27
ATOM     26  N   UNL     1      -1.020  -1.493  -1.323  0.00  0.00    -0.312 N 
ATOM     27  C   UNL     1      -2.051  -0.643  -1.145  0.00  0.00    +0.218 C 
ATOM     28  O   UNL     1      -1.840   0.542  -0.992  0.00  0.00    -0.275 OA
ATOM     29  H   UNL     1      -1.189  -2.440  -1.445  0.00  0.00    +0.149 HD
BRANCH  26  31
ATOM     30  C   UNL     1       0.873  -0.890   0.102  0.00  0.00    +0.028 C 
ATOM     31  C   UNL     1       0.354  -0.986  -1.334  0.00  0.00    +0.070 C 
BRANCH  31  32
ATOM     32  C   UNL     1       1.243  -1.939  -2.135  0.00  0.00    +0.026 C 
BRANCH  32  33
ATOM     33  C   UNL     1       0.801  -1.939  -3.600  0.00  0.00    +0.037 C 
BRANCH  33  34
ATOM     34  C   UNL     1       1.677  -2.878  -4.389  0.00  0.00    -0.047 A 
ATOM     35  C   UNL     1       2.838  -2.409  -4.974  0.00  0.00    +0.007 A 
ATOM     36  C   UNL     1       3.643  -3.268  -5.699  0.00  0.00    +0.046 A 
ATOM     37  C   UNL     1       3.284  -4.601  -5.838  0.00  0.00    +0.120 A 
ATOM     38  C   UNL     1       2.118  -5.068  -5.249  0.00  0.00    +0.046 A 
ATOM     39  C   UNL     1       1.320  -4.207  -4.521  0.00  0.00    +0.007 A 
BRANCH  37  40
ATOM     40  O   UNL     1       4.074  -5.447  -6.550  0.00  0.00    -0.495 OA
ATOM     41  C   UNL     1       3.642  -6.806  -6.652  0.00  0.00    +0.277 C 
ENDBRANCH  37  40
ENDBRANCH  33  34
ENDBRANCH  32  33
ENDBRANCH  31  32
ENDBRANCH  26  31
ENDBRANCH   1  27
TORSDOF 8
