REMARK  Name = ZINC09808554
REMARK  5 active torsions:
REMARK  status: ('A' for Active; 'I' for Inactive)
REMARK    1  A    between atoms: C_3  and  C_6
REMARK    2  A    between atoms: C_11  and  O_33
REMARK    3  A    between atoms: C_12  and  C_14
REMARK    4  A    between atoms: C_14  and  C_16
REMARK    5  A    between atoms: C_14  and  N_53
REMARK                            x       y       z     vdW  Elec       q    Type
REMARK                         _______ _______ _______ _____ _____    ______ ____
ROOT
ATOM      1  C   UNL     1       4.988  -1.372   2.777  0.00  0.00    +0.007 C 
ENDROOT
BRANCH   1  11
ATOM      2  C   UNL     1       2.772  -0.414   2.598  0.00  0.00    -0.072 C 
ATOM      3  C   UNL     1       1.985   0.782   2.053  0.00  0.00    +0.046 C 
ATOM      4  C   UNL     1       2.072   0.792   0.530  0.00  0.00    +0.167 C 
ATOM      5  C   UNL     1       3.530   0.814   0.080  0.00  0.00    +0.046 C 
ATOM      6  C   UNL     1       4.266  -0.383   0.689  0.00  0.00    -0.072 C 
ATOM      7  O   UNL     1       1.371   1.930  -0.001  0.00  0.00    -0.346 OA
ATOM      8  C   UNL     1      -0.019   1.538   0.011  0.00  0.00    +0.191 C 
ATOM      9  C   UNL     1       0.002  -0.004   0.002  0.00  0.00    +0.191 C 
ATOM     10  O   UNL     1       1.402  -0.358  -0.013  0.00  0.00    -0.346 OA
ATOM     11  N   UNL     1       4.180  -0.298   2.163  0.00  0.00    +0.388 N 
ATOM     12  H   UNL     1       4.548   0.611   2.466  0.00  0.00    -0.080 HD
ENDBRANCH   1  11
BRANCH   1  19
ATOM     13  C   UNL     1       4.718  -1.518   8.737  0.00  0.00    +0.218 A 
ATOM     14  N   UNL     1       4.906  -0.329   8.149  0.00  0.00    -0.197 NA
ATOM     15  C   UNL     1       4.939  -0.488   6.856  0.00  0.00    +0.199 A 
ATOM     16  N   UNL     1       4.770  -1.810   6.549  0.00  0.00    -0.173 N 
ATOM     17  N   UNL     1       4.629  -2.447   7.809  0.00  0.00    -0.138 NA
ATOM     18  C   UNL     1       4.774  -2.149   5.217  0.00  0.00    +0.225 A 
ATOM     19  C   UNL     1       4.947  -1.215   4.275  0.00  0.00    +0.045 A 
ATOM     20  S   UNL     1       5.110   0.269   5.257  0.00  0.00    -0.050 S 
BRANCH  13  23
ATOM     21  C   UNL     1       4.573  -1.460  12.396  0.00  0.00    +0.042 A 
ATOM     22  C   UNL     1       4.715  -0.798  11.160  0.00  0.00    +0.053 A 
ATOM     23  C   UNL     1       4.625  -1.750  10.194  0.00  0.00    +0.173 A 
ATOM     24  O   UNL     1       4.431  -2.940  10.794  0.00  0.00    -0.460 OA
ATOM     25  C   UNL     1       4.404  -2.769  12.126  0.00  0.00    +0.196 A 
ENDBRANCH  13  23
BRANCH  18  26
ATOM     26  O   UNL     1       4.604  -3.449   4.853  0.00  0.00    -0.492 OA
ATOM     27  H   UNL     1       5.429  -3.949   4.785  0.00  0.00    +0.294 HD
ENDBRANCH  18  26
ENDBRANCH   1  19
BRANCH   1  28
ATOM     28  C   UNL     1       6.411  -1.249   2.297  0.00  0.00    -0.038 A 
ATOM     29  C   UNL     1       6.885  -0.031   1.847  0.00  0.00    +0.005 A 
ATOM     30  C   UNL     1       8.192   0.084   1.412  0.00  0.00    +0.020 A 
ATOM     31  C   UNL     1       9.023  -1.023   1.417  0.00  0.00    +0.042 A 
ATOM     32  C   UNL     1       8.547  -2.243   1.863  0.00  0.00    +0.040 A 
ATOM     33  C   UNL     1       7.241  -2.356   2.303  0.00  0.00    +0.044 A 
ATOM     34 CL   UNL     1       6.643  -3.886   2.863  0.00  0.00    -0.083 Cl
ATOM     35 CL   UNL     1      10.663  -0.880   0.865  0.00  0.00    -0.083 Cl
ENDBRANCH   1  28
TORSDOF 5
