REMARK  Name = ZINC23361992
REMARK  11 active torsions:
REMARK  status: ('A' for Active; 'I' for Inactive)
REMARK    1  A    between atoms: C_1  and  C_2
REMARK    2  A    between atoms: C_2  and  C_3
REMARK    3  A    between atoms: C_3  and  N_4
REMARK    4  A    between atoms: C_7  and  N_10
REMARK    5  A    between atoms: C_12  and  N_31
REMARK    6  A    between atoms: C_15  and  C_17
REMARK    7  A    between atoms: N_19  and  C_20
REMARK    8  A    between atoms: C_20  and  C_21
REMARK    9  A    between atoms: C_21  and  C_22
REMARK   10  A    between atoms: N_31  and  C_32
REMARK   11  A    between atoms: C_32  and  C_33
REMARK                            x       y       z     vdW  Elec       q    Type
REMARK                         _______ _______ _______ _____ _____    ______ ____
ROOT
ATOM      1  N   UNL     1      -2.036  -6.059  -0.972  0.00  0.00    -0.290 NA
ATOM      2  C   UNL     1      -1.403  -6.628  -2.176  0.00  0.00    +0.070 C 
ATOM      3  C   UNL     1      -2.392  -7.653  -2.770  0.00  0.00    -0.055 C 
ATOM      4  C   UNL     1      -3.285  -8.021  -1.557  0.00  0.00    +0.014 C 
ATOM      5  C   UNL     1      -3.374  -6.666  -0.811  0.00  0.00    +0.142 C 
ENDROOT
BRANCH   1   9
ATOM      6  N   UNL     1      -1.413  -2.002   0.005  0.00  0.00    +0.380 N 
ATOM      7  C   UNL     1      -0.826  -2.475  -1.254  0.00  0.00    -0.077 C 
ATOM      8  C   UNL     1      -0.728  -4.002  -1.234  0.00  0.00    +0.000 C 
ATOM      9  C   UNL     1      -2.130  -4.596  -1.069  0.00  0.00    +0.054 C 
ATOM     10  C   UNL     1      -2.762  -4.038   0.209  0.00  0.00    +0.000 C 
ATOM     11  C   UNL     1      -2.785  -2.510   0.136  0.00  0.00    -0.077 C 
ATOM     12  H   UNL     1      -0.858  -2.335   0.779  0.00  0.00    -0.082 HD
BRANCH   6  13
ATOM     13  C   UNL     1      -1.433  -0.534   0.013  0.00  0.00    -0.079 C 
BRANCH  13  15
ATOM     14  C   UNL     1      -0.019   1.526   0.010  0.00  0.00    +0.002 C 
ATOM     15  C   UNL     1       0.002  -0.004   0.002  0.00  0.00    -0.022 C 
ENDBRANCH  13  15
ENDBRANCH   6  13
ENDBRANCH   1   9
BRANCH   5  16
ATOM     16  C   UNL     1      -3.677  -6.889   0.648  0.00  0.00    +0.230 C 
ATOM     17  O   UNL     1      -2.863  -6.576   1.491  0.00  0.00    -0.274 OA
ATOM     18  N   UNL     1      -4.853  -7.436   1.016  0.00  0.00    -0.314 N 
ATOM     19  H   UNL     1      -5.503  -7.687   0.342  0.00  0.00    +0.149 HD
BRANCH  18  20
ATOM     20  C   UNL     1      -5.147  -7.653   2.435  0.00  0.00    +0.109 C 
BRANCH  20  21
ATOM     21  C   UNL     1      -6.535  -8.282   2.577  0.00  0.00    +0.054 C 
BRANCH  21  22
ATOM     22  C   UNL     1      -6.838  -8.505   4.037  0.00  0.00    -0.042 A 
ATOM     23  C   UNL     1      -6.483  -9.697   4.640  0.00  0.00    +0.007 A 
ATOM     24  C   UNL     1      -6.759  -9.906   5.979  0.00  0.00    +0.050 A 
ATOM     25  C   UNL     1      -7.392  -8.920   6.718  0.00  0.00    +0.166 A 
ATOM     26  C   UNL     1      -7.749  -7.719   6.110  0.00  0.00    +0.166 A 
ATOM     27  C   UNL     1      -7.465  -7.514   4.770  0.00  0.00    +0.053 A 
ATOM     28  O   UNL     1      -8.352  -6.922   7.040  0.00  0.00    -0.453 OA
ATOM     29  C   UNL     1      -8.727  -7.802   8.116  0.00  0.00    +0.466 C 
ATOM     30  O   UNL     1      -7.771  -8.875   8.029  0.00  0.00    -0.453 OA
ENDBRANCH  21  22
ENDBRANCH  20  21
ENDBRANCH  18  20
ENDBRANCH   5  16
BRANCH   3  31
ATOM     31  N   UNL     1      -1.676  -8.835  -3.270  0.00  0.00    +0.384 N 
ATOM     32  H   UNL     1      -1.090  -9.208  -2.539  0.00  0.00    -0.085 HD
ATOM     33  H   UNL     1      -2.344  -9.536  -3.557  0.00  0.00    -0.085 HD
BRANCH  31  34
ATOM     34  C   UNL     1      -0.844  -8.454  -4.419  0.00  0.00    -0.046 C 
BRANCH  34  35
ATOM     35  C   UNL     1      -0.110  -9.666  -4.932  0.00  0.00    -0.064 A 
ATOM     36  C   UNL     1       1.135  -9.986  -4.423  0.00  0.00    +0.004 A 
ATOM     37  C   UNL     1       1.809 -11.098  -4.892  0.00  0.00    +0.038 A 
ATOM     38  C   UNL     1       1.236 -11.891  -5.872  0.00  0.00    +0.123 A 
ATOM     39  C   UNL     1      -0.010 -11.569  -6.381  0.00  0.00    +0.038 A 
ATOM     40  C   UNL     1      -0.685 -10.460  -5.907  0.00  0.00    +0.004 A 
ATOM     41  F   UNL     1       1.894 -12.978  -6.332  0.00  0.00    -0.205 F 
ENDBRANCH  34  35
ENDBRANCH  31  34
ENDBRANCH   3  31
TORSDOF 10
