REMARK  Name = ZINC08569125
REMARK  10 active torsions:
REMARK  status: ('A' for Active; 'I' for Inactive)
REMARK    1  A    between atoms: C_1  and  C_2
REMARK    2  A    between atoms: C_2  and  O_3
REMARK    3  A    between atoms: O_3  and  C_4
REMARK    4  A    between atoms: C_4  and  C_6
REMARK    5  A    between atoms: C_6  and  O_7
REMARK    6  A    between atoms: O_7  and  C_8
REMARK    7  A    between atoms: C_11  and  C_14
REMARK    8  A    between atoms: C_17  and  C_28
REMARK    9  A    between atoms: C_23  and  N_27
REMARK   10  A    between atoms: C_24  and  C_25
REMARK                            x       y       z     vdW  Elec       q    Type
REMARK                         _______ _______ _______ _____ _____    ______ ____
ROOT
ATOM      1  C   UNL     1       4.014  -6.613   6.614  0.00  0.00    +0.101 C 
ATOM      2  C   UNL     1       3.017  -7.515   7.293  0.00  0.00    +0.049 A 
ATOM      3  C   UNL     1       1.963  -7.185   8.135  0.00  0.00    +0.068 A 
ATOM      4  N   UNL     1       1.360  -8.295   8.488  0.00  0.00    -0.176 NA
ATOM      5  N   UNL     1       2.020  -9.372   7.876  0.00  0.00    -0.246 N 
ATOM      6  H   UNL     1       1.786 -10.309   7.962  0.00  0.00    +0.192 HD
ATOM      7  C   UNL     1       3.033  -8.874   7.148  0.00  0.00    +0.222 A 
ATOM      8  O   UNL     1       3.950  -9.519   6.384  0.00  0.00    -0.423 OA
ATOM      9  C   UNL     1       5.027  -8.817   5.977  0.00  0.00    +0.200 C 
ATOM     10  C   UNL     1       5.123  -7.471   6.057  0.00  0.00    +0.098 C 
ATOM     11  C   UNL     1       1.579  -5.793   8.567  0.00  0.00    +0.068 C 
ENDROOT
BRANCH   1  15
ATOM     12  C   UNL     1       2.105  -4.484   3.438  0.00  0.00    +0.121 A 
ATOM     13  C   UNL     1       2.701  -3.790   4.480  0.00  0.00    +0.046 A 
ATOM     14  C   UNL     1       3.318  -4.480   5.505  0.00  0.00    +0.008 A 
ATOM     15  C   UNL     1       3.341  -5.862   5.494  0.00  0.00    -0.034 A 
ATOM     16  C   UNL     1       2.747  -6.557   4.456  0.00  0.00    +0.008 A 
ATOM     17  C   UNL     1       2.124  -5.872   3.431  0.00  0.00    +0.046 A 
BRANCH  12  18
ATOM     18  O   UNL     1       1.498  -3.808   2.428  0.00  0.00    -0.481 OA
BRANCH  18  19
ATOM     19  C   UNL     1       1.516  -2.381   2.500  0.00  0.00    +0.349 C 
BRANCH  19  20
ATOM     20  C   UNL     1       0.801  -1.808   1.304  0.00  0.00    +0.345 C 
ATOM     21  O   UNL     1       0.324  -2.546   0.475  0.00  0.00    -0.247 OA
BRANCH  20  22
ATOM     22  O   UNL     1       0.693  -0.477   1.160  0.00  0.00    -0.463 OA
BRANCH  22  24
ATOM     23  C   UNL     1      -0.019   1.526   0.010  0.00  0.00    +0.048 C 
ATOM     24  C   UNL     1       0.002  -0.004   0.002  0.00  0.00    +0.229 C 
ENDBRANCH  22  24
ENDBRANCH  20  22
ENDBRANCH  19  20
ENDBRANCH  18  19
ENDBRANCH  12  18
ENDBRANCH   1  15
BRANCH   9  25
ATOM     25  N   UNL     1       6.089  -9.510   5.451  0.00  0.00    -0.328 N 
ATOM     26  H   UNL     1       6.050 -10.477   5.381  0.00  0.00    +0.145 HD
ATOM     27  H   UNL     1       6.878  -9.034   5.150  0.00  0.00    +0.145 HD
ENDBRANCH   9  25
BRANCH  10  28
ATOM     28  C   UNL     1       6.321  -6.835   5.597  0.00  0.00    +0.101 C 
ATOM     29  N   UNL     1       7.271  -6.331   5.231  0.00  0.00    -0.191 NA
ENDBRANCH  10  28
TORSDOF 8
