REMARK  Name = ZINC63490959
REMARK  6 active torsions:
REMARK  status: ('A' for Active; 'I' for Inactive)
REMARK    1  A    between atoms: C_1  and  C_2
REMARK    2  A    between atoms: C_13  and  C_15
REMARK    3  A    between atoms: C_15  and  C_16
REMARK    4  A    between atoms: N_18  and  C_19
REMARK    5  A    between atoms: C_19  and  C_20
REMARK    6  A    between atoms: C_20  and  C_21
REMARK                            x       y       z     vdW  Elec       q    Type
REMARK                         _______ _______ _______ _____ _____    ______ ____
ROOT
ATOM      1  C   UNL     1      -0.019   1.526   0.010  0.00  0.00    +0.013 C 
ATOM      2  C   UNL     1       0.002  -0.004   0.002  0.00  0.00    +0.034 C 
ATOM      3  C   UNL     1       0.705  -0.489  -1.241  0.00  0.00    -0.001 A 
ATOM      4  C   UNL     1      -0.001  -0.511  -2.433  0.00  0.00    +0.014 A 
ATOM      5  C   UNL     1       0.601  -0.938  -3.603  0.00  0.00    -0.005 A 
ATOM      6  C   UNL     1       1.924  -1.347  -3.587  0.00  0.00    +0.128 A 
ATOM      7  C   UNL     1       2.632  -1.333  -2.392  0.00  0.00    +0.092 A 
ATOM      8  C   UNL     1       2.023  -0.907  -1.219  0.00  0.00    +0.139 A 
ATOM      9  O   UNL     1       2.751  -0.925  -0.069  0.00  0.00    -0.425 OA
ATOM     10  C   UNL     1       2.223  -0.317   1.012  0.00  0.00    +0.316 C 
ATOM     11  O   UNL     1       2.900   0.351   1.757  0.00  0.00    -0.250 OA
ATOM     12  C   UNL     1       0.740  -0.510   1.246  0.00  0.00    +0.114 C 
ATOM     13  O   UNL     1       2.559  -1.761  -4.714  0.00  0.00    -0.485 OA
ATOM     14  C   UNL     1       1.757  -2.123  -5.837  0.00  0.00    +0.111 C 
ATOM     15  C   UNL     1       2.641  -2.285  -7.073  0.00  0.00    +0.048 C 
ATOM     16  C   UNL     1       3.668  -3.392  -6.824  0.00  0.00    +0.004 C 
ATOM     17  C   UNL     1       2.940  -4.708  -6.539  0.00  0.00    +0.000 C 
ATOM     18  C   UNL     1       2.056  -4.544  -5.301  0.00  0.00    +0.004 C 
ATOM     19  C   UNL     1       1.029  -3.437  -5.550  0.00  0.00    +0.048 C 
ATOM     20  C   UNL     1       0.730  -1.013  -6.083  0.00  0.00    +0.053 C 
ATOM     21  C   UNL     1      -0.209  -0.948  -4.875  0.00  0.00    +0.043 C 
ENDROOT
BRANCH  12  22
ATOM     22  C   UNL     1       0.437  -1.994   1.461  0.00  0.00    +0.111 C 
BRANCH  22  23
ATOM     23  C   UNL     1       1.066  -2.453   2.751  0.00  0.00    +0.214 C 
ATOM     24  O   UNL     1       1.694  -1.670   3.432  0.00  0.00    -0.276 OA
ATOM     25  N   UNL     1       0.930  -3.734   3.149  0.00  0.00    -0.315 N 
ATOM     26  H   UNL     1       0.428  -4.360   2.604  0.00  0.00    +0.149 HD
BRANCH  25  27
ATOM     27  C   UNL     1       1.541  -4.180   4.403  0.00  0.00    +0.108 C 
BRANCH  27  28
ATOM     28  C   UNL     1       1.238  -5.664   4.618  0.00  0.00    +0.052 C 
BRANCH  28  29
ATOM     29  C   UNL     1       1.867  -6.123   5.909  0.00  0.00    -0.040 C 
ATOM     30  C   UNL     1       1.271  -6.202   7.120  0.00  0.00    -0.001 A 
ATOM     31  C   UNL     1      -0.088  -5.896   7.582  0.00  0.00    +0.010 A 
ATOM     32  C   UNL     1      -0.395  -6.080   8.886  0.00  0.00    +0.001 A 
ATOM     33  C   UNL     1       0.550  -6.554   9.806  0.00  0.00    +0.002 A 
ATOM     34  C   UNL     1       1.818  -6.857   9.458  0.00  0.00    +0.026 A 
ATOM     35  C   UNL     1       2.250  -6.702   8.112  0.00  0.00    +0.043 A 
ATOM     36  N   UNL     1       3.407  -6.924   7.535  0.00  0.00    -0.380 N 
ATOM     37  C   UNL     1       3.290  -6.594   6.110  0.00  0.00    +0.144 C 
ATOM     38  H   UNL     1       4.205  -7.254   7.976  0.00  0.00    +0.160 HD
ENDBRANCH  28  29
ENDBRANCH  27  28
ENDBRANCH  25  27
ENDBRANCH  22  23
ENDBRANCH  12  22
TORSDOF 5
