REMARK  Name = ZINC19760786
REMARK  11 active torsions:
REMARK  status: ('A' for Active; 'I' for Inactive)
REMARK    1  A    between atoms: C_1  and  C_2
REMARK    2  A    between atoms: C_3  and  C_30
REMARK    3  A    between atoms: C_4  and  C_21
REMARK    4  A    between atoms: C_10  and  C_15
REMARK    5  A    between atoms: C_24  and  O_29
REMARK    6  A    between atoms: C_25  and  O_27
REMARK    7  A    between atoms: O_27  and  C_28
REMARK    8  A    between atoms: C_30  and  O_32
REMARK    9  A    between atoms: O_32  and  C_33
REMARK   10  A    between atoms: C_33  and  C_34
REMARK   11  A    between atoms: C_33  and  C_35
REMARK                            x       y       z     vdW  Elec       q    Type
REMARK                         _______ _______ _______ _____ _____    ______ ____
ROOT
ATOM      1  C   UNL     1      -0.020   1.055   0.016  0.00  0.00    +0.061 C 
ATOM      2  C   UNL     1      -0.722   1.557   1.252  0.00  0.00    +0.016 C 
ATOM      3  C   UNL     1      -0.034   1.701   2.398  0.00  0.00    +0.065 C 
ATOM      4  C   UNL     1      -0.701   2.192   3.649  0.00  0.00    +0.092 C 
ATOM      5  C   UNL     1      -2.010   2.870   3.334  0.00  0.00    +0.024 C 
ATOM      6  C   UNL     1      -2.620   2.674   2.146  0.00  0.00    +0.016 C 
ATOM      7  N   UNL     1      -2.051   1.868   1.198  0.00  0.00    -0.321 N 
ATOM      8  C   UNL     1      -3.936   3.339   1.829  0.00  0.00    +0.059 C 
ATOM      9  C   UNL     1      -4.020   4.684   2.555  0.00  0.00    +0.032 C 
ATOM     10  C   UNL     1      -3.871   4.434   4.059  0.00  0.00    +0.088 C 
ATOM     11  C   UNL     1      -2.574   3.712   4.309  0.00  0.00    +0.162 C 
ATOM     12  O   UNL     1      -2.004   3.860   5.372  0.00  0.00    -0.292 OA
ATOM     13  H   UNL     1      -2.677   1.469   0.386  0.00  0.00    +0.152 HD
ENDROOT
BRANCH   9  14
ATOM     14  C   UNL     1      -5.356   5.326   2.279  0.00  0.00    -0.044 A 
ATOM     15  C   UNL     1      -6.523   4.667   2.619  0.00  0.00    +0.004 A 
ATOM     16  C   UNL     1      -7.747   5.258   2.369  0.00  0.00    +0.000 A 
ATOM     17  C   UNL     1      -7.805   6.503   1.772  0.00  0.00    +0.000 A 
ATOM     18  C   UNL     1      -6.638   7.159   1.427  0.00  0.00    +0.000 A 
ATOM     19  C   UNL     1      -5.413   6.571   1.681  0.00  0.00    +0.004 A 
ENDBRANCH   9  14
BRANCH   4  20
ATOM     20  C   UNL     1      -0.958   1.022   4.564  0.00  0.00    -0.032 A 
ATOM     21  C   UNL     1      -1.762  -0.020   4.142  0.00  0.00    +0.008 A 
ATOM     22  C   UNL     1      -1.996  -1.098   4.975  0.00  0.00    +0.049 A 
ATOM     23  C   UNL     1      -1.433  -1.131   6.240  0.00  0.00    +0.158 A 
ATOM     24  C   UNL     1      -0.628  -0.080   6.667  0.00  0.00    +0.162 A 
ATOM     25  C   UNL     1      -0.393   0.995   5.825  0.00  0.00    +0.054 A 
BRANCH  24  26
ATOM     26  O   UNL     1      -0.073  -0.107   7.909  0.00  0.00    -0.491 OA
ATOM     27  C   UNL     1       0.742   1.007   8.280  0.00  0.00    +0.277 C 
ENDBRANCH  24  26
BRANCH  23  28
ATOM     28  O   UNL     1      -1.667  -2.188   7.063  0.00  0.00    -0.503 OA
ATOM     29  H   UNL     1      -1.220  -2.213   8.068  0.00  0.00    +0.292 HD
ENDBRANCH  23  28
ENDBRANCH   4  20
BRANCH   3  30
ATOM     30  C   UNL     1       1.344   1.385   2.424  0.00  0.00    +0.338 C 
ATOM     31  O   UNL     1       1.920   1.087   1.395  0.00  0.00    -0.245 OA
BRANCH  30  32
ATOM     32  O   UNL     1       2.021   1.413   3.592  0.00  0.00    -0.459 OA
BRANCH  32  33
ATOM     33  C   UNL     1       3.410   1.083   3.545  0.00  0.00    +0.171 C 
ATOM     34  C   UNL     1       4.229   2.353   3.308  0.00  0.00    +0.052 C 
ATOM     35  C   UNL     1       3.828   0.447   4.872  0.00  0.00    +0.052 C 
ENDBRANCH  32  33
ENDBRANCH  30  32
ENDBRANCH   3  30
TORSDOF 7
