REMARK  Name = ZINC14995438
REMARK  12 active torsions:
REMARK  status: ('A' for Active; 'I' for Inactive)
REMARK    1  A    between atoms: C_1  and  C_2
REMARK    2  A    between atoms: N_4  and  C_5
REMARK    3  A    between atoms: C_9  and  C_18
REMARK    4  A    between atoms: C_13  and  C_14
REMARK    5  A    between atoms: C_14  and  O_16
REMARK    6  A    between atoms: O_16  and  C_17
REMARK    7  A    between atoms: C_18  and  N_44
REMARK    8  A    between atoms: C_19  and  C_20
REMARK    9  A    between atoms: C_19  and  C_21
REMARK   10  A    between atoms: C_19  and  C_22
REMARK   11  A    between atoms: C_19  and  N_44
REMARK   12  A    between atoms: C_22  and  O_23
REMARK                            x       y       z     vdW  Elec       q    Type
REMARK                         _______ _______ _______ _____ _____    ______ ____
ROOT
ATOM      1  C   UNL     1       1.151  -2.806  -2.143  0.00  0.00    +0.064 A 
ATOM      2  C   UNL     1       1.983  -3.672  -1.322  0.00  0.00    +0.030 A 
ATOM      3  C   UNL     1       3.333  -4.054  -1.526  0.00  0.00    +0.014 A 
ATOM      4  C   UNL     1       3.933  -4.890  -0.615  0.00  0.00    +0.022 A 
ATOM      5  C   UNL     1       3.226  -5.353   0.486  0.00  0.00    +0.026 A 
ATOM      6  N   UNL     1       1.971  -4.996   0.671  0.00  0.00    -0.246 NA
ATOM      7  C   UNL     1       1.352  -4.197  -0.172  0.00  0.00    +0.111 A 
ATOM      8  S   UNL     1      -0.287  -3.517  -0.236  0.00  0.00    -0.060 S 
ATOM      9  C   UNL     1      -0.147  -2.576  -1.742  0.00  0.00    +0.120 A 
ENDROOT
BRANCH   1  13
ATOM     10  C   UNL     1       2.402  -2.365  -5.656  0.00  0.00    +0.109 C 
ATOM     11  C   UNL     1       1.741  -2.951  -4.436  0.00  0.00    +0.214 C 
ATOM     12  O   UNL     1       1.288  -4.076  -4.472  0.00  0.00    -0.276 OA
ATOM     13  N   UNL     1       1.653  -2.226  -3.303  0.00  0.00    -0.284 N 
ATOM     14  H   UNL     1       1.939  -1.299  -3.297  0.00  0.00    +0.155 HD
ENDBRANCH   1  13
BRANCH   9  15
ATOM     15  C   UNL     1      -1.133  -1.777  -2.374  0.00  0.00    +0.348 C 
ATOM     16  O   UNL     1      -0.880  -1.217  -3.424  0.00  0.00    -0.244 OA
BRANCH  15  17
ATOM     17  O   UNL     1      -2.351  -1.638  -1.811  0.00  0.00    -0.464 OA
ATOM     18  C   UNL     1      -3.296  -0.818  -2.502  0.00  0.00    +0.280 C 
ENDBRANCH  15  17
ENDBRANCH   9  15
BRANCH   5  19
ATOM     19  C   UNL     1       3.898  -6.269   1.475  0.00  0.00    -0.025 C 
BRANCH  19  20
ATOM     20  N   UNL     1       4.433  -5.467   2.592  0.00  0.00    +0.388 N 
ATOM     21  H   UNL     1       3.662  -4.966   3.048  0.00  0.00    -0.084 HD
ATOM     22  H   UNL     1       5.113  -4.790   2.227  0.00  0.00    -0.084 HD
BRANCH  20  23
ATOM     23  C   UNL     1       5.097  -6.340   3.578  0.00  0.00    -0.050 C 
ATOM     24  C   UNL     1       4.090  -7.350   4.132  0.00  0.00    -0.008 C 
ATOM     25  C   UNL     1       6.252  -7.087   2.908  0.00  0.00    -0.008 C 
BRANCH  23  26
ATOM     26  C   UNL     1       5.641  -5.482   4.722  0.00  0.00    +0.143 C 
BRANCH  26  27
ATOM     27  O   UNL     1       6.286  -6.321   5.682  0.00  0.00    -0.396 OA
ATOM     28  H   UNL     1       6.656  -5.842   6.436  0.00  0.00    +0.209 HD
ENDBRANCH  26  27
ENDBRANCH  23  26
ENDBRANCH  20  23
ENDBRANCH  19  20
ENDBRANCH   5  19
TORSDOF 8
