REMARK  Name = ZINC21809672
REMARK  5 active torsions:
REMARK  status: ('A' for Active; 'I' for Inactive)
REMARK    1  A    between atoms: C_1  and  C_2
REMARK    2  A    between atoms: C_7  and  N_8
REMARK    3  A    between atoms: C_17  and  C_18
REMARK    4  A    between atoms: C_17  and  C_19
REMARK    5  A    between atoms: N_21  and  C_22
REMARK                            x       y       z     vdW  Elec       q    Type
REMARK                         _______ _______ _______ _____ _____    ______ ____
ROOT
ATOM      1  N   UNL     1       3.929   2.002   0.408  0.00  0.00    -0.250 N 
ATOM      2  C   UNL     1       3.439   0.740   0.380  0.00  0.00    +0.268 C 
ATOM      3  O   UNL     1       4.171  -0.232   0.365  0.00  0.00    -0.268 OA
ATOM      4  C   UNL     1       1.978   0.609   0.370  0.00  0.00    +0.107 A 
ATOM      5  C   UNL     1       1.182  -0.487   0.520  0.00  0.00    +0.048 A 
ATOM      6  C   UNL     1      -0.135  -0.054   0.428  0.00  0.00    +0.038 A 
ATOM      7  C   UNL     1      -0.159   1.332   0.210  0.00  0.00    +0.057 A 
ATOM      8  N   UNL     1       1.167   1.722   0.167  0.00  0.00    -0.333 N 
ATOM      9  C   UNL     1       1.728   3.056  -0.061  0.00  0.00    +0.158 C 
ATOM     10  C   UNL     1       3.076   3.159   0.653  0.00  0.00    +0.133 C 
ATOM     11  C   UNL     1       3.797   4.418   0.169  0.00  0.00    +0.044 C 
ATOM     12  C   UNL     1      -1.434   1.906   0.096  0.00  0.00    +0.034 A 
ATOM     13  C   UNL     1      -2.537   1.136   0.202  0.00  0.00    +0.048 A 
ATOM     14  S   UNL     1      -1.854  -0.491   0.468  0.00  0.00    -0.095 S 
ENDROOT
BRANCH   1  21
ATOM     15  C   UNL     1       4.794   2.656  -2.223  0.00  0.00    +0.045 C 
ATOM     16  C   UNL     1       5.762   2.523  -1.076  0.00  0.00    -0.029 A 
ATOM     17  C   UNL     1       7.112   2.725  -1.284  0.00  0.00    +0.005 A 
ATOM     18  C   UNL     1       8.002   2.598  -0.233  0.00  0.00    +0.000 A 
ATOM     19  C   UNL     1       7.542   2.274   1.031  0.00  0.00    +0.002 A 
ATOM     20  C   UNL     1       6.193   2.076   1.246  0.00  0.00    +0.024 A 
ATOM     21  C   UNL     1       5.296   2.203   0.193  0.00  0.00    +0.041 A 
ENDBRANCH   1  21
BRANCH  10  22
ATOM     22  C   UNL     1       2.832   3.277   2.136  0.00  0.00    +0.239 C 
ATOM     23  O   UNL     1       1.725   3.553   2.548  0.00  0.00    -0.273 OA
ATOM     24  N   UNL     1       3.843   3.077   3.004  0.00  0.00    -0.311 N 
ATOM     25  H   UNL     1       4.827   2.750   2.636  0.00  0.00    +0.149 HD
BRANCH  24  26
ATOM     26  C   UNL     1       3.633   3.295   4.437  0.00  0.00    +0.073 C 
ATOM     27  C   UNL     1       3.811   4.796   4.745  0.00  0.00    +0.022 C 
ATOM     28  C   UNL     1       3.116   5.102   6.045  0.00  0.00    +0.002 C 
ATOM     29  C   UNL     1       4.072   5.035   7.252  0.00  0.00    +0.000 C 
ATOM     30  C   UNL     1       5.042   3.841   7.181  0.00  0.00    +0.000 C 
ATOM     31  C   UNL     1       4.369   2.580   6.707  0.00  0.00    +0.002 C 
ATOM     32  C   UNL     1       4.566   2.463   5.182  0.00  0.00    +0.022 C 
ENDBRANCH  24  26
ENDBRANCH  10  22
TORSDOF 3
