REMARK  Name = ZINC07780135
REMARK  6 active torsions:
REMARK  status: ('A' for Active; 'I' for Inactive)
REMARK    1  A    between atoms: C_1  and  C_2
REMARK    2  A    between atoms: C_2  and  N_3
REMARK    3  A    between atoms: C_7  and  C_12
REMARK    4  A    between atoms: N_14  and  C_15
REMARK    5  A    between atoms: N_14  and  C_25
REMARK    6  A    between atoms: C_15  and  C_16
REMARK                            x       y       z     vdW  Elec       q    Type
REMARK                         _______ _______ _______ _____ _____    ______ ____
ROOT
ATOM      1  C   UNL     1      -0.933  -0.513   2.427  0.00  0.00    +0.247 C 
ATOM      2  O   UNL     1      -1.487  -0.624   3.504  0.00  0.00    -0.270 OA
ATOM      3  N   UNL     1       0.235   0.153   2.336  0.00  0.00    -0.290 N 
ENDROOT
BRANCH   1   8
ATOM      4  N   UNL     1      -3.281  -2.997  -2.002  0.00  0.00    -0.244 N 
ATOM      5  C   UNL     1      -2.674  -2.198  -1.065  0.00  0.00    +0.089 A 
ATOM      6  C   UNL     1      -2.156  -0.905  -1.092  0.00  0.00    +0.030 A 
ATOM      7  C   UNL     1      -1.604  -0.366   0.031  0.00  0.00    +0.015 A 
ATOM      8  C   UNL     1      -1.540  -1.109   1.219  0.00  0.00    +0.039 A 
ATOM      9  C   UNL     1      -2.051  -2.399   1.266  0.00  0.00    +0.044 A 
ATOM     10  C   UNL     1      -2.624  -2.956   0.120  0.00  0.00    +0.113 A 
ATOM     11  N   UNL     1      -3.191  -4.159  -0.140  0.00  0.00    -0.129 NA
ATOM     12  N   UNL     1      -3.581  -4.209  -1.364  0.00  0.00    -0.065 NA
BRANCH   4  14
ATOM     13  C   UNL     1      -4.945  -2.006  -3.495  0.00  0.00    +0.029 C 
ATOM     14  C   UNL     1      -3.561  -2.650  -3.397  0.00  0.00    +0.142 C 
ENDBRANCH   4  14
ENDBRANCH   1   8
BRANCH   3  15
ATOM     15  C   UNL     1       0.417   1.174   1.301  0.00  0.00    +0.077 C 
ATOM     16  C   UNL     1       0.665   0.519  -0.080  0.00  0.00    +0.022 C 
ATOM     17  C   UNL     1       0.233   1.596  -1.096  0.00  0.00    +0.002 C 
ATOM     18  C   UNL     1      -0.760   2.517  -0.366  0.00  0.00    +0.002 C 
ATOM     19  C   UNL     1      -0.897   1.967   1.069  0.00  0.00    +0.022 C 
ENDBRANCH   3  15
BRANCH   3  20
ATOM     20  C   UNL     1       1.323  -0.144   3.271  0.00  0.00    +0.143 C 
BRANCH  20  21
ATOM     21  C   UNL     1       1.202   0.744   4.482  0.00  0.00    -0.026 A 
ATOM     22  C   UNL     1       0.460   0.326   5.572  0.00  0.00    +0.009 A 
ATOM     23  C   UNL     1       0.345   1.137   6.685  0.00  0.00    +0.050 A 
ATOM     24  C   UNL     1       0.973   2.372   6.711  0.00  0.00    +0.166 A 
ATOM     25  C   UNL     1       1.720   2.793   5.614  0.00  0.00    +0.167 A 
ATOM     26  C   UNL     1       1.836   1.972   4.503  0.00  0.00    +0.054 A 
ATOM     27  O   UNL     1       2.232   4.029   5.883  0.00  0.00    -0.453 OA
ATOM     28  C   UNL     1       2.131   4.185   7.310  0.00  0.00    +0.466 C 
ATOM     29  O   UNL     1       1.018   3.345   7.668  0.00  0.00    -0.453 OA
ENDBRANCH  20  21
ENDBRANCH   3  20
TORSDOF 5
