REMARK  Name = ZINC00823577
REMARK  5 active torsions:
REMARK  status: ('A' for Active; 'I' for Inactive)
REMARK    1  A    between atoms: C_1  and  C_2
REMARK    2  A    between atoms: C_3  and  C_19
REMARK    3  A    between atoms: C_4  and  C_10
REMARK    4  A    between atoms: C_19  and  O_21
REMARK    5  A    between atoms: O_21  and  C_22
REMARK                            x       y       z     vdW  Elec       q    Type
REMARK                         _______ _______ _______ _____ _____    ______ ____
ROOT
ATOM      1  C   UNL     1      -2.454   2.816  -2.423  0.00  0.00    +0.061 C 
ATOM      2  C   UNL     1      -1.769   2.331  -1.171  0.00  0.00    +0.021 C 
ATOM      3  C   UNL     1      -0.672   1.551  -1.275  0.00  0.00    +0.078 C 
ATOM      4  C   UNL     1      -0.013   1.086   0.008  0.00  0.00    +0.144 C 
ATOM      5  N   UNL     1      -0.629   1.524   1.271  0.00  0.00    -0.288 N 
ATOM      6  C   UNL     1      -1.728   2.303   1.213  0.00  0.00    +0.304 C 
ATOM      7  O   UNL     1      -2.244   2.671   2.250  0.00  0.00    -0.252 OA
ATOM      8  N   UNL     1      -2.268   2.686   0.049  0.00  0.00    -0.273 N 
ATOM      9  H   UNL     1      -0.254   1.260   2.126  0.00  0.00    +0.151 HD
ATOM     10  H   UNL     1      -3.059   3.247   0.074  0.00  0.00    +0.156 HD
ENDROOT
BRANCH   4  11
ATOM     11  C   UNL     1       1.416   1.566  -0.003  0.00  0.00    -0.019 A 
ATOM     12  C   UNL     1       1.714   2.852   0.406  0.00  0.00    +0.009 A 
ATOM     13  C   UNL     1       3.024   3.295   0.403  0.00  0.00    +0.050 A 
ATOM     14  C   UNL     1       4.040   2.454  -0.021  0.00  0.00    +0.166 A 
ATOM     15  C   UNL     1       3.738   1.160  -0.439  0.00  0.00    +0.167 A 
ATOM     16  C   UNL     1       2.424   0.720  -0.427  0.00  0.00    +0.055 A 
ATOM     17  O   UNL     1       4.897   0.538  -0.804  0.00  0.00    -0.453 OA
ATOM     18  C   UNL     1       5.856   1.595  -0.994  0.00  0.00    +0.466 C 
ATOM     19  O   UNL     1       5.387   2.643  -0.126  0.00  0.00    -0.453 OA
ENDBRANCH   4  11
BRANCH   3  20
ATOM     20  C   UNL     1      -0.154   1.183  -2.538  0.00  0.00    +0.339 C 
ATOM     21  O   UNL     1      -0.700   1.568  -3.555  0.00  0.00    -0.245 OA
BRANCH  20  22
ATOM     22  O   UNL     1       0.945   0.404  -2.616  0.00  0.00    -0.458 OA
BRANCH  22  23
ATOM     23  C   UNL     1       1.413   0.070  -3.925  0.00  0.00    +0.177 C 
ATOM     24  C   UNL     1       0.707  -1.218  -4.395  0.00  0.00    +0.044 C 
ATOM     25  C   UNL     1       0.787  -1.285  -5.896  0.00  0.00    +0.004 C 
ATOM     26  C   UNL     1       1.992  -2.112  -6.384  0.00  0.00    +0.000 C 
ATOM     27  C   UNL     1       3.273  -1.835  -5.574  0.00  0.00    +0.000 C 
ATOM     28  C   UNL     1       3.460  -0.372  -5.274  0.00  0.00    +0.004 C 
ATOM     29  C   UNL     1       2.861  -0.076  -3.884  0.00  0.00    +0.044 C 
ENDBRANCH  22  23
ENDBRANCH  20  22
ENDBRANCH   3  20
TORSDOF 4
