REMARK  Name = ZINC05553604
REMARK  8 active torsions:
REMARK  status: ('A' for Active; 'I' for Inactive)
REMARK    1  A    between atoms: C_1  and  C_2
REMARK    2  A    between atoms: N_8  and  C_16
REMARK    3  A    between atoms: C_9  and  C_14
REMARK    4  A    between atoms: C_9  and  C_15
REMARK    5  A    between atoms: C_11  and  C_13
REMARK    6  A    between atoms: C_16  and  C_17
REMARK    7  A    between atoms: C_17  and  S_18
REMARK    8  A    between atoms: S_18  and  C_19
REMARK                            x       y       z     vdW  Elec       q    Type
REMARK                         _______ _______ _______ _____ _____    ______ ____
ROOT
ATOM      1  C   UNL     1       2.974  -0.959   0.881  0.00  0.00    +0.044 C 
ATOM      2  C   UNL     1       1.818  -0.071   0.501  0.00  0.00    -0.049 A 
ATOM      3  C   UNL     1       0.673  -0.622  -0.047  0.00  0.00    +0.004 A 
ATOM      4  C   UNL     1      -0.383   0.194  -0.398  0.00  0.00    +0.006 A 
ATOM      5  C   UNL     1      -0.307   1.565  -0.206  0.00  0.00    -0.023 A 
ATOM      6  C   UNL     1       0.833   2.121   0.348  0.00  0.00    +0.034 A 
ATOM      7  C   UNL     1       1.899   1.290   0.698  0.00  0.00    +0.026 A 
ATOM      8  N   UNL     1       0.971   3.487   0.588  0.00  0.00    -0.324 N 
ATOM      9  C   UNL     1       0.053   4.306  -0.207  0.00  0.00    +0.030 C 
ATOM     10  C   UNL     1      -1.377   3.796   0.013  0.00  0.00    +0.033 C 
ATOM     11  C   UNL     1      -1.486   2.408  -0.623  0.00  0.00    +0.020 C 
ATOM     12  C   UNL     1      -2.781   1.737  -0.160  0.00  0.00    +0.012 C 
ATOM     13  C   UNL     1       0.151   5.766   0.237  0.00  0.00    +0.031 C 
ATOM     14  C   UNL     1       0.418   4.194  -1.689  0.00  0.00    +0.031 C 
ENDROOT
BRANCH   8  15
ATOM     15  C   UNL     1       2.362   3.918   0.395  0.00  0.00    +0.117 C 
BRANCH  15  16
ATOM     16  C   UNL     1       2.390   5.403   0.029  0.00  0.00    +0.096 C 
BRANCH  16  17
ATOM     17  S   UNL     1       4.106   5.971  -0.054  0.00  0.00    -0.085 S 
BRANCH  17  18
ATOM     18  C   UNL     1       3.848   7.662  -0.481  0.00  0.00    +0.184 A 
ATOM     19  N   UNL     1       4.811   8.588  -0.678  0.00  0.00    -0.254 N 
ATOM     20  H   UNL     1       5.769   8.454  -0.613  0.00  0.00    +0.191 HD
ATOM     21  N   UNL     1       4.148   9.785  -0.996  0.00  0.00    -0.160 NA
ATOM     22  C   UNL     1       2.868   9.529  -0.975  0.00  0.00    +0.245 A 
ATOM     23  N   UNL     1       2.683   8.245  -0.670  0.00  0.00    -0.209 NA
ENDBRANCH  17  18
ENDBRANCH  16  17
ENDBRANCH  15  16
ENDBRANCH   8  15
TORSDOF 4
