REMARK  Name = ZINC02133367
REMARK  4 active torsions:
REMARK  status: ('A' for Active; 'I' for Inactive)
REMARK    1  A    between atoms: C_12  and  C_14
REMARK    2  A    between atoms: C_14  and  C_15
REMARK    3  A    between atoms: C_18  and  O_21
REMARK    4  A    between atoms: N_24  and  C_27
REMARK                            x       y       z     vdW  Elec       q    Type
REMARK                         _______ _______ _______ _____ _____    ______ ____
ROOT
ATOM      1  C   UNL     1       1.008  -1.487  -2.760  0.00  0.00    +0.000 A 
ATOM      2  C   UNL     1       2.308  -1.934  -2.914  0.00  0.00    +0.002 A 
ATOM      3  C   UNL     1       3.369  -1.123  -2.569  0.00  0.00    +0.023 A 
ATOM      4  C   UNL     1       3.139   0.154  -2.062  0.00  0.00    +0.036 A 
ATOM      5  C   UNL     1       1.827   0.593  -1.910  0.00  0.00    -0.028 A 
ATOM      6  C   UNL     1       0.771  -0.221  -2.256  0.00  0.00    +0.004 A 
ATOM      7  C   UNL     1       1.921   1.983  -1.351  0.00  0.00    +0.050 C 
ATOM      8  C   UNL     1       1.208   2.098   0.002  0.00  0.00    +0.088 C 
ATOM      9  C   UNL     1       0.606   3.531   0.023  0.00  0.00    +0.073 C 
ATOM     10  C   UNL     1       1.015   4.153  -1.329  0.00  0.00    -0.053 C 
ATOM     11  C   UNL     1      -0.885   3.284   0.029  0.00  0.00    +0.224 C 
ATOM     12  O   UNL     1      -1.738   4.145   0.038  0.00  0.00    -0.275 OA
ATOM     13  N   UNL     1      -1.117   1.966   0.017  0.00  0.00    -0.239 N 
ATOM     14  C   UNL     1      -0.014   1.208   0.009  0.00  0.00    +0.225 C 
ATOM     15  O   UNL     1       0.002  -0.004   0.002  0.00  0.00    -0.275 OA
ATOM     16  C   UNL     1       3.396   2.252  -1.218  0.00  0.00    +0.211 C 
ATOM     17  O   UNL     1       3.912   3.268  -0.802  0.00  0.00    -0.277 OA
ATOM     18  N   UNL     1       4.031   1.146  -1.649  0.00  0.00    -0.286 N 
ATOM     19  H   UNL     1       4.996   1.049  -1.671  0.00  0.00    +0.155 HD
ATOM     20  N   UNL     1       1.266   2.995  -2.191  0.00  0.00    +0.394 N 
ATOM     21  H   UNL     1       0.381   2.629  -2.561  0.00  0.00    -0.083 HD
ATOM     22  H   UNL     1       1.879   3.259  -2.971  0.00  0.00    -0.083 HD
ENDROOT
BRANCH  13  23
ATOM     23  C   UNL     1      -2.468   1.399   0.018  0.00  0.00    +0.084 C 
ATOM     24  C   UNL     1      -3.203   1.859  -1.258  0.00  0.00    +0.023 C 
ATOM     25  C   UNL     1      -4.342   0.911  -1.521  0.00  0.00    +0.002 C 
ATOM     26  C   UNL     1      -5.671   1.409  -0.923  0.00  0.00    +0.000 C 
ATOM     27  C   UNL     1      -5.504   2.010   0.485  0.00  0.00    +0.000 C 
ATOM     28  C   UNL     1      -4.567   1.208   1.347  0.00  0.00    +0.002 C 
ATOM     29  C   UNL     1      -3.154   1.816   1.232  0.00  0.00    +0.023 C 
ENDBRANCH  13  23
BRANCH  10  30
ATOM     30  C   UNL     1      -0.118   5.022  -1.879  0.00  0.00    +0.020 C 
BRANCH  30  31
ATOM     31  C   UNL     1       0.345   5.715  -3.135  0.00  0.00    -0.049 A 
ATOM     32  C   UNL     1       0.943   6.959  -3.056  0.00  0.00    +0.007 A 
ATOM     33  C   UNL     1       1.373   7.595  -4.204  0.00  0.00    +0.045 A 
ATOM     34  C   UNL     1       1.195   6.988  -5.439  0.00  0.00    +0.117 A 
ATOM     35  C   UNL     1       0.589   5.742  -5.517  0.00  0.00    +0.045 A 
ATOM     36  C   UNL     1       0.166   5.109  -4.364  0.00  0.00    +0.007 A 
BRANCH  34  37
ATOM     37  O   UNL     1       1.613   7.613  -6.571  0.00  0.00    -0.507 OA
ATOM     38  H   UNL     1       0.944   8.183  -6.976  0.00  0.00    +0.292 HD
ENDBRANCH  34  37
ENDBRANCH  30  31
ENDBRANCH  10  30
TORSDOF 4
