REMARK  Name = ZINC43740675
REMARK  11 active torsions:
REMARK  status: ('A' for Active; 'I' for Inactive)
REMARK    1  A    between atoms: C_1  and  C_2
REMARK    2  A    between atoms: N_6  and  O_7
REMARK    3  A    between atoms: O_7  and  C_8
REMARK    4  A    between atoms: C_8  and  C_9
REMARK    5  A    between atoms: N_11  and  CA_12
REMARK    6  A    between atoms: CA_12  and  CB_14
REMARK    7  A    between atoms: CA_12  and  C_18
REMARK    8  A    between atoms: CB_14  and  CG_15
REMARK    9  A    between atoms: C_31  and  C_40
REMARK   10  A    between atoms: C_36  and  C_37
REMARK   11  A    between atoms: C_36  and  O_39
REMARK                            x       y       z     vdW  Elec       q    Type
REMARK                         _______ _______ _______ _____ _____    ______ ____
ROOT
ATOM      1  C   UNK A   0      -0.119   1.636  -0.132  0.00  0.00    +0.016 C 
ATOM      2  C   UNK A   0      -0.053   0.107  -0.124  0.00  0.00    -0.007 C 
ATOM      3  C   UNK A   0       0.601  -0.404  -1.402  0.00  0.00    +0.017 C 
ATOM      4  C   UNK A   0       2.057   0.067  -1.476  0.00  0.00    +0.059 C 
ATOM      5  C   UNK A   0       2.781  -0.342  -0.218  0.00  0.00    +0.080 C 
ATOM      6  N   UNK A   0       4.067  -0.500  -0.234  0.00  0.00    -0.089 NA
ATOM      7  C   UNK A   0       2.032  -0.557   1.025  0.00  0.00    +0.026 C 
ATOM      8  C   UNK A   0       0.725  -0.360   1.083  0.00  0.00    -0.062 C 
ATOM      9  C   UNK A   0      -0.030  -0.609   2.368  0.00  0.00    +0.031 C 
ATOM     10  C   UNK A   0      -1.053  -1.723   2.139  0.00  0.00    +0.008 C 
ATOM     11  C   UNK A   0      -1.404  -1.829   0.661  0.00  0.00    -0.003 C 
ATOM     12  C   UNK A   0      -1.480  -0.456   0.006  0.00  0.00    +0.002 C 
ATOM     13  C   UNK A   0      -2.158  -0.493  -1.352  0.00  0.00    +0.005 C 
ATOM     14  C   UNK A   0      -3.560  -1.108  -1.326  0.00  0.00    +0.011 C 
ATOM     15  C   UNK A   0      -3.846  -1.780  -0.008  0.00  0.00    +0.011 C 
ATOM     16  C   UNK A   0      -2.638  -2.643   0.411  0.00  0.00    +0.002 C 
ATOM     17  C   UNK A   0      -3.204  -3.436   1.598  0.00  0.00    +0.008 C 
ATOM     18  C   UNK A   0      -4.647  -3.779   1.136  0.00  0.00    +0.049 C 
ATOM     19  C   UNK A   0      -4.956  -2.852  -0.064  0.00  0.00    +0.132 C 
ATOM     20  C   UNK A   0      -4.253  -0.768   1.062  0.00  0.00    +0.015 C 
ENDROOT
BRANCH  19  21
ATOM     21  C   UNK A   0      -6.271  -2.218   0.096  0.00  0.00    -0.070 C 
ATOM     22  C   UNK A   0      -7.322  -1.712   0.224  0.00  0.00    +0.007 C 
ENDBRANCH  19  21
BRANCH  19  23
ATOM     23  O   UNK A   0      -4.883  -3.576  -1.288  0.00  0.00    -0.376 OA
ATOM     24  H   UNK A   0      -5.557  -4.263  -1.379  0.00  0.00    +0.211 HD
ENDBRANCH  19  23
BRANCH   6  25
ATOM     25  O   UNK A   0       4.791  -0.288  -1.432  0.00  0.00    -0.384 OA
BRANCH  25  26
ATOM     26  C   UNK A   0       6.199  -0.498  -1.305  0.00  0.00    +0.358 C 
BRANCH  26  27
ATOM     27  C   UNK A   0       6.867  -0.247  -2.633  0.00  0.00    +0.254 C 
ATOM     28  O   UNK A   0       6.202   0.080  -3.593  0.00  0.00    -0.272 OA
ATOM     29  N   ASP A   1       8.202  -0.385  -2.752  0.00  0.00    -0.299 N 
ATOM     30  H   ASP A   1       8.733  -0.646  -1.984  0.00  0.00    +0.150 HD
BRANCH  29  31
ATOM     31  CA  ASP A   1       8.851  -0.141  -4.043  0.00  0.00    +0.197 C 
BRANCH  31  32
ATOM     32  C   ASP A   1       9.135   1.332  -4.192  0.00  0.00    +0.376 C 
ATOM     33  O   ASP A   1       9.354   2.013  -3.205  0.00  0.00    -0.244 OA
ATOM     34  OXT ASP A   1       9.146   1.842  -5.299  0.00  0.00    -0.244 OA
ENDBRANCH  31  32
BRANCH  31  35
ATOM     35  CB  ASP A   1      10.164  -0.923  -4.110  0.00  0.00    +0.159 C 
BRANCH  35  36
ATOM     36  CG  ASP A   1       9.870  -2.401  -4.085  0.00  0.00    +0.358 C 
ATOM     37  OD1 ASP A   1       8.717  -2.792  -4.019  0.00  0.00    -0.246 OA
ATOM     38  OD2 ASP A   1      10.786  -3.205  -4.130  0.00  0.00    -0.246 OA
ENDBRANCH  35  36
ENDBRANCH  31  35
ENDBRANCH  29  31
ENDBRANCH  26  27
ENDBRANCH  25  26
ENDBRANCH   6  25
TORSDOF 9
