REMARK  Name = ZINC41512704
REMARK  6 active torsions:
REMARK  status: ('A' for Active; 'I' for Inactive)
REMARK    1  A    between atoms: C_1  and  C_2
REMARK    2  A    between atoms: N_7  and  C_9
REMARK    3  A    between atoms: C_9  and  C_10
REMARK    4  A    between atoms: C_11  and  O_32
REMARK    5  A    between atoms: C_17  and  C_28
REMARK    6  A    between atoms: C_18  and  C_21
REMARK                            x       y       z     vdW  Elec       q    Type
REMARK                         _______ _______ _______ _____ _____    ______ ____
ROOT
ATOM      1  C   UNL     1       0.955  -4.286   2.137  0.00  0.00    +0.020 A 
ATOM      2  C   UNL     1      -0.034  -5.013   2.778  0.00  0.00    +0.122 A 
ATOM      3  C   UNL     1       0.149  -6.364   3.063  0.00  0.00    +0.046 A 
ATOM      4  C   UNL     1       1.309  -6.993   2.708  0.00  0.00    +0.019 A 
ATOM      5  C   UNL     1       2.313  -6.274   2.059  0.00  0.00    +0.065 A 
ATOM      6  C   UNL     1       2.140  -4.909   1.768  0.00  0.00    +0.144 A 
ATOM      7  O   UNL     1       3.116  -4.217   1.150  0.00  0.00    -0.450 OA
ATOM      8  C   UNL     1       4.125  -4.828   0.526  0.00  0.00    +0.219 A 
ATOM      9  C   UNL     1       4.420  -6.141   0.716  0.00  0.00    +0.076 A 
ATOM     10  C   UNL     1       3.578  -6.915   1.651  0.00  0.00    +0.201 A 
ATOM     11  O   UNL     1       3.901  -8.020   2.051  0.00  0.00    -0.286 OA
ENDROOT
BRANCH   9  12
ATOM     12  C   UNL     1       5.561  -6.775   0.013  0.00  0.00    -0.011 A 
ATOM     13  C   UNL     1       6.867  -6.517   0.425  0.00  0.00    +0.010 A 
ATOM     14  C   UNL     1       7.926  -7.110  -0.233  0.00  0.00    +0.016 A 
ATOM     15  C   UNL     1       7.692  -7.960  -1.300  0.00  0.00    +0.018 A 
ATOM     16  C   UNL     1       6.397  -8.220  -1.713  0.00  0.00    +0.016 A 
ATOM     17  C   UNL     1       5.331  -7.636  -1.059  0.00  0.00    +0.010 A 
ATOM     18 BR   UNL     1       9.147  -8.770  -2.196  0.00  0.00    -0.050 Br
ENDBRANCH   9  12
BRANCH   8  19
ATOM     19  C   UNL     1       4.973  -4.029  -0.430  0.00  0.00    +0.451 C 
ATOM     20  F   UNL     1       5.846  -4.887  -1.108  0.00  0.00    -0.163 F 
ATOM     21  F   UNL     1       4.147  -3.379  -1.354  0.00  0.00    -0.163 F 
ATOM     22  F   UNL     1       5.712  -3.080   0.283  0.00  0.00    -0.163 F 
ENDBRANCH   8  19
BRANCH   2  23
ATOM     23  O   UNL     1      -1.193  -4.402   3.134  0.00  0.00    -0.506 OA
ATOM     24  H   UNL     1      -1.880  -4.437   2.454  0.00  0.00    +0.292 HD
ENDBRANCH   2  23
BRANCH   1  25
ATOM     25  C   UNL     1       0.744  -2.825   1.835  0.00  0.00    -0.036 C 
BRANCH  25  31
ATOM     26  C   UNL     1      -1.261   0.344  -1.311  0.00  0.00    +0.005 C 
ATOM     27  C   UNL     1      -0.928  -1.129  -1.065  0.00  0.00    -0.031 C 
ATOM     28  C   UNL     1      -0.021  -1.643  -2.186  0.00  0.00    -0.001 C 
ATOM     29  C   UNL     1       0.369  -3.094  -1.889  0.00  0.00    -0.018 C 
ATOM     30  C   UNL     1       1.046  -3.164  -0.518  0.00  0.00    -0.078 C 
ATOM     31  N   UNL     1       0.119  -2.683   0.514  0.00  0.00    +0.383 N 
ATOM     32  C   UNL     1      -0.205  -1.272   0.276  0.00  0.00    -0.075 C 
ATOM     33  H   UNL     1      -0.729  -3.230   0.484  0.00  0.00    -0.081 HD
ENDBRANCH  25  31
ENDBRANCH   1  25
TORSDOF 5
