REMARK  Name = ZINC39603690
REMARK  7 active torsions:
REMARK  status: ('A' for Active; 'I' for Inactive)
REMARK    1  A    between atoms: C_1  and  O_2
REMARK    2  A    between atoms: O_2  and  C_3
REMARK    3  A    between atoms: C_3  and  C_4
REMARK    4  A    between atoms: C_4  and  N_5
REMARK    5  A    between atoms: C_6  and  C_8
REMARK    6  A    between atoms: C_19  and  C_21
REMARK    7  A    between atoms: C_24  and  C_26
REMARK                            x       y       z     vdW  Elec       q    Type
REMARK                         _______ _______ _______ _____ _____    ______ ____
ROOT
ATOM      1  C   UNL     1      -2.484  -4.345  -1.134  0.00  0.00    +0.100 C 
ATOM      2  C   UNL     1      -3.265  -3.912   0.126  0.00  0.00    +0.121 C 
ATOM      3  N   UNL     1      -4.169  -5.049   0.416  0.00  0.00    -0.294 N 
ATOM      4  C   UNL     1      -3.350  -6.252   0.134  0.00  0.00    +0.115 C 
ATOM      5  C   UNL     1      -2.541  -5.882  -1.125  0.00  0.00    -0.004 C 
ATOM      6  C   UNL     1      -1.133  -6.463  -1.037  0.00  0.00    -0.010 C 
ATOM      7  C   UNL     1      -1.212  -7.991  -1.088  0.00  0.00    -0.082 C 
ATOM      8  N   UNL     1      -1.857  -8.408  -2.339  0.00  0.00    +0.379 N 
ATOM      9  C   UNL     1      -3.242  -7.923  -2.374  0.00  0.00    -0.082 C 
ATOM     10  C   UNL     1      -3.249  -6.392  -2.377  0.00  0.00    -0.010 C 
ATOM     11  C   UNL     1      -5.447  -5.002   0.840  0.00  0.00    +0.282 C 
ATOM     12  O   UNL     1      -6.063  -6.033   1.036  0.00  0.00    -0.267 OA
ATOM     13  H   UNL     1      -1.348  -8.025  -3.122  0.00  0.00    -0.086 HD
ATOM     14  H   UNL     1      -1.853  -9.415  -2.399  0.00  0.00    -0.086 HD
ENDROOT
BRANCH  11  15
ATOM     15  C   UNL     1      -6.096  -3.708   1.066  0.00  0.00    +0.190 A 
ATOM     16  C   UNL     1      -7.389  -3.516   1.502  0.00  0.00    +0.055 A 
ATOM     17  C   UNL     1      -7.589  -2.134   1.577  0.00  0.00    +0.050 A 
ATOM     18  C   UNL     1      -6.424  -1.538   1.188  0.00  0.00    +0.136 A 
ATOM     19  O   UNL     1      -5.530  -2.495   0.888  0.00  0.00    -0.450 OA
BRANCH  18  20
ATOM     20  C   UNL     1      -6.184  -0.083   1.115  0.00  0.00    +0.017 A 
ATOM     21  C   UNL     1      -7.196   0.813   1.467  0.00  0.00    +0.014 A 
ATOM     22  C   UNL     1      -6.966   2.171   1.397  0.00  0.00    +0.039 A 
ATOM     23  C   UNL     1      -5.733   2.647   0.979  0.00  0.00    +0.123 A 
ATOM     24  C   UNL     1      -4.725   1.762   0.629  0.00  0.00    +0.039 A 
ATOM     25  C   UNL     1      -4.941   0.403   0.700  0.00  0.00    +0.014 A 
ATOM     26  F   UNL     1      -5.513   3.978   0.913  0.00  0.00    -0.205 F 
ENDBRANCH  18  20
ENDBRANCH  11  15
BRANCH   1  28
ATOM     27  N   UNL     1      -0.367  -3.612  -2.184  0.00  0.00    -0.313 N 
ATOM     28  C   UNL     1      -1.055  -3.873  -1.054  0.00  0.00    +0.218 C 
ATOM     29  O   UNL     1      -0.524  -3.727   0.026  0.00  0.00    -0.275 OA
ATOM     30  H   UNL     1      -0.792  -3.729  -3.048  0.00  0.00    +0.149 HD
BRANCH  27  31
ATOM     31  C   UNL     1       1.022  -3.153  -2.106  0.00  0.00    +0.132 C 
BRANCH  31  32
ATOM     32  C   UNL     1       1.566  -2.933  -3.519  0.00  0.00    +0.178 C 
BRANCH  32  34
ATOM     33  C   UNL     1       1.282  -1.577  -5.475  0.00  0.00    +0.194 C 
ATOM     34  O   UNL     1       0.850  -1.866  -4.144  0.00  0.00    -0.381 OA
ENDBRANCH  32  34
ENDBRANCH  31  32
ENDBRANCH  27  31
ENDBRANCH   1  28
TORSDOF 6
