REMARK  Name = ZINC01111176
REMARK  1 active torsions:
REMARK  status: ('A' for Active; 'I' for Inactive)
REMARK    1  A    between atoms: C_4  and  C_8
REMARK                            x       y       z     vdW  Elec       q    Type
REMARK                         _______ _______ _______ _____ _____    ______ ____
ROOT
ATOM      1  C   UNL     1       3.995  -2.764   2.870  0.00  0.00    +0.062 C 
ATOM      2  C   UNL     1       3.321  -3.841   3.725  0.00  0.00    +0.109 C 
ATOM      3  C   UNL     1       2.388  -4.654   2.866  0.00  0.00    +0.218 C 
ATOM      4  O   UNL     1       2.251  -5.840   3.082  0.00  0.00    -0.275 OA
ATOM      5  N   UNL     1       1.703  -4.075   1.861  0.00  0.00    -0.285 N 
ATOM      6  C   UNL     1       1.820  -2.698   1.631  0.00  0.00    +0.041 A 
ATOM      7  C   UNL     1       2.937  -2.017   2.098  0.00  0.00    -0.015 A 
ATOM      8  C   UNL     1       3.072  -0.664   1.859  0.00  0.00    +0.055 A 
ATOM      9  C   UNL     1       2.089   0.021   1.159  0.00  0.00    +0.162 A 
ATOM     10  C   UNL     1       0.969  -0.657   0.692  0.00  0.00    +0.164 A 
ATOM     11  C   UNL     1       0.836  -2.018   0.930  0.00  0.00    +0.073 A 
ATOM     12  O   UNL     1       0.002  -0.004   0.002  0.00  0.00    -0.485 OA
ATOM     13  C   UNL     1      -0.017   1.415   0.010  0.00  0.00    +0.270 C 
ATOM     14  C   UNL     1       1.388   1.996  -0.001  0.00  0.00    +0.270 C 
ATOM     15  O   UNL     1       2.229   1.353   0.944  0.00  0.00    -0.485 OA
ATOM     16  H   UNL     1       1.127  -4.613   1.296  0.00  0.00    +0.155 HD
ENDROOT
BRANCH   1  20
ATOM     17  C   UNL     1       6.105  -0.044   5.403  0.00  0.00    +0.018 A 
ATOM     18  C   UNL     1       6.787  -0.754   4.433  0.00  0.00    +0.040 A 
ATOM     19  C   UNL     1       6.106  -1.639   3.616  0.00  0.00    +0.127 A 
ATOM     20  C   UNL     1       4.739  -1.804   3.764  0.00  0.00    -0.003 A 
ATOM     21  C   UNL     1       4.058  -1.094   4.733  0.00  0.00    +0.022 A 
ATOM     22  C   UNL     1       4.740  -0.213   5.553  0.00  0.00    +0.018 A 
ATOM     23 BR   UNL     1       3.808   0.759   6.880  0.00  0.00    -0.050 Br
ATOM     24  F   UNL     1       6.773  -2.337   2.671  0.00  0.00    -0.205 F 
ENDBRANCH   1  20
TORSDOF 1
