REMARK  Name = ZINC63383803
REMARK  11 active torsions:
REMARK  status: ('A' for Active; 'I' for Inactive)
REMARK    1  A    between atoms: C_1  and  C_2
REMARK    2  A    between atoms: C_2  and  C_3
REMARK    3  A    between atoms: C_2  and  C_4
REMARK    4  A    between atoms: C_4  and  C_5
REMARK    5  A    between atoms: C_5  and  N_6
REMARK    6  A    between atoms: C_7  and  C_9
REMARK    7  A    between atoms: C_9  and  C_11
REMARK    8  A    between atoms: C_9  and  N_14
REMARK    9  A    between atoms: C_11  and  C_12
REMARK   10  A    between atoms: C_11  and  C_13
REMARK   11  A    between atoms: C_15  and  C_17
REMARK                            x       y       z     vdW  Elec       q    Type
REMARK                         _______ _______ _______ _____ _____    ______ ____
ROOT
ATOM      1  C   UNL     1       8.568  -0.368  -4.859  0.00  0.00    +0.167 C 
ATOM      2  C   UNL     1       9.223  -1.496  -4.039  0.00  0.00    +0.065 C 
ATOM      3  C   UNL     1      10.588  -1.005  -3.623  0.00  0.00    -0.034 C 
ATOM      4  C   UNL     1      11.790  -1.553  -3.773  0.00  0.00    -0.001 A 
ATOM      5  C   UNL     1      12.208  -2.862  -4.300  0.00  0.00    +0.010 A 
ATOM      6  C   UNL     1      13.546  -3.097  -4.328  0.00  0.00    +0.001 A 
ATOM      7  C   UNL     1      14.499  -2.171  -3.889  0.00  0.00    +0.002 A 
ATOM      8  C   UNL     1      14.203  -0.948  -3.382  0.00  0.00    +0.026 A 
ATOM      9  C   UNL     1      12.826  -0.590  -3.294  0.00  0.00    +0.043 A 
ATOM     10  N   UNL     1      12.265   0.490  -2.836  0.00  0.00    -0.375 N 
ATOM     11  C   UNL     1      10.812   0.327  -2.917  0.00  0.00    +0.131 C 
ATOM     12  C   UNL     1      10.172   1.402  -3.803  0.00  0.00    +0.134 C 
ATOM     13  N   UNL     1       8.830   0.910  -4.185  0.00  0.00    -0.276 N 
ATOM     14  C   UNL     1       7.913   1.818  -3.803  0.00  0.00    +0.248 C 
ATOM     15  O   UNL     1       6.724   1.751  -4.046  0.00  0.00    -0.270 OA
ATOM     16  C   UNL     1       8.556   2.898  -3.052  0.00  0.00    +0.042 A 
ATOM     17  C   UNL     1       9.968   2.670  -3.040  0.00  0.00    -0.013 A 
ATOM     18  C   UNL     1      10.855   3.518  -2.414  0.00  0.00    +0.006 A 
ATOM     19  C   UNL     1      10.321   4.639  -1.786  0.00  0.00    +0.000 A 
ATOM     20  C   UNL     1       8.965   4.897  -1.787  0.00  0.00    +0.001 A 
ATOM     21  C   UNL     1       8.012   4.020  -2.421  0.00  0.00    +0.013 A 
ATOM     22  H   UNL     1      12.731   1.271  -2.498  0.00  0.00    +0.160 HD
ENDROOT
BRANCH   1  24
ATOM     23  N   UNL     1       6.315  -0.473  -3.843  0.00  0.00    -0.302 N 
ATOM     24  C   UNL     1       7.081  -0.601  -4.944  0.00  0.00    +0.235 C 
ATOM     25  O   UNL     1       6.575  -0.903  -6.004  0.00  0.00    -0.274 OA
ATOM     26  H   UNL     1       6.720  -0.231  -2.996  0.00  0.00    +0.150 HD
BRANCH  23  27
ATOM     27  C   UNL     1       4.870  -0.699  -3.926  0.00  0.00    +0.161 C 
BRANCH  27  29
ATOM     28  N   UNL     1       2.864   0.342  -2.921  0.00  0.00    -0.314 N 
ATOM     29  C   UNL     1       4.178   0.060  -2.824  0.00  0.00    +0.234 C 
ATOM     30  O   UNL     1       4.804   0.419  -1.849  0.00  0.00    -0.274 OA
ATOM     31  H   UNL     1       2.378   0.118  -3.731  0.00  0.00    +0.149 HD
BRANCH  28  32
ATOM     32  C   UNL     1       2.167   0.984  -1.803  0.00  0.00    +0.104 C 
BRANCH  32  33
ATOM     33  C   UNL     1       0.696   1.190  -2.170  0.00  0.00    +0.022 C 
BRANCH  33  35
ATOM     34  C   UNL     1       0.534   3.266  -0.790  0.00  0.00    +0.007 C 
ATOM     35  C   UNL     1      -0.031   1.861  -1.003  0.00  0.00    -0.016 C 
ATOM     36  C   UNL     1      -1.525   1.954  -1.318  0.00  0.00    +0.007 C 
ENDBRANCH  33  35
ENDBRANCH  32  33
ENDBRANCH  28  32
ENDBRANCH  27  29
BRANCH  27  37
ATOM     37  C   UNL     1       4.578  -2.194  -3.777  0.00  0.00    +0.012 C 
ATOM     38  C   UNL     1       3.080  -2.442  -3.961  0.00  0.00    +0.009 C 
ATOM     39  C   UNL     1       5.359  -2.974  -4.836  0.00  0.00    +0.009 C 
ENDBRANCH  27  37
ENDBRANCH  23  27
ENDBRANCH   1  24
TORSDOF 7
