REMARK  Name = ZINC02478518
REMARK  9 active torsions:
REMARK  status: ('A' for Active; 'I' for Inactive)
REMARK    1  A    between atoms: C_1  and  C_2
REMARK    2  A    between atoms: C_3  and  C_22
REMARK    3  A    between atoms: C_4  and  C_11
REMARK    4  A    between atoms: N_9  and  C_10
REMARK    5  A    between atoms: C_20  and  O_21
REMARK    6  A    between atoms: C_22  and  O_24
REMARK    7  A    between atoms: O_24  and  C_25
REMARK    8  A    between atoms: C_25  and  C_26
REMARK    9  A    between atoms: C_25  and  C_27
REMARK                            x       y       z     vdW  Elec       q    Type
REMARK                         _______ _______ _______ _____ _____    ______ ____
ROOT
ATOM      1  C   UNL     1      -1.502   0.018  -0.207  0.00  0.00    +0.061 C 
ATOM      2  C   UNL     1      -0.059   0.441  -0.104  0.00  0.00    +0.024 C 
ATOM      3  C   UNL     1       0.911  -0.498  -0.111  0.00  0.00    +0.078 C 
ATOM      4  C   UNL     1       2.348  -0.029  -0.005  0.00  0.00    +0.148 C 
ATOM      5  N   UNL     1       2.570   1.423   0.096  0.00  0.00    -0.288 N 
ATOM      6  C   UNL     1       1.497   2.238   0.089  0.00  0.00    +0.307 C 
ATOM      7  O   UNL     1       1.669   3.438   0.173  0.00  0.00    -0.252 OA
ATOM      8  N   UNL     1       0.246   1.769  -0.006  0.00  0.00    -0.262 N 
ATOM      9  C   UNL     1      -0.856   2.734  -0.012  0.00  0.00    +0.139 C 
ATOM     10  H   UNL     1       3.467   1.784   0.167  0.00  0.00    +0.151 HD
ENDROOT
BRANCH   4  11
ATOM     11  C   UNL     1       3.090  -0.529  -1.218  0.00  0.00    +0.027 A 
ATOM     12  C   UNL     1       4.025  -1.570  -1.094  0.00  0.00    -0.009 A 
ATOM     13  C   UNL     1       4.281  -2.176   0.148  0.00  0.00    +0.009 A 
ATOM     14  C   UNL     1       5.189  -3.187   0.230  0.00  0.00    +0.001 A 
ATOM     15  C   UNL     1       5.866  -3.636  -0.902  0.00  0.00    +0.001 A 
ATOM     16  C   UNL     1       5.640  -3.077  -2.123  0.00  0.00    +0.008 A 
ATOM     17  C   UNL     1       4.710  -2.031  -2.247  0.00  0.00    -0.017 A 
ATOM     18  C   UNL     1       4.450  -1.430  -3.491  0.00  0.00    +0.012 A 
ATOM     19  C   UNL     1       3.544  -0.420  -3.576  0.00  0.00    +0.046 A 
ATOM     20  C   UNL     1       2.862   0.032  -2.442  0.00  0.00    +0.123 A 
BRANCH  20  21
ATOM     21  O   UNL     1       1.962   1.043  -2.559  0.00  0.00    -0.506 OA
ATOM     22  H   UNL     1       2.342   1.924  -2.443  0.00  0.00    +0.292 HD
ENDBRANCH  20  21
ENDBRANCH   4  11
BRANCH   3  23
ATOM     23  C   UNL     1       0.597  -1.874  -0.213  0.00  0.00    +0.339 C 
ATOM     24  O   UNL     1      -0.565  -2.228  -0.297  0.00  0.00    -0.245 OA
BRANCH  23  25
ATOM     25  O   UNL     1       1.584  -2.793  -0.217  0.00  0.00    -0.459 OA
BRANCH  25  26
ATOM     26  C   UNL     1       1.194  -4.164  -0.323  0.00  0.00    +0.171 C 
ATOM     27  C   UNL     1       1.132  -4.564  -1.798  0.00  0.00    +0.052 C 
ATOM     28  C   UNL     1       2.216  -5.043   0.401  0.00  0.00    +0.052 C 
ENDBRANCH  25  26
ENDBRANCH  23  25
ENDBRANCH   3  23
TORSDOF 5
