REMARK  Name = ZINC67442267
REMARK  11 active torsions:
REMARK  status: ('A' for Active; 'I' for Inactive)
REMARK    1  A    between atoms: C_1  and  C_2
REMARK    2  A    between atoms: C_2  and  C_3
REMARK    3  A    between atoms: C_3  and  C_5
REMARK    4  A    between atoms: C_3  and  N_6
REMARK    5  A    between atoms: C_7  and  N_11
REMARK    6  A    between atoms: C_12  and  C_14
REMARK    7  A    between atoms: C_14  and  C_16
REMARK    8  A    between atoms: C_14  and  N_17
REMARK    9  A    between atoms: N_17  and  C_18
REMARK   10  A    between atoms: N_17  and  C_19
REMARK   11  A    between atoms: C_19  and  C_20
REMARK                            x       y       z     vdW  Elec       q    Type
REMARK                         _______ _______ _______ _____ _____    ______ ____
ROOT
ATOM      1  C   UNL     1       5.717  -2.438   1.513  0.00  0.00    +0.140 C 
ATOM      2  C   UNL     1       5.878  -1.379   0.420  0.00  0.00    +0.034 C 
ENDROOT
BRANCH   1   4
ATOM      3  N   UNL     1       3.253  -2.364   1.721  0.00  0.00    -0.269 N 
ATOM      4  C   UNL     1       4.354  -3.072   1.401  0.00  0.00    +0.235 C 
ATOM      5  O   UNL     1       4.249  -4.220   1.024  0.00  0.00    -0.274 OA
ATOM      6  H   UNL     1       3.337  -1.446   2.023  0.00  0.00    +0.156 HD
BRANCH   3   8
ATOM      7  N   UNL     1       0.810  -2.360   1.903  0.00  0.00    -0.248 N 
ATOM      8  C   UNL     1       1.992  -2.951   1.617  0.00  0.00    +0.123 A 
ATOM      9  C   UNL     1       1.728  -4.223   1.210  0.00  0.00    +0.065 A 
ATOM     10  C   UNL     1       0.344  -4.406   1.251  0.00  0.00    +0.136 A 
ATOM     11  N   UNL     1      -0.206  -3.296   1.670  0.00  0.00    -0.178 NA
BRANCH   7  12
ATOM     12  C   UNL     1       0.625  -0.987   2.379  0.00  0.00    +0.106 C 
ATOM     13  C   UNL     1      -0.060  -1.009   3.748  0.00  0.00    +0.032 C 
BRANCH  12  15
ATOM     14  C   UNL     1      -0.337   1.249   1.817  0.00  0.00    +0.006 C 
ATOM     15  C   UNL     1      -0.246  -0.216   1.386  0.00  0.00    +0.023 C 
ENDBRANCH  12  15
ENDBRANCH   7  12
ENDBRANCH   3   8
ENDBRANCH   1   4
BRANCH   1  16
ATOM     16  N   UNL     1       6.752  -3.468   1.353  0.00  0.00    -0.289 NA
ATOM     17  C   UNL     1       8.067  -2.961   1.765  0.00  0.00    +0.106 C 
BRANCH  16  18
ATOM     18  C   UNL     1       6.788  -3.967  -0.028  0.00  0.00    +0.147 C 
BRANCH  18  19
ATOM     19  C   UNL     1       7.678  -5.181  -0.101  0.00  0.00    +0.093 A 
ATOM     20  N   UNL     1       7.341  -6.428   0.052  0.00  0.00    -0.243 NA
ATOM     21  C   UNL     1       8.237  -7.432  -0.037  0.00  0.00    +0.079 A 
ATOM     22  C   UNL     1       8.054  -8.824   0.099  0.00  0.00    +0.029 A 
ATOM     23  C   UNL     1       9.108  -9.676  -0.029  0.00  0.00    +0.002 A 
ATOM     24  C   UNL     1      10.389  -9.214  -0.296  0.00  0.00    +0.001 A 
ATOM     25  C   UNL     1      10.608  -7.856  -0.436  0.00  0.00    +0.017 A 
ATOM     26  C   UNL     1       9.551  -6.987  -0.309  0.00  0.00    +0.039 A 
ATOM     27  S   UNL     1       9.333  -5.230  -0.405  0.00  0.00    -0.071 S 
ENDBRANCH  18  19
ENDBRANCH  16  18
ENDBRANCH   1  16
TORSDOF 7
