REMARK  Name = ZINC22391106
REMARK  10 active torsions:
REMARK  status: ('A' for Active; 'I' for Inactive)
REMARK    1  A    between atoms: C_1  and  C_2
REMARK    2  A    between atoms: C_7  and  N_8
REMARK    3  A    between atoms: C_9  and  C_11
REMARK    4  A    between atoms: C_11  and  N_12
REMARK    5  A    between atoms: N_12  and  C_13
REMARK    6  A    between atoms: N_12  and  S_22
REMARK    7  A    between atoms: C_18  and  C_19
REMARK    8  A    between atoms: C_19  and  C_20
REMARK    9  A    between atoms: C_19  and  C_21
REMARK   10  A    between atoms: S_22  and  C_25
REMARK                            x       y       z     vdW  Elec       q    Type
REMARK                         _______ _______ _______ _____ _____    ______ ____
ROOT
ATOM      1  N   UNL     1       1.463  -0.700  -1.410  0.00  0.00    -0.199 N 
ENDROOT
BRANCH   1   2
ATOM      2  C   UNL     1       0.549  -0.762  -2.464  0.00  0.00    +0.055 A 
ATOM      3  C   UNL     1      -0.052  -1.970  -2.793  0.00  0.00    +0.025 A 
ATOM      4  C   UNL     1      -0.959  -2.028  -3.833  0.00  0.00    +0.002 A 
ATOM      5  C   UNL     1      -1.260  -0.886  -4.554  0.00  0.00    +0.000 A 
ATOM      6  C   UNL     1      -0.660   0.317  -4.232  0.00  0.00    +0.006 A 
ATOM      7  C   UNL     1       0.244   0.382  -3.190  0.00  0.00    -0.022 A 
BRANCH   7   8
ATOM      8  C   UNL     1       0.899   1.694  -2.840  0.00  0.00    +0.015 C 
ATOM      9  C   UNL     1       1.807   2.133  -3.991  0.00  0.00    +0.012 C 
ATOM     10  C   UNL     1      -0.178   2.755  -2.607  0.00  0.00    +0.012 C 
ENDBRANCH   7   8
ENDBRANCH   1   2
BRANCH   1  11
ATOM     11  S   UNL     1       0.925  -0.472   0.140  0.00  0.00    +0.043 S 
ATOM     12  O   UNL     1       1.911  -1.084   0.960  0.00  0.00    -0.155 OA
ATOM     13  O   UNL     1      -0.412  -0.953   0.134  0.00  0.00    -0.155 OA
ATOM     14  C   UNL     1       0.941   1.326   0.380  0.00  0.00    +0.218 C 
ENDBRANCH   1  11
BRANCH   1  15
ATOM     15  C   UNL     1       2.897  -0.835  -1.674  0.00  0.00    +0.227 C 
BRANCH  15  17
ATOM     16  N   UNL     1       4.541  -2.664  -1.946  0.00  0.00    -0.284 N 
ATOM     17  C   UNL     1       3.265  -2.296  -1.715  0.00  0.00    +0.236 C 
ATOM     18  O   UNL     1       2.412  -3.141  -1.540  0.00  0.00    -0.274 OA
ATOM     19  H   UNL     1       5.295  -1.904  -2.196  0.00  0.00    +0.155 HD
BRANCH  16  26
ATOM     20  C   UNL     1       6.813  -3.530  -3.423  0.00  0.00    +0.046 C 
ATOM     21  C   UNL     1       6.007  -4.478  -2.572  0.00  0.00    -0.028 A 
ATOM     22  C   UNL     1       6.367  -5.809  -2.489  0.00  0.00    +0.019 A 
ATOM     23  C   UNL     1       5.625  -6.680  -1.713  0.00  0.00    +0.014 A 
ATOM     24  C   UNL     1       4.523  -6.221  -1.013  0.00  0.00    +0.016 A 
ATOM     25  C   UNL     1       4.162  -4.890  -1.089  0.00  0.00    +0.024 A 
ATOM     26  C   UNL     1       4.905  -4.013  -1.867  0.00  0.00    +0.036 A 
ATOM     27  I   UNL     1       6.170  -8.700  -1.596  0.00  0.00    -0.044 I 
ENDBRANCH  16  26
ENDBRANCH  15  17
ENDBRANCH   1  15
TORSDOF 6
