REMARK  Name = ZINC09590870
REMARK  5 active torsions:
REMARK  status: ('A' for Active; 'I' for Inactive)
REMARK    1  A    between atoms: C_1  and  C_2
REMARK    2  A    between atoms: C_5  and  C_7
REMARK    3  A    between atoms: C_20  and  C_22
REMARK    4  A    between atoms: C_25  and  S_28
REMARK    5  A    between atoms: S_28  and  C_29
REMARK                            x       y       z     vdW  Elec       q    Type
REMARK                         _______ _______ _______ _____ _____    ______ ____
ROOT
ATOM      1  C   UNL     1      -4.131   5.585   1.614  0.00  0.00    +0.103 C 
ATOM      2  N   UNL     1      -3.353   6.539   1.209  0.00  0.00    -0.181 NA
ATOM      3  N   UNL     1      -2.389   6.120   0.312  0.00  0.00    -0.205 N 
ATOM      4  C   UNL     1      -2.690   4.731  -0.102  0.00  0.00    +0.136 C 
ATOM      5  C   UNL     1      -3.745   4.293   0.923  0.00  0.00    +0.090 C 
ATOM      6  C   UNL     1      -1.407   3.956   0.045  0.00  0.00    +0.018 A 
ATOM      7  C   UNL     1      -1.449   2.574   0.046  0.00  0.00    +0.024 A 
ATOM      8  C   UNL     1      -0.283   1.840   0.159  0.00  0.00    +0.018 A 
ATOM      9  C   UNL     1       0.932   2.496   0.263  0.00  0.00    +0.019 A 
ATOM     10  C   UNL     1       0.977   3.873   0.267  0.00  0.00    +0.047 A 
ATOM     11  C   UNL     1      -0.196   4.622   0.160  0.00  0.00    +0.129 A 
ATOM     12  O   UNL     1      -0.076   5.973   0.194  0.00  0.00    -0.465 OA
ATOM     13  C   UNL     1      -1.184   6.803  -0.175  0.00  0.00    +0.310 C 
ATOM     14 BR   UNL     1      -0.346  -0.050   0.164  0.00  0.00    -0.050 Br
ENDROOT
BRANCH   1  19
ATOM     15  C   UNL     1      -7.984   4.475   4.619  0.00  0.00    +0.086 C 
ATOM     16  C   UNL     1      -6.907   5.254   3.909  0.00  0.00    +0.103 A 
ATOM     17  C   UNL     1      -6.659   6.570   4.061  0.00  0.00    +0.045 A 
ATOM     18  C   UNL     1      -5.574   6.887   3.223  0.00  0.00    +0.051 A 
ATOM     19  C   UNL     1      -5.218   5.733   2.589  0.00  0.00    +0.151 A 
ATOM     20  O   UNL     1      -6.034   4.751   3.019  0.00  0.00    -0.459 OA
ENDBRANCH   1  19
BRANCH  13  21
ATOM     21  C   UNL     1      -1.057   8.156   0.476  0.00  0.00    +0.013 A 
ATOM     22  C   UNL     1      -0.894   9.285  -0.306  0.00  0.00    +0.010 A 
ATOM     23  C   UNL     1      -0.783  10.527   0.286  0.00  0.00    +0.015 A 
ATOM     24  C   UNL     1      -0.823  10.641   1.671  0.00  0.00    +0.008 A 
ATOM     25  C   UNL     1      -0.981   9.504   2.454  0.00  0.00    +0.015 A 
ATOM     26  C   UNL     1      -1.097   8.265   1.854  0.00  0.00    +0.010 A 
BRANCH  24  27
ATOM     27  S   UNL     1      -0.673  12.223   2.432  0.00  0.00    -0.129 S 
ATOM     28  C   UNL     1      -0.491  13.367   1.035  0.00  0.00    +0.090 C 
ENDBRANCH  24  27
ENDBRANCH  13  21
TORSDOF 3
