REMARK  Name = ZINC39914485
REMARK  16 active torsions:
REMARK  status: ('A' for Active; 'I' for Inactive)
REMARK    1  A    between atoms: C_1  and  C_2
REMARK    2  A    between atoms: C_2  and  C_3
REMARK    3  A    between atoms: C_3  and  C_4
REMARK    4  A    between atoms: C_4  and  C_5
REMARK    5  A    between atoms: C_5  and  N_6
REMARK    6  A    between atoms: C_7  and  C_26
REMARK    7  A    between atoms: C_10  and  C_17
REMARK    8  A    between atoms: C_20  and  C_24
REMARK    9  A    between atoms: C_22  and  O_23
REMARK   10  A    between atoms: C_29  and  O_34
REMARK   11  A    between atoms: C_30  and  O_32
REMARK   12  A    between atoms: O_32  and  C_33
REMARK   13  A    between atoms: O_34  and  C_35
REMARK   14  A    between atoms: C_35  and  C_36
REMARK   15  A    between atoms: C_36  and  C_37
REMARK   16  A    between atoms: C_36  and  C_38
REMARK                            x       y       z     vdW  Elec       q    Type
REMARK                         _______ _______ _______ _____ _____    ______ ____
ROOT
ATOM      1  N   UNL     1       0.985  -4.299  -1.623  0.00  0.00    -0.285 N 
ATOM      2  C   UNL     1       2.263  -4.971  -1.348  0.00  0.00    +0.141 C 
ATOM      3  C   UNL     1       2.130  -6.362  -1.904  0.00  0.00    +0.035 A 
ATOM      4  C   UNL     1       2.726  -7.610  -2.113  0.00  0.00    +0.102 A 
ATOM      5  N   UNL     1       1.848  -8.367  -2.741  0.00  0.00    -0.173 NA
ATOM      6  N   UNL     1       0.757  -7.720  -2.950  0.00  0.00    -0.272 N 
ATOM      7  H   UNL     1      -0.027  -8.078  -3.396  0.00  0.00    +0.189 HD
ATOM      8  C   UNL     1       0.864  -6.453  -2.450  0.00  0.00    +0.126 A 
ATOM      9  C   UNL     1       0.179  -5.170  -2.257  0.00  0.00    +0.265 C 
ATOM     10  O   UNL     1      -0.955  -4.927  -2.622  0.00  0.00    -0.268 OA
ENDROOT
BRANCH   4  11
ATOM     11  C   UNL     1       4.096  -8.009  -1.703  0.00  0.00    +0.045 A 
ATOM     12  C   UNL     1       4.962  -7.070  -1.150  0.00  0.00    +0.034 A 
ATOM     13  C   UNL     1       6.235  -7.446  -0.770  0.00  0.00    +0.045 A 
ATOM     14  C   UNL     1       6.654  -8.756  -0.937  0.00  0.00    -0.029 A 
ATOM     15  C   UNL     1       5.801  -9.695  -1.484  0.00  0.00    +0.050 A 
ATOM     16  C   UNL     1       4.519  -9.331  -1.865  0.00  0.00    +0.126 A 
ATOM     17  C   UNL     1       8.045  -9.158  -0.520  0.00  0.00    +0.045 C 
ATOM     18 CL   UNL     1       7.315  -6.274  -0.081  0.00  0.00    -0.083 Cl
BRANCH  16  19
ATOM     19  O   UNL     1       3.678 -10.256  -2.398  0.00  0.00    -0.506 OA
ATOM     20  H   UNL     1       3.734 -10.329  -3.361  0.00  0.00    +0.292 HD
ENDBRANCH  16  19
ENDBRANCH   4  11
BRANCH   2  21
ATOM     21  C   UNL     1       2.510  -5.025   0.137  0.00  0.00    -0.019 A 
ATOM     22  C   UNL     1       3.743  -4.659   0.645  0.00  0.00    +0.009 A 
ATOM     23  C   UNL     1       3.975  -4.707   2.007  0.00  0.00    +0.050 A 
ATOM     24  C   UNL     1       2.972  -5.123   2.866  0.00  0.00    +0.162 A 
ATOM     25  C   UNL     1       1.731  -5.492   2.356  0.00  0.00    +0.162 A 
ATOM     26  C   UNL     1       1.503  -5.436   0.990  0.00  0.00    +0.055 A 
BRANCH  25  27
ATOM     27  O   UNL     1       0.742  -5.901   3.195  0.00  0.00    -0.491 OA
ATOM     28  C   UNL     1      -0.464  -6.377   2.595  0.00  0.00    +0.277 C 
ENDBRANCH  25  27
BRANCH  24  29
ATOM     29  O   UNL     1       3.199  -5.172   4.206  0.00  0.00    -0.488 OA
BRANCH  29  30
ATOM     30  C   UNL     1       4.496  -4.779   4.659  0.00  0.00    +0.232 C 
BRANCH  30  31
ATOM     31  C   UNL     1       4.562  -4.899   6.183  0.00  0.00    +0.020 C 
ATOM     32  C   UNL     1       4.420  -6.368   6.586  0.00  0.00    +0.010 C 
ATOM     33  C   UNL     1       5.906  -4.362   6.679  0.00  0.00    +0.010 C 
ENDBRANCH  30  31
ENDBRANCH  29  30
ENDBRANCH  24  29
ENDBRANCH   2  21
BRANCH   1  34
ATOM     34  C   UNL     1       0.645  -2.921  -1.263  0.00  0.00    +0.109 C 
BRANCH  34  35
ATOM     35  C   UNL     1       0.020  -2.897   0.133  0.00  0.00    +0.019 C 
BRANCH  35  36
ATOM     36  C   UNL     1      -0.335  -1.457   0.509  0.00  0.00    +0.001 C 
BRANCH  36  38
ATOM     37  C   UNL     1      -1.315   0.006   2.281  0.00  0.00    +0.004 C 
ATOM     38  C   UNL     1      -0.960  -1.434   1.905  0.00  0.00    -0.003 C 
ENDBRANCH  36  38
ENDBRANCH  35  36
ENDBRANCH  34  35
ENDBRANCH   1  34
TORSDOF 11
