REMARK  Name = ZINC38547556
REMARK  11 active torsions:
REMARK  status: ('A' for Active; 'I' for Inactive)
REMARK    1  A    between atoms: C_1  and  C_2
REMARK    2  A    between atoms: C_6  and  N_8
REMARK    3  A    between atoms: N_8  and  C_9
REMARK    4  A    between atoms: C_9  and  C_11
REMARK    5  A    between atoms: C_9  and  C_19
REMARK    6  A    between atoms: C_16  and  O_17
REMARK    7  A    between atoms: O_17  and  C_18
REMARK    8  A    between atoms: C_20  and  C_33
REMARK    9  A    between atoms: C_21  and  C_32
REMARK   10  A    between atoms: C_23  and  N_24
REMARK   11  A    between atoms: C_25  and  C_27
REMARK                            x       y       z     vdW  Elec       q    Type
REMARK                         _______ _______ _______ _____ _____    ______ ____
ROOT
ATOM      1  C   UNL     1       0.000  -4.506   2.406  0.00  0.00    +0.138 C 
ENDROOT
BRANCH   1   2
ATOM      2  C   UNL     1       0.730  -4.622   3.719  0.00  0.00    +0.009 A 
ATOM      3  C   UNL     1       1.849  -5.426   3.834  0.00  0.00    -0.033 A 
ATOM      4  C   UNL     1       2.482  -5.507   5.029  0.00  0.00    -0.008 A 
ATOM      5  S   UNL     1       1.493  -4.426   6.049  0.00  0.00    -0.078 S 
ATOM      6  C   UNL     1       0.303  -3.932   4.813  0.00  0.00    +0.078 A 
ATOM      7  C   UNL     1       3.705  -6.304   5.402  0.00  0.00    +0.052 C 
ATOM      8  C   UNL     1       2.358  -6.202   2.647  0.00  0.00    +0.045 C 
BRANCH   6   9
ATOM      9  N   UNL     1      -0.785  -3.065   4.937  0.00  0.00    -0.273 N 
ATOM     10  C   UNL     1      -0.987  -2.398   6.090  0.00  0.00    +0.284 C 
ATOM     11  O   UNL     1      -0.222  -2.551   7.024  0.00  0.00    -0.266 OA
ATOM     12  H   UNL     1      -1.395  -2.943   4.193  0.00  0.00    +0.156 HD
BRANCH  10  13
ATOM     13  C   UNL     1      -2.130  -1.488   6.220  0.00  0.00    +0.189 A 
ATOM     14  C   UNL     1      -2.446  -0.750   7.325  0.00  0.00    +0.054 A 
ATOM     15  C   UNL     1      -3.607  -0.027   7.008  0.00  0.00    +0.042 A 
ATOM     16  C   UNL     1      -3.944  -0.352   5.740  0.00  0.00    +0.196 A 
ATOM     17  O   UNL     1      -3.049  -1.228   5.267  0.00  0.00    -0.458 OA
ENDBRANCH  10  13
ENDBRANCH   6   9
ENDBRANCH   1   2
BRANCH   1  18
ATOM     18  C   UNL     1      -1.322  -5.224   2.501  0.00  0.00    +0.019 A 
ATOM     19  C   UNL     1      -2.483  -4.507   2.713  0.00  0.00    +0.009 A 
ATOM     20  C   UNL     1      -3.696  -5.164   2.801  0.00  0.00    +0.001 A 
ATOM     21  C   UNL     1      -3.750  -6.540   2.676  0.00  0.00    +0.004 A 
ATOM     22  C   UNL     1      -2.592  -7.261   2.464  0.00  0.00    +0.046 A 
ATOM     23  C   UNL     1      -1.374  -6.604   2.370  0.00  0.00    +0.125 A 
BRANCH  23  24
ATOM     24  O   UNL     1      -0.233  -7.311   2.156  0.00  0.00    -0.495 OA
ATOM     25  C   UNL     1      -0.362  -8.728   2.031  0.00  0.00    +0.277 C 
ENDBRANCH  23  24
ENDBRANCH   1  18
BRANCH   1  26
ATOM     26  N   UNL     1      -0.232  -3.093   2.099  0.00  0.00    -0.319 N 
ATOM     27  H   UNL     1      -0.193  -2.430   2.806  0.00  0.00    +0.148 HD
BRANCH  26  33
ATOM     28  C   UNL     1      -1.213   0.459  -0.958  0.00  0.00    +0.063 C 
ATOM     29  C   UNL     1      -0.982  -1.008  -0.702  0.00  0.00    +0.014 A 
ATOM     30  C   UNL     1      -1.051  -1.903  -1.752  0.00  0.00    +0.021 A 
ATOM     31  C   UNL     1      -0.838  -3.253  -1.510  0.00  0.00    +0.005 A 
ATOM     32  C   UNL     1      -0.562  -3.657  -0.216  0.00  0.00    +0.041 A 
ATOM     33  C   UNL     1      -0.508  -2.701   0.794  0.00  0.00    +0.097 A 
ATOM     34  N   UNL     1      -0.712  -1.421   0.522  0.00  0.00    -0.347 N 
ATOM     35  H   UNL     1      -0.665  -0.772   1.241  0.00  0.00    +0.167 HD
ENDBRANCH  26  33
ENDBRANCH   1  26
TORSDOF 7
