REMARK  Name = ZINC08590196
REMARK  10 active torsions:
REMARK  status: ('A' for Active; 'I' for Inactive)
REMARK    1  A    between atoms: C_1  and  C_2
REMARK    2  A    between atoms: C_2  and  O_3
REMARK    3  A    between atoms: O_3  and  C_4
REMARK    4  A    between atoms: C_4  and  C_6
REMARK    5  A    between atoms: C_10  and  N_12
REMARK    6  A    between atoms: N_15  and  C_16
REMARK    7  A    between atoms: C_16  and  C_18
REMARK    8  A    between atoms: C_16  and  C_19
REMARK    9  A    between atoms: C_23  and  N_24
REMARK   10  A    between atoms: N_30  and  C_33
REMARK                            x       y       z     vdW  Elec       q    Type
REMARK                         _______ _______ _______ _____ _____    ______ ____
ROOT
ATOM      1  C   UNL     1      -7.059  -8.106   0.077  0.00  0.00    +0.104 C 
ATOM      2  C   UNL     1      -7.276  -7.812   1.562  0.00  0.00    +0.033 C 
ENDROOT
BRANCH   1   3
ATOM      3  C   UNL     1      -7.109  -9.595  -0.153  0.00  0.00    +0.007 A 
ATOM      4  C   UNL     1      -6.056 -10.402   0.267  0.00  0.00    -0.034 A 
ATOM      5  C   UNL     1      -6.171 -11.737   0.023  0.00  0.00    -0.021 A 
ATOM      6  S   UNL     1      -7.740 -11.885  -0.785  0.00  0.00    -0.077 S 
ATOM      7  C   UNL     1      -8.186 -10.155  -0.766  0.00  0.00    +0.090 A 
ATOM      8  C   UNL     1      -5.180 -12.799   0.369  0.00  0.00    -0.036 C 
ATOM      9  N   UNL     1      -3.894 -12.148   0.682  0.00  0.00    +0.381 N 
ATOM     10  C   UNL     1      -4.116 -11.067   1.651  0.00  0.00    -0.074 C 
ATOM     11  C   UNL     1      -4.807  -9.880   0.974  0.00  0.00    +0.018 C 
ATOM     12  C   UNL     1      -2.971 -13.137   1.254  0.00  0.00    -0.096 C 
ATOM     13  H   UNL     1      -3.496 -11.766  -0.163  0.00  0.00    -0.082 HD
BRANCH   7  14
ATOM     14  N   UNL     1      -9.342  -9.537  -1.257  0.00  0.00    -0.317 N 
ATOM     15  C   UNL     1      -9.903  -9.755  -2.482  0.00  0.00    +0.092 A 
ATOM     16  C   UNL     1     -11.001  -8.979  -2.588  0.00  0.00    +0.019 A 
ATOM     17  C   UNL     1     -11.124  -8.255  -1.385  0.00  0.00    +0.019 A 
ATOM     18  C   UNL     1     -10.100  -8.620  -0.587  0.00  0.00    +0.092 A 
ENDBRANCH   7  14
ENDBRANCH   1   3
BRANCH   1  22
ATOM     19  N   UNL     1      -4.386  -5.801  -0.952  0.00  0.00    -0.269 N 
ATOM     20  C   UNL     1      -5.588  -6.274  -0.571  0.00  0.00    +0.304 C 
ATOM     21  O   UNL     1      -6.527  -5.513  -0.437  0.00  0.00    -0.252 OA
ATOM     22  N   UNL     1      -5.751  -7.592  -0.338  0.00  0.00    -0.292 N 
ATOM     23  H   UNL     1      -3.657  -6.416  -1.131  0.00  0.00    +0.156 HD
ATOM     24  H   UNL     1      -5.003  -8.199  -0.444  0.00  0.00    +0.151 HD
BRANCH  19  29
ATOM     25  C   UNL     1      -4.656  -2.166  -0.398  0.00  0.00    +0.061 A 
ATOM     26  C   UNL     1      -3.783  -1.690  -1.379  0.00  0.00    +0.015 A 
ATOM     27  C   UNL     1      -3.122  -2.578  -2.204  0.00  0.00    +0.003 A 
ATOM     28  C   UNL     1      -3.321  -3.939  -2.063  0.00  0.00    +0.023 A 
ATOM     29  C   UNL     1      -4.188  -4.422  -1.090  0.00  0.00    +0.036 A 
ATOM     30  C   UNL     1      -4.852  -3.539  -0.253  0.00  0.00    +0.038 A 
BRANCH  25  31
ATOM     31  C   UNL     1      -5.364  -1.218   0.486  0.00  0.00    +0.339 C 
ATOM     32  O   UNL     1      -6.119  -1.634   1.342  0.00  0.00    -0.245 OA
BRANCH  31  33
ATOM     33  O   UNL     1      -5.173   0.108   0.344  0.00  0.00    -0.461 OA
BRANCH  33  35
ATOM     34  C   UNL     1      -5.547   2.424   0.922  0.00  0.00    +0.048 C 
ATOM     35  C   UNL     1      -5.890   0.966   1.233  0.00  0.00    +0.229 C 
ENDBRANCH  33  35
ENDBRANCH  31  33
ENDBRANCH  25  31
ENDBRANCH  19  29
ENDBRANCH   1  22
TORSDOF 7
