REMARK  Name = ZINC14474560
REMARK  7 active torsions:
REMARK  status: ('A' for Active; 'I' for Inactive)
REMARK    1  A    between atoms: C_1  and  C_2
REMARK    2  A    between atoms: C_2  and  C_3
REMARK    3  A    between atoms: C_2  and  C_4
REMARK    4  A    between atoms: C_2  and  C_5
REMARK    5  A    between atoms: C_8  and  N_11
REMARK    6  A    between atoms: C_12  and  C_14
REMARK    7  A    between atoms: C_14  and  N_15
REMARK                            x       y       z     vdW  Elec       q    Type
REMARK                         _______ _______ _______ _____ _____    ______ ____
ROOT
ATOM      1  N   UNL     1       1.899  -4.167  -7.422  0.00  0.00    -0.215 N 
ATOM      2  C   UNL     1       1.101  -3.777  -8.440  0.00  0.00    +0.251 C 
ATOM      3  O   UNL     1       0.981  -2.660  -8.895  0.00  0.00    -0.272 OA
ATOM      4  C   UNL     1       0.390  -5.028  -8.887  0.00  0.00    +0.138 C 
ATOM      5  C   UNL     1       0.687  -5.340 -10.359  0.00  0.00    +0.045 C 
ATOM      6  C   UNL     1      -0.633  -5.995 -10.825  0.00  0.00    +0.038 C 
ATOM      7  C   UNL     1      -1.698  -5.445  -9.900  0.00  0.00    -0.042 A 
ATOM      8  C   UNL     1      -1.104  -4.887  -8.780  0.00  0.00    -0.012 A 
ATOM      9  C   UNL     1      -1.895  -4.322  -7.794  0.00  0.00    +0.006 A 
ATOM     10  C   UNL     1      -3.270  -4.311  -7.923  0.00  0.00    +0.000 A 
ATOM     11  C   UNL     1      -3.862  -4.868  -9.040  0.00  0.00    +0.000 A 
ATOM     12  C   UNL     1      -3.076  -5.433 -10.027  0.00  0.00    +0.004 A 
ATOM     13  N   UNL     1       0.902  -6.078  -8.006  0.00  0.00    -0.281 N 
ATOM     14  C   UNL     1       1.787  -5.480  -7.183  0.00  0.00    +0.310 C 
ATOM     15  O   UNL     1       2.409  -6.066  -6.319  0.00  0.00    -0.252 OA
ATOM     16  H   UNL     1       0.656  -7.016  -8.015  0.00  0.00    +0.152 HD
ENDROOT
BRANCH   1  17
ATOM     17  C   UNL     1       2.784  -3.267  -6.678  0.00  0.00    +0.214 C 
BRANCH  17  19
ATOM     18  N   UNL     1       2.658  -1.834  -4.665  0.00  0.00    -0.284 N 
ATOM     19  C   UNL     1       2.039  -2.694  -5.499  0.00  0.00    +0.235 C 
ATOM     20  O   UNL     1       0.884  -3.006  -5.301  0.00  0.00    -0.274 OA
ATOM     21  H   UNL     1       3.555  -1.524  -4.866  0.00  0.00    +0.155 HD
BRANCH  18  25
ATOM     22  C   UNL     1       0.715  -0.505  -1.228  0.00  0.00    -0.042 A 
ATOM     23  C   UNL     1       1.583   0.337  -1.899  0.00  0.00    +0.006 A 
ATOM     24  C   UNL     1       2.232  -0.102  -3.036  0.00  0.00    +0.023 A 
ATOM     25  C   UNL     1       2.005  -1.387  -3.511  0.00  0.00    +0.033 A 
ATOM     26  C   UNL     1       1.129  -2.228  -2.838  0.00  0.00    +0.023 A 
ATOM     27  C   UNL     1       0.486  -1.785  -1.698  0.00  0.00    +0.006 A 
BRANCH  22  29
ATOM     28  C   UNL     1       0.388  -0.925   1.194  0.00  0.00    +0.015 C 
ATOM     29  C   UNL     1       0.013  -0.024   0.016  0.00  0.00    -0.013 C 
ATOM     30  C   UNL     1      -1.501  -0.074  -0.202  0.00  0.00    +0.015 C 
ATOM     31  C   UNL     1       0.438   1.414   0.318  0.00  0.00    +0.015 C 
ENDBRANCH  22  29
ENDBRANCH  18  25
ENDBRANCH  17  19
ENDBRANCH   1  17
TORSDOF 4
