REMARK  Name = ZINC61887609
REMARK  7 active torsions:
REMARK  status: ('A' for Active; 'I' for Inactive)
REMARK    1  A    between atoms: C_1  and  C_2
REMARK    2  A    between atoms: C_4  and  C_23
REMARK    3  A    between atoms: C_5  and  C_9
REMARK    4  A    between atoms: C_6  and  C_8
REMARK    5  A    between atoms: N_11  and  C_12
REMARK    6  A    between atoms: C_17  and  C_19
REMARK    7  A    between atoms: N_20  and  O_21
REMARK                            x       y       z     vdW  Elec       q    Type
REMARK                         _______ _______ _______ _____ _____    ______ ____
ROOT
ATOM      1  C   UNL     1       0.059  -4.251  -0.021  0.00  0.00    +0.245 C 
ATOM      2  O   UNL     1       1.120  -4.845  -0.030  0.00  0.00    -0.270 OA
ATOM      3  N   UNL     1      -1.099  -4.941  -0.019  0.00  0.00    -0.308 N 
ATOM      4  H   UNL     1      -1.945  -4.467  -0.013  0.00  0.00    +0.149 HD
ENDROOT
BRANCH   1   9
ATOM      5  C   UNL     1      -0.018   1.503   0.010  0.00  0.00    +0.044 C 
ATOM      6  C   UNL     1       0.002  -0.004   0.002  0.00  0.00    -0.050 A 
ATOM      7  C   UNL     1       0.006  -0.686  -1.202  0.00  0.00    +0.007 A 
ATOM      8  C   UNL     1       0.024  -2.066  -1.216  0.00  0.00    -0.038 A 
ATOM      9  C   UNL     1       0.040  -2.773  -0.013  0.00  0.00    +0.043 A 
ATOM     10  C   UNL     1       0.036  -2.079   1.198  0.00  0.00    -0.038 A 
ATOM     11  C   UNL     1       0.023  -0.699   1.198  0.00  0.00    +0.007 A 
ATOM     12  C   UNL     1       0.052  -2.834   2.501  0.00  0.00    +0.044 C 
ATOM     13  C   UNL     1       0.028  -2.807  -2.528  0.00  0.00    +0.044 C 
ENDBRANCH   1   9
BRANCH   3  14
ATOM     14  C   UNL     1      -1.080  -6.405  -0.027  0.00  0.00    +0.083 C 
ATOM     15  C   UNL     1      -1.006  -6.924  -1.474  0.00  0.00    +0.023 C 
ATOM     16  C   UNL     1      -2.276  -7.770  -1.704  0.00  0.00    +0.003 C 
ATOM     17  C   UNL     1      -2.702  -8.209  -0.281  0.00  0.00    +0.013 C 
ATOM     18  C   UNL     1      -2.390  -6.955   0.573  0.00  0.00    +0.076 C 
BRANCH  18  19
ATOM     19  C   UNL     1      -2.190  -7.335   2.017  0.00  0.00    +0.136 C 
ATOM     20  N   UNL     1      -1.012  -7.645   2.446  0.00  0.00    -0.076 NA
ATOM     21  N   UNL     1      -3.264  -7.352   2.880  0.00  0.00    -0.344 N 
ATOM     22  H   UNL     1      -4.148  -7.119   2.558  0.00  0.00    +0.144 HD
ATOM     23  H   UNL     1      -3.135  -7.596   3.810  0.00  0.00    +0.144 HD
BRANCH  20  24
ATOM     24  O   UNL     1      -0.824  -8.003   3.803  0.00  0.00    -0.408 OA
ATOM     25  H   UNL     1       0.091  -8.219   4.030  0.00  0.00    +0.328 HD
ENDBRANCH  20  24
ENDBRANCH  18  19
ENDBRANCH   3  14
TORSDOF 4
