REMARK  Name = ZINC38847512
REMARK  8 active torsions:
REMARK  status: ('A' for Active; 'I' for Inactive)
REMARK    1  A    between atoms: C_1  and  C_2
REMARK    2  A    between atoms: N_11  and  C_12
REMARK    3  A    between atoms: C_12  and  C_13
REMARK    4  A    between atoms: C_13  and  C_14
REMARK    5  A    between atoms: C_14  and  N_15
REMARK    6  A    between atoms: C_20  and  C_22
REMARK    7  A    between atoms: C_25  and  C_28
REMARK    8  A    between atoms: C_28  and  C_30
REMARK                            x       y       z     vdW  Elec       q    Type
REMARK                         _______ _______ _______ _____ _____    ______ ____
ROOT
ATOM      1  C   UNL     1      -0.468   0.849  -1.473  0.00  0.00    +0.044 C 
ATOM      2  C   UNL     1      -0.581  -0.644  -1.302  0.00  0.00    -0.049 A 
ATOM      3  C   UNL     1      -0.516  -1.483  -2.406  0.00  0.00    +0.005 A 
ATOM      4  C   UNL     1      -0.616  -2.843  -2.278  0.00  0.00    +0.029 A 
ATOM      5  C   UNL     1      -0.789  -3.439  -1.008  0.00  0.00    +0.080 A 
ATOM      6  C   UNL     1      -0.850  -2.555   0.093  0.00  0.00    +0.041 A 
ATOM      7  C   UNL     1      -0.744  -1.193  -0.043  0.00  0.00    +0.020 A 
ATOM      8  S   UNL     1      -1.066  -3.668   1.461  0.00  0.00    -0.052 S 
ATOM      9  C   UNL     1      -1.062  -5.186   0.518  0.00  0.00    +0.168 A 
ATOM     10  N   UNL     1      -0.904  -4.752  -0.711  0.00  0.00    -0.224 NA
ATOM     11  N   UNL     1      -1.192  -6.488   0.969  0.00  0.00    -0.246 N 
ATOM     12  C   UNL     1      -1.244  -6.742   2.292  0.00  0.00    +0.252 C 
ATOM     13  O   UNL     1      -1.211  -5.824   3.088  0.00  0.00    -0.270 OA
ENDROOT
BRANCH  12  14
ATOM     14  C   UNL     1      -1.340  -8.137   2.774  0.00  0.00    +0.037 A 
ATOM     15  C   UNL     1      -0.790  -9.176   2.021  0.00  0.00    +0.014 A 
ATOM     16  C   UNL     1      -0.881 -10.475   2.470  0.00  0.00    +0.012 A 
ATOM     17  C   UNL     1      -1.522 -10.753   3.679  0.00  0.00    +0.022 A 
ATOM     18  C   UNL     1      -2.071  -9.714   4.433  0.00  0.00    +0.012 A 
ATOM     19  C   UNL     1      -1.976  -8.414   3.986  0.00  0.00    +0.014 A 
BRANCH  17  20
ATOM     20  C   UNL     1      -1.619 -12.148   4.161  0.00  0.00    +0.193 C 
ATOM     21  O   UNL     1      -0.833 -12.985   3.763  0.00  0.00    -0.287 OA
BRANCH  20  22
ATOM     22  C   UNL     1      -2.672 -12.524   5.127  0.00  0.00    +0.022 A 
ATOM     23  C   UNL     1      -3.832 -11.753   5.237  0.00  0.00    +0.012 A 
ATOM     24  C   UNL     1      -4.810 -12.110   6.141  0.00  0.00    +0.001 A 
ATOM     25  C   UNL     1      -4.645 -13.228   6.939  0.00  0.00    +0.000 A 
ATOM     26  C   UNL     1      -3.498 -13.997   6.836  0.00  0.00    +0.001 A 
ATOM     27  C   UNL     1      -2.514 -13.655   5.931  0.00  0.00    +0.012 A 
ENDBRANCH  20  22
ENDBRANCH  17  20
ENDBRANCH  12  14
BRANCH  11  28
ATOM     28  C   UNL     1      -1.274  -7.591   0.008  0.00  0.00    +0.117 C 
BRANCH  28  29
ATOM     29  C   UNL     1       0.100  -7.820  -0.624  0.00  0.00    +0.041 C 
BRANCH  29  30
ATOM     30  C   UNL     1       0.014  -8.972  -1.627  0.00  0.00    +0.124 C 
BRANCH  30  31
ATOM     31  N   UNL     1       1.330  -9.192  -2.233  0.00  0.00    -0.338 N 
ATOM     32  C   UNL     1       1.813  -8.593  -3.365  0.00  0.00    +0.104 A 
ATOM     33  C   UNL     1       3.054  -9.078  -3.562  0.00  0.00    +0.101 A 
ATOM     34  N   UNL     1       3.321  -9.948  -2.577  0.00  0.00    -0.352 N 
ATOM     35  C   UNL     1       2.295 -10.018  -1.774  0.00  0.00    +0.173 A 
ATOM     36  H   UNL     1       4.148 -10.445  -2.476  0.00  0.00    +0.166 HD
ENDBRANCH  30  31
ENDBRANCH  29  30
ENDBRANCH  28  29
ENDBRANCH  11  28
TORSDOF 7
