REMARK  Name = ZINC47029039
REMARK  9 active torsions:
REMARK  status: ('A' for Active; 'I' for Inactive)
REMARK    1  A    between atoms: C_1  and  C_2
REMARK    2  A    between atoms: C_2  and  C_4
REMARK    3  A    between atoms: C_2  and  N_10
REMARK    4  A    between atoms: C_4  and  N_5
REMARK    5  A    between atoms: N_13  and  N_14
REMARK    6  A    between atoms: C_15  and  C_17
REMARK    7  A    between atoms: N_26  and  C_28
REMARK    8  A    between atoms: C_28  and  C_29
REMARK    9  A    between atoms: C_28  and  C_30
REMARK                            x       y       z     vdW  Elec       q    Type
REMARK                         _______ _______ _______ _____ _____    ______ ____
ROOT
ATOM      1  N   UNL     1       2.001  -1.358  -3.419  0.00  0.00    -0.228 N 
ATOM      2  C   UNL     1       2.632  -1.792  -4.528  0.00  0.00    +0.281 C 
ATOM      3  O   UNL     1       2.017  -1.911  -5.570  0.00  0.00    -0.267 OA
ATOM      4  H   UNL     1       2.492  -1.263  -2.588  0.00  0.00    +0.173 HD
ENDROOT
BRANCH   2   5
ATOM      5  C   UNL     1       4.070  -2.124  -4.477  0.00  0.00    +0.155 A 
ATOM      6  C   UNL     1       4.769  -2.594  -5.684  0.00  0.00    +0.020 A 
ATOM      7  C   UNL     1       4.132  -2.749  -6.911  0.00  0.00    +0.011 A 
ATOM      8  C   UNL     1       4.855  -3.194  -7.997  0.00  0.00    +0.001 A 
ATOM      9  C   UNL     1       6.207  -3.489  -7.879  0.00  0.00    +0.001 A 
ATOM     10  C   UNL     1       6.857  -3.342  -6.672  0.00  0.00    +0.014 A 
ATOM     11  C   UNL     1       6.145  -2.894  -5.564  0.00  0.00    +0.050 A 
ATOM     12  C   UNL     1       6.759  -2.710  -4.242  0.00  0.00    +0.275 A 
ATOM     13  O   UNL     1       7.940  -2.948  -4.064  0.00  0.00    -0.266 OA
ATOM     14  N   UNL     1       5.984  -2.271  -3.229  0.00  0.00    -0.226 N 
ATOM     15  N   UNL     1       4.740  -1.999  -3.358  0.00  0.00    -0.163 NA
BRANCH  14  16
ATOM     16  C   UNL     1       6.600  -2.089  -1.912  0.00  0.00    +0.105 C 
ATOM     17  C   UNL     1       6.464  -0.627  -1.483  0.00  0.00    +0.032 C 
ATOM     18  C   UNL     1       5.898  -2.988  -0.892  0.00  0.00    +0.032 C 
ENDBRANCH  14  16
ENDBRANCH   2   5
BRANCH   1  22
ATOM     19  N   UNL     1       0.688  -0.476  -1.203  0.00  0.00    -0.294 N 
ATOM     20  C   UNL     1       0.006  -0.608  -2.358  0.00  0.00    +0.316 C 
ATOM     21  O   UNL     1      -1.178  -0.335  -2.400  0.00  0.00    -0.251 OA
ATOM     22  N   UNL     1       0.637  -1.043  -3.467  0.00  0.00    -0.218 N 
ATOM     23  H   UNL     1       1.632  -0.695  -1.170  0.00  0.00    +0.151 HD
ATOM     24  H   UNL     1       0.146  -1.137  -4.299  0.00  0.00    +0.174 HD
BRANCH  19  26
ATOM     25  C   UNL     1      -0.019   1.526   0.010  0.00  0.00    +0.029 C 
ATOM     26  C   UNL     1       0.002  -0.004   0.002  0.00  0.00    +0.091 C 
BRANCH  26  27
ATOM     27  C   UNL     1       0.742  -0.511   1.242  0.00  0.00    +0.144 C 
BRANCH  27  28
ATOM     28  N   UNL     1       0.659  -1.972   1.296  0.00  0.00    -0.337 N 
ATOM     29  C   UNL     1      -0.320  -2.708   1.907  0.00  0.00    +0.104 A 
ATOM     30  C   UNL     1      -0.010  -4.005   1.716  0.00  0.00    +0.101 A 
ATOM     31  N   UNL     1       1.127  -4.059   1.008  0.00  0.00    -0.352 N 
ATOM     32  C   UNL     1       1.531  -2.846   0.748  0.00  0.00    +0.173 A 
ATOM     33  H   UNL     1       1.577  -4.872   0.729  0.00  0.00    +0.166 HD
ENDBRANCH  27  28
ENDBRANCH  26  27
ENDBRANCH  19  26
ENDBRANCH   1  22
TORSDOF 6
