REMARK  Name = ZINC24718299
REMARK  9 active torsions:
REMARK  status: ('A' for Active; 'I' for Inactive)
REMARK    1  A    between atoms: C_1  and  O_2
REMARK    2  A    between atoms: O_2  and  C_3
REMARK    3  A    between atoms: C_6  and  C_11
REMARK    4  A    between atoms: C_8  and  O_9
REMARK    5  A    between atoms: O_9  and  C_10
REMARK    6  A    between atoms: C_12  and  C_35
REMARK    7  A    between atoms: C_18  and  C_25
REMARK    8  A    between atoms: C_19  and  C_23
REMARK    9  A    between atoms: C_20  and  N_22
REMARK                            x       y       z     vdW  Elec       q    Type
REMARK                         _______ _______ _______ _____ _____    ______ ____
ROOT
ATOM      1  C   UNL     1       0.210   8.367   0.045  0.00  0.00    +0.097 A 
ATOM      2  C   UNL     1      -1.085   7.815   0.115  0.00  0.00    +0.142 A 
ATOM      3  C   UNL     1      -1.233   6.413   0.106  0.00  0.00    +0.278 A 
ATOM      4  O   UNL     1      -2.344   5.915   0.166  0.00  0.00    -0.266 OA
ATOM      5  N   UNL     1      -0.126   5.612   0.031  0.00  0.00    -0.237 N 
ATOM      6  C   UNL     1      -0.155   4.217   0.017  0.00  0.00    +0.159 A 
ATOM      7  C   UNL     1       1.076   3.559  -0.063  0.00  0.00    +0.068 A 
ATOM      8  C   UNL     1       1.180   2.178  -0.086  0.00  0.00    +0.020 A 
ATOM      9  C   UNL     1      -0.019   1.428  -0.025  0.00  0.00    +0.100 A 
ATOM     10  C   UNL     1      -1.229   2.139   0.048  0.00  0.00    +0.137 A 
ATOM     11  N   UNL     1      -1.261   3.453   0.073  0.00  0.00    -0.212 NA
ATOM     12  S   UNL     1       2.251   4.888  -0.116  0.00  0.00    -0.047 S 
ATOM     13  C   UNL     1       1.089   6.235  -0.032  0.00  0.00    +0.183 A 
ATOM     14  N   UNL     1       1.253   7.537  -0.026  0.00  0.00    -0.221 NA
ENDROOT
BRANCH   8  15
ATOM     15  C   UNL     1       2.499   1.509  -0.170  0.00  0.00    -0.015 A 
ATOM     16  C   UNL     1       3.418   1.640   0.871  0.00  0.00    +0.010 A 
ATOM     17  C   UNL     1       4.643   1.011   0.790  0.00  0.00    +0.020 A 
ATOM     18  C   UNL     1       4.965   0.260  -0.328  0.00  0.00    +0.041 A 
ATOM     19  C   UNL     1       4.058   0.131  -1.367  0.00  0.00    +0.020 A 
ATOM     20  C   UNL     1       2.829   0.751  -1.294  0.00  0.00    +0.010 A 
ATOM     21 CL   UNL     1       6.511  -0.524  -0.427  0.00  0.00    -0.084 Cl
ENDBRANCH   8  15
BRANCH   1  25
ATOM     22  C   UNL     1       0.778  12.581   0.057  0.00  0.00    +0.162 A 
ATOM     23  C   UNL     1      -0.166  12.010  -0.786  0.00  0.00    +0.050 A 
ATOM     24  C   UNL     1      -0.348  10.644  -0.796  0.00  0.00    +0.014 A 
ATOM     25  C   UNL     1       0.409   9.832   0.051  0.00  0.00    +0.006 A 
ATOM     26  C   UNL     1       1.358  10.406   0.899  0.00  0.00    +0.059 A 
ATOM     27  C   UNL     1       1.540  11.776   0.901  0.00  0.00    +0.162 A 
BRANCH  22  29
ATOM     28  C   UNL     1       0.143  14.693  -0.831  0.00  0.00    +0.277 C 
ATOM     29  O   UNL     1       0.959  13.928   0.059  0.00  0.00    -0.491 OA
ENDBRANCH  22  29
BRANCH  27  30
ATOM     30  O   UNL     1       2.464  12.338   1.726  0.00  0.00    -0.491 OA
ATOM     31  C   UNL     1       3.209  11.453   2.564  0.00  0.00    +0.277 C 
ENDBRANCH  27  30
ENDBRANCH   1  25
BRANCH  10  32
ATOM     32  N   UNL     1      -2.421   1.435   0.103  0.00  0.00    -0.342 N 
ATOM     33  H   UNL     1      -3.377   1.976   0.161  0.00  0.00    +0.144 HD
ATOM     34  H   UNL     1      -2.412   0.335   0.089  0.00  0.00    +0.144 HD
ENDBRANCH  10  32
BRANCH   9  35
ATOM     35  C   UNL     1       0.001  -0.004  -0.043  0.00  0.00    +0.103 C 
ATOM     36  N   UNL     1       0.016  -1.139  -0.058  0.00  0.00    -0.191 NA
ENDBRANCH   9  35
BRANCH   2  37
ATOM     37  C   UNL     1      -2.234   8.666   0.193  0.00  0.00    +0.107 C 
ATOM     38  N   UNL     1      -3.146   9.341   0.255  0.00  0.00    -0.191 NA
ENDBRANCH   2  37
TORSDOF 7
