REMARK  Name = ZINC64491018
REMARK  2 active torsions:
REMARK  status: ('A' for Active; 'I' for Inactive)
REMARK    1  A    between atoms: C_6  and  C_7
REMARK    2  A    between atoms: N_25  and  C_26
REMARK                            x       y       z     vdW  Elec       q    Type
REMARK                         _______ _______ _______ _____ _____    ______ ____
ROOT
ATOM      1  C   UNL     1      -1.150  -1.610   0.570  0.00  0.00    +0.134 C 
ATOM      2  C   UNL     1      -1.581  -2.571   1.684  0.00  0.00    +0.131 C 
ATOM      3  C   UNL     1      -2.851  -3.257   1.198  0.00  0.00    -0.035 C 
ATOM      4  C   UNL     1      -3.777  -3.031   2.122  0.00  0.00    +0.001 A 
ATOM      5  C   UNL     1      -5.170  -3.490   2.247  0.00  0.00    +0.030 A 
ATOM      6  C   UNL     1      -5.851  -3.050   3.338  0.00  0.00    +0.042 A 
ATOM      7  C   UNL     1      -5.292  -2.207   4.306  0.00  0.00    +0.022 A 
ATOM      8  C   UNL     1      -4.019  -1.740   4.273  0.00  0.00    +0.027 A 
ATOM      9  C   UNL     1      -3.202  -2.139   3.175  0.00  0.00    +0.043 A 
ATOM     10  N   UNL     1      -1.938  -1.857   2.911  0.00  0.00    -0.375 N 
ATOM     11 CL   UNL     1      -7.499  -3.557   3.541  0.00  0.00    -0.084 Cl
ATOM     12  C   UNL     1      -2.934  -3.958  -0.136  0.00  0.00    +0.052 C 
ATOM     13  C   UNL     1      -2.403  -2.970  -1.190  0.00  0.00    +0.114 C 
ATOM     14  N   UNL     1      -1.166  -2.353  -0.700  0.00  0.00    -0.276 N 
ATOM     15  C   UNL     1      -0.032  -2.469  -1.419  0.00  0.00    +0.307 C 
ATOM     16  O   UNL     1       1.028  -2.106  -0.946  0.00  0.00    -0.252 OA
ATOM     17  N   UNL     1      -0.073  -2.989  -2.662  0.00  0.00    -0.269 N 
ATOM     18  H   UNL     1      -0.927  -3.192  -3.075  0.00  0.00    +0.156 HD
ATOM     19  H   UNL     1      -1.350  -1.282   3.424  0.00  0.00    +0.160 HD
ENDROOT
BRANCH  17  20
ATOM     20  C   UNL     1       1.119  -3.237  -3.357  0.00  0.00    +0.038 A 
ATOM     21  C   UNL     1       2.236  -2.447  -3.123  0.00  0.00    +0.027 A 
ATOM     22  C   UNL     1       3.412  -2.691  -3.808  0.00  0.00    +0.051 A 
ATOM     23  C   UNL     1       3.479  -3.724  -4.728  0.00  0.00    +0.166 A 
ATOM     24  C   UNL     1       2.359  -4.519  -4.964  0.00  0.00    +0.168 A 
ATOM     25  C   UNL     1       1.183  -4.277  -4.274  0.00  0.00    +0.073 A 
ATOM     26  O   UNL     1       2.680  -5.456  -5.904  0.00  0.00    -0.453 OA
ATOM     27  C   UNL     1       3.878  -4.972  -6.537  0.00  0.00    +0.466 C 
ATOM     28  O   UNL     1       4.501  -4.165  -5.520  0.00  0.00    -0.453 OA
ENDBRANCH  17  20
BRANCH   1  34
ATOM     29  C   UNL     1       0.573   0.205   0.535  0.00  0.00    +0.008 A 
ATOM     30  C   UNL     1       1.849   0.673   0.788  0.00  0.00    +0.038 A 
ATOM     31  C   UNL     1       2.794  -0.166   1.352  0.00  0.00    +0.123 A 
ATOM     32  C   UNL     1       2.461  -1.474   1.663  0.00  0.00    +0.038 A 
ATOM     33  C   UNL     1       1.185  -1.940   1.410  0.00  0.00    +0.008 A 
ATOM     34  C   UNL     1       0.241  -1.101   0.846  0.00  0.00    -0.025 A 
ATOM     35  F   UNL     1       4.042   0.290   1.599  0.00  0.00    -0.205 F 
ENDBRANCH   1  34
TORSDOF 2
