REMARK  Name = ZINC22880491
REMARK  9 active torsions:
REMARK  status: ('A' for Active; 'I' for Inactive)
REMARK    1  A    between atoms: C_1  and  C_2
REMARK    2  A    between atoms: C_3  and  C_21
REMARK    3  A    between atoms: N_7  and  C_8
REMARK    4  A    between atoms: C_8  and  C_10
REMARK    5  A    between atoms: C_12  and  O_19
REMARK    6  A    between atoms: C_14  and  O_16
REMARK    7  A    between atoms: O_16  and  C_17
REMARK    8  A    between atoms: O_19  and  C_20
REMARK    9  A    between atoms: C_21  and  C_22
REMARK                            x       y       z     vdW  Elec       q    Type
REMARK                         _______ _______ _______ _____ _____    ______ ____
ROOT
ATOM      1  C   UNL     1       3.612   4.251   1.750  0.00  0.00    +0.064 C 
ATOM      2  C   UNL     1       2.194   4.393   2.240  0.00  0.00    +0.025 A 
ATOM      3  C   UNL     1       1.148   4.090   1.433  0.00  0.00    +0.016 A 
ATOM      4  S   UNL     1      -0.225   4.449   2.520  0.00  0.00    -0.057 S 
ATOM      5  C   UNL     1       0.705   4.940   3.902  0.00  0.00    +0.164 A 
ATOM      6  N   UNL     1       1.942   4.813   3.465  0.00  0.00    -0.339 N 
ATOM      7  N   UNL     1       0.259   5.364   5.148  0.00  0.00    -0.152 NA
ATOM      8  H   UNL     1       2.772   5.066   4.141  0.00  0.00    +0.167 HD
ENDROOT
BRANCH   7   9
ATOM      9  C   UNL     1       1.147   5.713   6.099  0.00  0.00    +0.270 C 
ATOM     10  O   UNL     1       2.339   5.656   5.867  0.00  0.00    -0.268 OA
BRANCH   9  11
ATOM     11  C   UNL     1       0.673   6.164   7.424  0.00  0.00    +0.046 A 
ATOM     12  C   UNL     1      -0.695   6.235   7.690  0.00  0.00    +0.060 A 
ATOM     13  C   UNL     1      -1.136   6.652   8.935  0.00  0.00    +0.138 A 
ATOM     14  C   UNL     1      -0.219   7.011   9.913  0.00  0.00    +0.101 A 
ATOM     15  C   UNL     1       1.143   6.947   9.650  0.00  0.00    +0.138 A 
ATOM     16  C   UNL     1       1.592   6.525   8.410  0.00  0.00    +0.060 A 
ATOM     17 BR   UNL     1      -0.826   7.588  11.608  0.00  0.00    -0.043 Br
BRANCH  15  18
ATOM     18  O   UNL     1       2.037   7.300  10.612  0.00  0.00    -0.494 OA
ATOM     19  C   UNL     1       3.422   7.211  10.273  0.00  0.00    +0.277 C 
ENDBRANCH  15  18
BRANCH  13  20
ATOM     20  O   UNL     1      -2.468   6.716   9.197  0.00  0.00    -0.494 OA
ATOM     21  C   UNL     1      -3.355   6.332   8.145  0.00  0.00    +0.277 C 
ENDBRANCH  13  20
ENDBRANCH   9  11
ENDBRANCH   7   9
BRANCH   3  22
ATOM     22  C   UNL     1       1.143   3.595   0.010  0.00  0.00    +0.079 C 
BRANCH  22  23
ATOM     23  C   UNL     1       1.169   2.089   0.002  0.00  0.00    -0.039 A 
ATOM     24  C   UNL     1      -0.017   1.378   0.010  0.00  0.00    +0.008 A 
ATOM     25  C   UNL     1       0.002  -0.004   0.002  0.00  0.00    +0.050 A 
ATOM     26  C   UNL     1       1.211  -0.681  -0.013  0.00  0.00    +0.166 A 
ATOM     27  C   UNL     1       2.405   0.035  -0.021  0.00  0.00    +0.166 A 
ATOM     28  C   UNL     1       2.379   1.420  -0.012  0.00  0.00    +0.053 A 
ATOM     29  O   UNL     1       3.444  -0.851  -0.036  0.00  0.00    -0.453 OA
ATOM     30  C   UNL     1       2.873  -2.106  -0.450  0.00  0.00    +0.466 C 
ATOM     31  O   UNL     1       1.501  -2.015  -0.024  0.00  0.00    -0.453 OA
ENDBRANCH  22  23
ENDBRANCH   3  22
TORSDOF 6
