REMARK  Name = ZINC09366555
REMARK  4 active torsions:
REMARK  status: ('A' for Active; 'I' for Inactive)
REMARK    1  A    between atoms: C_6  and  C_7
REMARK    2  A    between atoms: C_7  and  O_9
REMARK    3  A    between atoms: O_9  and  C_10
REMARK    4  A    between atoms: C_10  and  C_11
REMARK                            x       y       z     vdW  Elec       q    Type
REMARK                         _______ _______ _______ _____ _____    ______ ____
ROOT
ATOM      1  O   UNL     1       4.416  -0.396  -1.287  0.00  0.00    -0.455 OA
ENDROOT
BRANCH   1   2
ATOM      2  C   UNL     1       5.626  -0.962  -1.463  0.00  0.00    +0.340 C 
ATOM      3  O   UNL     1       6.094  -1.677  -0.599  0.00  0.00    -0.245 OA
BRANCH   2   9
ATOM      4  C   UNL     1       5.852   0.109  -3.707  0.00  0.00    +0.017 A 
ATOM      5  C   UNL     1       6.530   0.350  -4.856  0.00  0.00    +0.030 A 
ATOM      6  C   UNL     1       7.806  -0.223  -5.086  0.00  0.00    +0.080 A 
ATOM      7  C   UNL     1       8.320  -1.051  -4.057  0.00  0.00    +0.042 A 
ATOM      8  C   UNL     1       7.642  -1.292  -2.895  0.00  0.00    +0.032 A 
ATOM      9  C   UNL     1       6.381  -0.714  -2.703  0.00  0.00    +0.060 A 
ATOM     10  S   UNL     1       9.889  -1.552  -4.723  0.00  0.00    -0.053 S 
ATOM     11  C   UNL     1       9.770  -0.664  -6.270  0.00  0.00    +0.157 A 
ATOM     12  N   UNL     1       8.596  -0.079  -6.167  0.00  0.00    -0.225 NA
ATOM     13  N   UNL     1      10.676  -0.607  -7.306  0.00  0.00    -0.337 N 
ATOM     14  H   UNL     1      10.478  -0.079  -8.095  0.00  0.00    +0.144 HD
ATOM     15  H   UNL     1      11.512  -1.095  -7.245  0.00  0.00    +0.144 HD
ENDBRANCH   2   9
ENDBRANCH   1   2
BRANCH   1  16
ATOM     16  C   UNL     1       3.728  -0.684  -0.041  0.00  0.00    +0.288 C 
BRANCH  16  17
ATOM     17  C   UNL     1       2.401   0.030  -0.022  0.00  0.00    +0.087 A 
ATOM     18  C   UNL     1       1.221  -0.682  -0.014  0.00  0.00    +0.097 A 
ATOM     19  C   UNL     1       0.002  -0.004   0.002  0.00  0.00    +0.259 A 
ATOM     20  O   UNL     1      -1.046  -0.630   0.009  0.00  0.00    -0.267 OA
ATOM     21  N   UNL     1      -0.017   1.363   0.009  0.00  0.00    -0.259 N 
ATOM     22  C   UNL     1      -1.157   2.155   0.019  0.00  0.00    +0.039 A 
ATOM     23  C   UNL     1      -1.006   3.485   0.029  0.00  0.00    +0.013 A 
ATOM     24  S   UNL     1       0.753   3.712   0.015  0.00  0.00    -0.054 S 
ATOM     25  C   UNL     1       1.198   1.988   0.001  0.00  0.00    +0.181 A 
ATOM     26  N   UNL     1       2.348   1.360  -0.014  0.00  0.00    -0.224 NA
ATOM     27  C   UNL     1      -2.073   4.532   0.044  0.00  0.00    +0.044 C 
ATOM     28  C   UNL     1      -3.410   3.866  -0.315  0.00  0.00    +0.006 C 
ATOM     29  C   UNL     1      -3.556   2.586   0.515  0.00  0.00    +0.006 C 
ATOM     30  C   UNL     1      -2.553   1.537   0.034  0.00  0.00    +0.055 C 
ENDBRANCH  16  17
ENDBRANCH   1  16
TORSDOF 4
