REMARK  Name = ZINC15018380
REMARK  2 active torsions:
REMARK  status: ('A' for Active; 'I' for Inactive)
REMARK    1  A    between atoms: C_1  and  C_2
REMARK    2  A    between atoms: C_2  and  C_3
REMARK                            x       y       z     vdW  Elec       q    Type
REMARK                         _______ _______ _______ _____ _____    ______ ____
ROOT
ATOM      1  C   UNL     1      -1.412  -0.526   0.013  0.00  0.00    -0.026 A 
ATOM      2  C   UNL     1      -2.013  -0.863   1.210  0.00  0.00    +0.005 A 
ATOM      3  C   UNL     1      -3.311  -1.344   1.237  0.00  0.00    +0.001 A 
ATOM      4  C   UNL     1      -4.019  -1.491   0.061  0.00  0.00    +0.010 A 
ATOM      5  C   UNL     1      -3.423  -1.153  -1.151  0.00  0.00    +0.010 A 
ATOM      6  C   UNL     1      -2.110  -0.661  -1.181  0.00  0.00    +0.045 A 
ATOM      7  N   UNL     1      -1.751  -0.395  -2.498  0.00  0.00    -0.281 N 
ATOM      8  C   UNL     1      -2.754  -0.677  -3.346  0.00  0.00    +0.250 C 
ATOM      9  O   UNL     1      -2.727  -0.545  -4.555  0.00  0.00    -0.270 OA
ATOM     10  C   UNL     1      -3.889  -1.189  -2.553  0.00  0.00    +0.065 C 
ATOM     11  C   UNL     1      -5.123  -1.599  -3.019  0.00  0.00    +0.090 C 
ATOM     12  C   UNL     1      -5.633  -1.659  -4.415  0.00  0.00    +0.257 C 
ATOM     13  O   UNL     1      -4.947  -1.321  -5.359  0.00  0.00    -0.269 OA
ATOM     14  N   UNL     1      -6.870  -2.098  -4.577  0.00  0.00    -0.261 N 
ATOM     15  C   UNL     1      -7.631  -2.476  -3.490  0.00  0.00    +0.158 C 
ATOM     16  N   UNL     1      -8.853  -2.926  -3.476  0.00  0.00    -0.279 NA
ATOM     17  S   UNL     1      -6.534  -2.208  -2.107  0.00  0.00    -0.049 S 
ATOM     18  H   UNL     1      -0.886  -0.049  -2.769  0.00  0.00    +0.155 HD
ATOM     19  H   UNL     1      -7.246  -2.154  -5.470  0.00  0.00    +0.157 HD
ATOM     20  H   UNL     1      -9.275  -3.158  -2.634  0.00  0.00    +0.189 HD
ENDROOT
BRANCH   1  22
ATOM     21  C   UNL     1      -0.019   1.526   0.010  0.00  0.00    +0.009 C 
ATOM     22  C   UNL     1       0.002  -0.004   0.002  0.00  0.00    +0.033 C 
ENDBRANCH   1  22
TORSDOF 1
