REMARK  Name = ZINC08636682
REMARK  5 active torsions:
REMARK  status: ('A' for Active; 'I' for Inactive)
REMARK    1  A    between atoms: C_4  and  C_7
REMARK    2  A    between atoms: C_7  and  O_8
REMARK    3  A    between atoms: O_8  and  C_9
REMARK    4  A    between atoms: C_19  and  C_21
REMARK    5  A    between atoms: C_28  and  N_71
REMARK                            x       y       z     vdW  Elec       q    Type
REMARK                         _______ _______ _______ _____ _____    ______ ____
ROOT
ATOM      1  C   UNL     1       3.305  -3.102   1.191  0.00  0.00    +0.237 C 
ATOM      2  O   UNL     1       2.555  -3.169   2.142  0.00  0.00    -0.274 OA
ATOM      3  N   UNL     1       4.502  -3.719   1.233  0.00  0.00    -0.303 N 
ATOM      4  C   UNL     1       5.424  -3.656   0.089  0.00  0.00    +0.089 C 
ATOM      5  C   UNL     1       6.800  -3.204   0.604  0.00  0.00    -0.058 C 
ATOM      6  C   UNL     1       6.312  -3.999   2.842  0.00  0.00    -0.058 C 
ATOM      7  C   UNL     1       4.919  -4.479   2.422  0.00  0.00    +0.089 C 
ATOM      8  N   UNL     1       7.225  -4.120   1.685  0.00  0.00    +0.389 N 
ATOM      9  H   UNL     1       7.194  -5.085   1.335  0.00  0.00    -0.080 HD
ENDROOT
BRANCH   8  10
ATOM     10  C   UNL     1       8.608  -3.804   2.098  0.00  0.00    -0.005 C 
ATOM     11  C   UNL     1       8.721  -2.384   2.594  0.00  0.00    -0.049 A 
ATOM     12  C   UNL     1       8.120  -1.718   3.641  0.00  0.00    +0.003 A 
ATOM     13  C   UNL     1       8.411  -0.386   3.874  0.00  0.00    +0.000 A 
ATOM     14  C   UNL     1       9.306   0.281   3.057  0.00  0.00    +0.001 A 
ATOM     15  C   UNL     1       9.912  -0.377   2.007  0.00  0.00    +0.009 A 
ATOM     16  C   UNL     1       9.623  -1.721   1.766  0.00  0.00    -0.016 A 
ATOM     17  C   UNL     1      10.120  -2.657   0.728  0.00  0.00    -0.016 A 
ATOM     18  C   UNL     1       9.528  -3.904   0.906  0.00  0.00    -0.049 A 
ATOM     19  C   UNL     1       9.834  -4.947   0.058  0.00  0.00    +0.003 A 
ATOM     20  C   UNL     1      10.732  -4.757  -0.977  0.00  0.00    +0.000 A 
ATOM     21  C   UNL     1      11.325  -3.522  -1.163  0.00  0.00    +0.001 A 
ATOM     22  C   UNL     1      11.025  -2.473  -0.319  0.00  0.00    +0.009 A 
ENDBRANCH   8  10
BRANCH   1  33
ATOM     23  C   UNL     1       0.500  -3.020  -0.018  0.00  0.00    +0.408 C 
ATOM     24  O   UNL     1       0.810  -4.194  -0.027  0.00  0.00    -0.226 OA
ATOM     25  N   UNL     1       1.456  -2.070  -0.022  0.00  0.00    -0.225 N 
ATOM     26  C   UNL     1       1.217  -0.692  -0.013  0.00  0.00    +0.044 A 
ATOM     27  C   UNL     1       0.002  -0.004   0.002  0.00  0.00    +0.024 A 
ATOM     28  C   UNL     1      -0.017   1.374   0.010  0.00  0.00    +0.002 A 
ATOM     29  C   UNL     1       1.169   2.087   0.002  0.00  0.00    +0.000 A 
ATOM     30  C   UNL     1       2.376   1.413  -0.013  0.00  0.00    +0.005 A 
ATOM     31  C   UNL     1       2.399   0.031  -0.020  0.00  0.00    -0.024 A 
ATOM     32  C   UNL     1       3.558  -0.941  -0.036  0.00  0.00    +0.069 C 
ATOM     33  C   UNL     1       2.898  -2.329  -0.037  0.00  0.00    +0.175 C 
BRANCH  23  34
ATOM     34  O   UNL     1      -0.800  -2.667  -0.005  0.00  0.00    -0.445 OA
BRANCH  34  35
ATOM     35  C   UNL     1      -1.775  -3.743  -0.002  0.00  0.00    +0.269 C 
BRANCH  35  39
ATOM     36  C   UNL     1      -5.715  -2.094   0.040  0.00  0.00    +0.000 A 
ATOM     37  C   UNL     1      -5.088  -2.354  -1.163  0.00  0.00    +0.000 A 
ATOM     38  C   UNL     1      -3.813  -2.888  -1.177  0.00  0.00    +0.007 A 
ATOM     39  C   UNL     1      -3.165  -3.161   0.013  0.00  0.00    -0.010 A 
ATOM     40  C   UNL     1      -3.794  -2.905   1.217  0.00  0.00    +0.007 A 
ATOM     41  C   UNL     1      -5.067  -2.367   1.231  0.00  0.00    +0.000 A 
ENDBRANCH  35  39
ENDBRANCH  34  35
ENDBRANCH  23  34
ENDBRANCH   1  33
TORSDOF 5
