REMARK  Name = ZINC09545069
REMARK  5 active torsions:
REMARK  status: ('A' for Active; 'I' for Inactive)
REMARK    1  A    between atoms: C_1  and  C_2
REMARK    2  A    between atoms: C_15  and  C_17
REMARK    3  A    between atoms: C_17  and  N_63
REMARK    4  A    between atoms: N_20  and  S_23
REMARK    5  A    between atoms: S_23  and  C_26
REMARK                            x       y       z     vdW  Elec       q    Type
REMARK                         _______ _______ _______ _____ _____    ______ ____
ROOT
ATOM      1  C   UNL     1       5.658   3.091   3.589  0.00  0.00    -0.061 C 
ATOM      2  C   UNL     1       6.336   3.457   2.264  0.00  0.00    +0.091 C 
ATOM      3  N   UNL     1       5.487   4.426   1.556  0.00  0.00    -0.180 NA
ATOM      4  C   UNL     1       5.037   5.621   2.285  0.00  0.00    +0.091 C 
ATOM      5  C   UNL     1       4.405   5.168   3.611  0.00  0.00    -0.061 C 
ATOM      6  N   UNL     1       5.385   4.335   4.341  0.00  0.00    +0.387 N 
ATOM      7  H   UNL     1       6.261   4.862   4.441  0.00  0.00    -0.081 HD
ENDROOT
BRANCH   3   8
ATOM      8  S   UNL     1       5.053   4.181  -0.024  0.00  0.00    +0.061 S 
ATOM      9  O   UNL     1       6.039   3.327  -0.588  0.00  0.00    -0.153 OA
ATOM     10  O   UNL     1       4.752   5.460  -0.565  0.00  0.00    -0.153 OA
BRANCH   8  11
ATOM     11  C   UNL     1       3.544   3.271  -0.014  0.00  0.00    +0.106 A 
ATOM     12  C   UNL     1       3.583   1.877  -0.021  0.00  0.00    +0.029 A 
ATOM     13  C   UNL     1       2.436   1.144  -0.014  0.00  0.00    +0.010 A 
ATOM     14  C   UNL     1       1.193   1.799   0.000  0.00  0.00    -0.018 A 
ATOM     15  C   UNL     1      -0.013   1.076   0.008  0.00  0.00    +0.008 A 
ATOM     16  C   UNL     1      -1.198   1.744   0.017  0.00  0.00    +0.001 A 
ATOM     17  C   UNL     1      -1.237   3.137   0.031  0.00  0.00    +0.001 A 
ATOM     18  C   UNL     1      -0.090   3.870   0.023  0.00  0.00    +0.008 A 
ATOM     19  C   UNL     1       1.153   3.215   0.008  0.00  0.00    -0.016 A 
ATOM     20  C   UNL     1       2.358   3.938   0.000  0.00  0.00    +0.037 A 
ENDBRANCH   8  11
ENDBRANCH   3   8
BRANCH   6  21
ATOM     21  C   UNL     1       4.866   4.008   5.685  0.00  0.00    +0.019 C 
BRANCH  21  35
ATOM     22  C   UNL     1       2.861   6.923   8.673  0.00  0.00    +0.029 C 
ATOM     23  C   UNL     1       4.313   6.447   8.588  0.00  0.00    +0.087 C 
ATOM     24  C   UNL     1       4.839   6.165   9.997  0.00  0.00    +0.118 C 
ATOM     25  C   UNL     1       6.095   5.338   9.925  0.00  0.00    +0.219 C 
ATOM     26  O   UNL     1       7.171   5.859  10.124  0.00  0.00    -0.275 OA
ATOM     27  N   UNL     1       6.031   4.018   9.640  0.00  0.00    -0.284 N 
ATOM     28  C   UNL     1       4.808   3.416   9.320  0.00  0.00    +0.055 A 
ATOM     29  C   UNL     1       4.411   2.240   9.934  0.00  0.00    +0.025 A 
ATOM     30  C   UNL     1       3.196   1.652   9.572  0.00  0.00    +0.002 A 
ATOM     31  C   UNL     1       2.398   2.237   8.606  0.00  0.00    +0.002 A 
ATOM     32  C   UNL     1       2.788   3.417   8.000  0.00  0.00    +0.025 A 
ATOM     33  C   UNL     1       3.983   4.016   8.361  0.00  0.00    +0.058 A 
ATOM     34  N   UNL     1       4.378   5.228   7.781  0.00  0.00    -0.268 N 
ATOM     35  C   UNL     1       4.805   5.272   6.503  0.00  0.00    +0.204 C 
ATOM     36  O   UNL     1       5.139   6.329   6.011  0.00  0.00    -0.277 OA
ATOM     37  H   UNL     1       6.840   3.483   9.657  0.00  0.00    +0.155 HD
ENDBRANCH  21  35
ENDBRANCH   6  21
TORSDOF 4
