REMARK  Name = ZINC48174455
REMARK  11 active torsions:
REMARK  status: ('A' for Active; 'I' for Inactive)
REMARK    1  A    between atoms: C_1  and  C_2
REMARK    2  A    between atoms: C_2  and  C_4
REMARK    3  A    between atoms: C_2  and  N_20
REMARK    4  A    between atoms: N_6  and  C_7
REMARK    5  A    between atoms: C_7  and  C_8
REMARK    6  A    between atoms: N_12  and  C_14
REMARK    7  A    between atoms: C_21  and  O_23
REMARK    8  A    between atoms: O_23  and  C_24
REMARK    9  A    between atoms: C_24  and  C_25
REMARK   10  A    between atoms: C_24  and  C_26
REMARK   11  A    between atoms: C_24  and  C_27
REMARK                            x       y       z     vdW  Elec       q    Type
REMARK                         _______ _______ _______ _____ _____    ______ ____
ROOT
ATOM      1  C   UNL     1      -1.412  -0.526   0.013  0.00  0.00    +0.233 C 
ATOM      2  O   UNL     1      -1.808  -1.223  -0.897  0.00  0.00    -0.274 OA
ATOM      3  N   UNL     1      -2.236  -0.217   1.033  0.00  0.00    -0.313 N 
ATOM      4  H   UNL     1      -1.920   0.341   1.761  0.00  0.00    +0.149 HD
ENDROOT
BRANCH   1   6
ATOM      5  C   UNL     1      -0.019   1.526   0.010  0.00  0.00    +0.038 C 
ATOM      6  C   UNL     1       0.002  -0.004   0.002  0.00  0.00    +0.159 C 
BRANCH   6   7
ATOM      7  N   UNL     1       0.688  -0.476  -1.203  0.00  0.00    -0.270 N 
ATOM      8  C   UNL     1       2.031  -0.587  -1.215  0.00  0.00    +0.401 C 
ATOM      9  O   UNL     1       2.673  -0.295  -0.226  0.00  0.00    -0.226 OA
ATOM     10  H   UNL     1       0.175  -0.710  -1.993  0.00  0.00    +0.153 HD
BRANCH   8  11
ATOM     11  O   UNL     1       2.661  -1.021  -2.323  0.00  0.00    -0.445 OA
BRANCH  11  12
ATOM     12  C   UNL     1       4.086  -1.114  -2.264  0.00  0.00    +0.107 C 
ATOM     13  C   UNL     1       4.489  -2.087  -1.154  0.00  0.00    +0.055 C 
ATOM     14  C   UNL     1       4.619  -1.621  -3.606  0.00  0.00    +0.055 C 
ATOM     15  C   UNL     1       4.675   0.267  -1.971  0.00  0.00    +0.055 C 
ENDBRANCH  11  12
ENDBRANCH   8  11
ENDBRANCH   6   7
ENDBRANCH   1   6
BRANCH   3  16
ATOM     16  C   UNL     1      -3.611  -0.724   1.044  0.00  0.00    +0.109 C 
BRANCH  16  17
ATOM     17  C   UNL     1      -4.327  -0.231   2.302  0.00  0.00    +0.025 C 
ATOM     18  C   UNL     1      -3.755  -0.915   3.572  0.00  0.00    +0.025 C 
ATOM     19  C   UNL     1      -4.942  -0.866   4.556  0.00  0.00    +0.105 C 
ATOM     20  N   UNL     1      -6.167  -0.725   3.755  0.00  0.00    -0.330 N 
ATOM     21  C   UNL     1      -5.800  -0.710   2.327  0.00  0.00    +0.110 C 
BRANCH  20  22
ATOM     22  C   UNL     1      -7.465  -0.624   4.263  0.00  0.00    +0.030 A 
ATOM     23  C   UNL     1      -8.543  -0.501   3.396  0.00  0.00    +0.023 A 
ATOM     24  C   UNL     1      -9.825  -0.401   3.901  0.00  0.00    +0.002 A 
ATOM     25  C   UNL     1     -10.035  -0.423   5.268  0.00  0.00    +0.000 A 
ATOM     26  C   UNL     1      -8.963  -0.546   6.133  0.00  0.00    +0.002 A 
ATOM     27  C   UNL     1      -7.679  -0.651   5.635  0.00  0.00    +0.023 A 
ENDBRANCH  20  22
ENDBRANCH  16  17
ENDBRANCH   3  16
TORSDOF 7
