REMARK  Name = ZINC41584763
REMARK  4 active torsions:
REMARK  status: ('A' for Active; 'I' for Inactive)
REMARK    1  A    between atoms: C_4  and  C_8
REMARK    2  A    between atoms: C_15  and  O_36
REMARK    3  A    between atoms: C_16  and  C_19
REMARK    4  A    between atoms: C_19  and  N_20
REMARK                            x       y       z     vdW  Elec       q    Type
REMARK                         _______ _______ _______ _____ _____    ______ ____
ROOT
ATOM      1  C   UNL     1       3.692  -0.677  -0.037  0.00  0.00    +0.061 C 
ATOM      2  C   UNL     1       3.928  -1.672   0.855  0.00  0.00    +0.176 C 
ATOM      3  C   UNL     1       5.160  -2.467   0.965  0.00  0.00    +0.231 C 
ATOM      4  O   UNL     1       6.169  -2.377   0.287  0.00  0.00    -0.283 OA
ATOM      5  C   UNL     1       4.901  -3.398   2.078  0.00  0.00    +0.068 A 
ATOM      6  C   UNL     1       5.661  -4.403   2.678  0.00  0.00    +0.019 A 
ATOM      7  C   UNL     1       5.142  -5.119   3.720  0.00  0.00    +0.046 A 
ATOM      8  C   UNL     1       3.858  -4.848   4.184  0.00  0.00    +0.122 A 
ATOM      9  C   UNL     1       3.092  -3.853   3.598  0.00  0.00    +0.020 A 
ATOM     10  C   UNL     1       3.605  -3.115   2.537  0.00  0.00    +0.144 A 
ATOM     11  O   UNL     1       3.074  -2.108   1.811  0.00  0.00    -0.451 OA
ENDROOT
BRANCH   1  15
ATOM     12  C   UNL     1      -0.017   1.380   0.010  0.00  0.00    +0.003 A 
ATOM     13  C   UNL     1       1.167   2.096   0.002  0.00  0.00    +0.021 A 
ATOM     14  C   UNL     1       2.379   1.436  -0.013  0.00  0.00    +0.050 A 
ATOM     15  C   UNL     1       2.408   0.035  -0.021  0.00  0.00    +0.015 A 
ATOM     16  C   UNL     1       1.204  -0.682  -0.013  0.00  0.00    +0.050 A 
ATOM     17  C   UNL     1       0.002  -0.004   0.002  0.00  0.00    +0.021 A 
ATOM     18 CL   UNL     1       1.224  -2.418  -0.023  0.00  0.00    -0.083 Cl
ATOM     19 CL   UNL     1       3.862   2.337  -0.023  0.00  0.00    -0.083 Cl
ENDBRANCH   1  15
BRANCH   8  20
ATOM     20  O   UNL     1       3.351  -5.565   5.219  0.00  0.00    -0.506 OA
ATOM     21  H   UNL     1       3.534  -5.183   6.088  0.00  0.00    +0.292 HD
ENDBRANCH   8  20
BRANCH   9  22
ATOM     22  C   UNL     1       1.703  -3.571   4.110  0.00  0.00    -0.036 C 
BRANCH  22  23
ATOM     23  N   UNL     1       1.769  -2.555   5.169  0.00  0.00    +0.383 N 
ATOM     24  C   UNL     1       0.410  -2.188   5.577  0.00  0.00    -0.073 C 
ATOM     25  C   UNL     1       0.431  -1.138   6.678  0.00  0.00    -0.007 C 
ATOM     26  C   UNL     1       1.248  -1.627   7.878  0.00  0.00    +0.011 C 
ATOM     27  C   UNL     1       2.650  -1.978   7.365  0.00  0.00    +0.020 C 
ATOM     28  C   UNL     1       2.506  -3.097   6.320  0.00  0.00    -0.069 C 
ATOM     29  C   UNL     1       3.241  -0.769   6.675  0.00  0.00    +0.023 A 
ATOM     30  C   UNL     1       4.594  -0.640   6.684  0.00  0.00    +0.022 A 
ATOM     31  C   UNL     1       5.212   0.420   6.010  0.00  0.00    +0.007 A 
ATOM     32  C   UNL     1       4.434   1.306   5.324  0.00  0.00    +0.070 A 
ATOM     33  C   UNL     1       3.042   1.142   5.332  0.00  0.00    +0.251 A 
ATOM     34  O   UNL     1       2.341   1.892   4.671  0.00  0.00    -0.268 OA
ATOM     35  N   UNL     1       2.466   0.159   6.066  0.00  0.00    -0.312 N 
ATOM     36  C   UNL     1       1.011   0.179   6.190  0.00  0.00    +0.126 C 
ATOM     37  H   UNL     1       2.246  -1.737   4.821  0.00  0.00    -0.081 HD
ENDBRANCH  22  23
ENDBRANCH   9  22
TORSDOF 4
