REMARK  Name = ZINC20697962
REMARK  8 active torsions:
REMARK  status: ('A' for Active; 'I' for Inactive)
REMARK    1  A    between atoms: C_1  and  C_2
REMARK    2  A    between atoms: C_2  and  C_3
REMARK    3  A    between atoms: C_2  and  C_4
REMARK    4  A    between atoms: C_7  and  C_10
REMARK    5  A    between atoms: C_21  and  S_26
REMARK    6  A    between atoms: S_26  and  N_29
REMARK    7  A    between atoms: N_29  and  C_30
REMARK    8  A    between atoms: N_29  and  C_31
REMARK                            x       y       z     vdW  Elec       q    Type
REMARK                         _______ _______ _______ _____ _____    ______ ____
ROOT
ATOM      1  C   UNL     1       2.707  -1.868  -4.752  0.00  0.00    +0.105 C 
ATOM      2  C   UNL     1       2.455  -3.352  -4.950  0.00  0.00    +0.029 C 
ATOM      3  C   UNL     1       0.992  -3.815  -4.991  0.00  0.00    +0.033 C 
ATOM      4  C   UNL     1       1.106  -5.242  -4.450  0.00  0.00    -0.030 C 
ATOM      5  C   UNL     1       2.178  -5.349  -3.674  0.00  0.00    -0.023 C 
ATOM      6  C   UNL     1       2.872  -4.027  -3.610  0.00  0.00    +0.049 C 
ATOM      7  C   UNL     1       4.339  -3.893  -3.473  0.00  0.00    -0.018 A 
ATOM      8  C   UNL     1       5.120  -4.867  -2.889  0.00  0.00    +0.034 A 
ATOM      9  C   UNL     1       6.486  -4.689  -2.772  0.00  0.00    +0.106 A 
ATOM     10  C   UNL     1       7.074  -3.529  -3.241  0.00  0.00    +0.030 A 
ATOM     11  C   UNL     1       6.302  -2.550  -3.832  0.00  0.00    +0.025 A 
ATOM     12  C   UNL     1       4.929  -2.722  -3.960  0.00  0.00    +0.031 A 
ATOM     13  N   UNL     1       4.171  -1.727  -4.597  0.00  0.00    -0.336 N 
ATOM     14  H   UNL     1       4.612  -0.935  -4.941  0.00  0.00    +0.147 HD
ENDROOT
BRANCH   1  18
ATOM     15  C   UNL     1       0.708  -0.490  -1.238  0.00  0.00    -0.045 A 
ATOM     16  C   UNL     1       0.055  -0.472  -2.456  0.00  0.00    +0.004 A 
ATOM     17  C   UNL     1       0.702  -0.918  -3.593  0.00  0.00    +0.006 A 
ATOM     18  C   UNL     1       2.002  -1.381  -3.513  0.00  0.00    -0.027 A 
ATOM     19  C   UNL     1       2.655  -1.398  -2.294  0.00  0.00    +0.006 A 
ATOM     20  C   UNL     1       2.010  -0.949  -1.158  0.00  0.00    +0.004 A 
BRANCH  15  22
ATOM     21  C   UNL     1      -0.405   1.459  -0.183  0.00  0.00    +0.012 C 
ATOM     22  C   UNL     1       0.003  -0.004   0.003  0.00  0.00    +0.013 C 
ATOM     23  C   UNL     1      -1.246  -0.855   0.246  0.00  0.00    +0.012 C 
ENDBRANCH  15  22
ENDBRANCH   1  18
BRANCH   9  24
ATOM     24  S   UNL     1       7.477  -5.940  -2.025  0.00  0.00    +0.061 S 
ATOM     25  O   UNL     1       8.649  -5.296  -1.544  0.00  0.00    -0.153 OA
ATOM     26  O   UNL     1       6.616  -6.688  -1.178  0.00  0.00    -0.153 OA
BRANCH  24  27
ATOM     27  N   UNL     1       7.962  -6.966  -3.232  0.00  0.00    -0.177 NA
ATOM     28  C   UNL     1       9.211  -6.711  -3.952  0.00  0.00    +0.132 C 
BRANCH  27  29
ATOM     29  C   UNL     1       7.140  -8.128  -3.579  0.00  0.00    +0.080 C 
ATOM     30  C   UNL     1       7.954  -9.408  -3.372  0.00  0.00    +0.020 C 
ATOM     31  C   UNL     1       7.097 -10.622  -3.734  0.00  0.00    +0.002 C 
ATOM     32  C   UNL     1       6.665 -10.523  -5.199  0.00  0.00    +0.000 C 
ATOM     33  C   UNL     1       5.852  -9.244  -5.406  0.00  0.00    +0.002 C 
ATOM     34  C   UNL     1       6.709  -8.030  -5.043  0.00  0.00    +0.020 C 
ENDBRANCH  27  29
ENDBRANCH  24  27
ENDBRANCH   9  24
TORSDOF 5
