REMARK  Name = ZINC37064685
REMARK  5 active torsions:
REMARK  status: ('A' for Active; 'I' for Inactive)
REMARK    1  A    between atoms: C_1  and  C_2
REMARK    2  A    between atoms: C_5  and  N_9
REMARK    3  A    between atoms: C_6  and  N_8
REMARK    4  A    between atoms: N_9  and  S_10
REMARK    5  A    between atoms: S_10  and  N_13
REMARK                            x       y       z     vdW  Elec       q    Type
REMARK                         _______ _______ _______ _____ _____    ______ ____
ROOT
ATOM      1  N   UNL     1       0.059  -4.175  -0.034  0.00  0.00    -0.205 N 
ATOM      2  H   UNL     1      -0.471  -4.662   0.617  0.00  0.00    +0.175 HD
ENDROOT
BRANCH   1   7
ATOM      3  C   UNL     1       0.683   1.448   0.450  0.00  0.00    +0.044 C 
ATOM      4  C   UNL     1       0.517  -0.044   0.325  0.00  0.00    -0.049 A 
ATOM      5  C   UNL     1       0.425  -0.625  -0.926  0.00  0.00    +0.005 A 
ATOM      6  C   UNL     1       0.273  -1.994  -1.048  0.00  0.00    +0.026 A 
ATOM      7  C   UNL     1       0.213  -2.789   0.087  0.00  0.00    +0.070 A 
ATOM      8  C   UNL     1       0.307  -2.203   1.349  0.00  0.00    +0.048 A 
ATOM      9  C   UNL     1       0.464  -0.830   1.462  0.00  0.00    +0.028 A 
BRANCH   8  10
ATOM     10  N   UNL     1       0.247  -2.999   2.499  0.00  0.00    -0.356 N 
ATOM     11  H   UNL     1       0.140  -3.960   2.419  0.00  0.00    +0.142 HD
ATOM     12  H   UNL     1       0.312  -2.590   3.376  0.00  0.00    +0.142 HD
ENDBRANCH   8  10
ENDBRANCH   1   7
BRANCH   1  13
ATOM     13  S   UNL     1       0.780  -4.982  -1.287  0.00  0.00    +0.112 S 
ATOM     14  O   UNL     1       0.556  -6.367  -1.060  0.00  0.00    -0.138 OA
ATOM     15  O   UNL     1       0.369  -4.330  -2.481  0.00  0.00    -0.138 OA
BRANCH  13  16
ATOM     16  N   UNL     1       2.412  -4.738  -1.152  0.00  0.00    -0.164 NA
ATOM     17  C   UNL     1       3.054  -3.590  -1.807  0.00  0.00    +0.111 C 
ATOM     18  C   UNL     1       3.857  -2.811  -0.760  0.00  0.00    +0.017 C 
ATOM     19  C   UNL     1       4.831  -3.761  -0.060  0.00  0.00    +0.003 C 
ATOM     20  C   UNL     1       4.047  -4.863   0.656  0.00  0.00    +0.017 C 
ATOM     21  C   UNL     1       3.245  -5.662  -0.369  0.00  0.00    +0.111 C 
ENDBRANCH  13  16
ENDBRANCH   1  13
TORSDOF 4
