REMARK  Name = ZINC32809990
REMARK  10 active torsions:
REMARK  status: ('A' for Active; 'I' for Inactive)
REMARK    1  A    between atoms: C_1  and  C_2
REMARK    2  A    between atoms: C_3  and  C_32
REMARK    3  A    between atoms: C_7  and  N_20
REMARK    4  A    between atoms: C_9  and  C_11
REMARK    5  A    between atoms: C_11  and  S_12
REMARK    6  A    between atoms: S_12  and  C_13
REMARK    7  A    between atoms: N_20  and  C_21
REMARK    8  A    between atoms: C_21  and  C_22
REMARK    9  A    between atoms: C_22  and  N_23
REMARK   10  A    between atoms: N_23  and  C_24
REMARK                            x       y       z     vdW  Elec       q    Type
REMARK                         _______ _______ _______ _____ _____    ______ ____
ROOT
ATOM      1  C   UNL     1       0.150   1.600  -0.089  0.00  0.00    +0.045 C 
ATOM      2  C   UNL     1      -0.571   2.036   1.160  0.00  0.00    -0.028 A 
ATOM      3  C   UNL     1      -1.817   2.526   1.087  0.00  0.00    -0.008 A 
ATOM      4  S   UNL     1      -2.222   2.887   2.786  0.00  0.00    -0.074 S 
ATOM      5  C   UNL     1      -0.703   2.378   3.546  0.00  0.00    +0.114 A 
ATOM      6  C   UNL     1       0.078   1.936   2.456  0.00  0.00    +0.051 A 
ATOM      7  C   UNL     1       1.377   1.463   2.789  0.00  0.00    +0.131 A 
ATOM      8  N   UNL     1       1.759   1.465   4.055  0.00  0.00    -0.216 NA
ATOM      9  C   UNL     1       0.973   1.894   5.027  0.00  0.00    +0.142 A 
ATOM     10  N   UNL     1      -0.241   2.345   4.780  0.00  0.00    -0.224 NA
ATOM     11  C   UNL     1      -2.672   2.724  -0.138  0.00  0.00    +0.052 C 
ENDROOT
BRANCH   7  12
ATOM     12  N   UNL     1       2.230   1.005   1.801  0.00  0.00    -0.330 N 
ATOM     13  H   UNL     1       1.872   0.913   0.764  0.00  0.00    +0.147 HD
BRANCH  12  14
ATOM     14  C   UNL     1       3.609   0.642   2.134  0.00  0.00    +0.084 C 
BRANCH  14  15
ATOM     15  C   UNL     1       4.332   0.170   0.871  0.00  0.00    -0.063 C 
BRANCH  15  16
ATOM     16  N   UNL     1       5.716  -0.194   1.206  0.00  0.00    +0.383 N 
ATOM     17  H   UNL     1       6.235   0.683   1.620  0.00  0.00    -0.085 HD
ATOM     18  H   UNL     1       5.712  -1.003   1.950  0.00  0.00    -0.085 HD
BRANCH  16  19
ATOM     19  C   UNL     1       6.442  -0.652   0.014  0.00  0.00    -0.049 C 
ATOM     20  C   UNL     1       6.202  -2.157  -0.194  0.00  0.00    +0.008 C 
ATOM     21  C   UNL     1       7.201  -2.712  -1.237  0.00  0.00    +0.164 C 
ATOM     22  S   UNL     1       8.645  -1.588  -1.051  0.00  0.00    -0.033 S 
ATOM     23  O   UNL     1       8.842  -0.883  -2.268  0.00  0.00    -0.174 OA
ATOM     24  O   UNL     1       9.726  -2.313  -0.480  0.00  0.00    -0.174 OA
ATOM     25  C   UNL     1       7.969  -0.428   0.211  0.00  0.00    +0.150 C 
ENDBRANCH  16  19
ENDBRANCH  15  16
ENDBRANCH  14  15
ENDBRANCH  12  14
ENDBRANCH   7  12
BRANCH   9  26
ATOM     26  C   UNL     1       1.476   1.869   6.447  0.00  0.00    +0.150 C 
BRANCH  26  27
ATOM     27  S   UNL     1       2.303   3.438   6.825  0.00  0.00    -0.117 S 
BRANCH  27  28
ATOM     28  C   UNL     1       2.826   3.253   8.497  0.00  0.00    +0.008 A 
ATOM     29  C   UNL     1       2.553   2.078   9.186  0.00  0.00    +0.016 A 
ATOM     30  C   UNL     1       2.969   1.934  10.495  0.00  0.00    +0.021 A 
ATOM     31  C   UNL     1       3.648   2.962  11.123  0.00  0.00    +0.041 A 
ATOM     32  C   UNL     1       3.918   4.136  10.441  0.00  0.00    +0.021 A 
ATOM     33  C   UNL     1       3.509   4.284   9.131  0.00  0.00    +0.016 A 
ATOM     34 CL   UNL     1       4.165   2.780  12.771  0.00  0.00    -0.084 Cl
ENDBRANCH  27  28
ENDBRANCH  26  27
ENDBRANCH   9  26
TORSDOF 8
