REMARK  Name = ZINC35894770
REMARK  9 active torsions:
REMARK  status: ('A' for Active; 'I' for Inactive)
REMARK    1  A    between atoms: C_1  and  C_2
REMARK    2  A    between atoms: C_2  and  C_3
REMARK    3  A    between atoms: C_2  and  C_4
REMARK    4  A    between atoms: C_4  and  N_5
REMARK    5  A    between atoms: C_6  and  C_8
REMARK    6  A    between atoms: C_13  and  N_33
REMARK    7  A    between atoms: N_21  and  C_24
REMARK    8  A    between atoms: C_29  and  O_30
REMARK    9  A    between atoms: O_30  and  C_31
REMARK                            x       y       z     vdW  Elec       q    Type
REMARK                         _______ _______ _______ _____ _____    ______ ____
ROOT
ATOM      1  C   UNL     1      -2.558  -4.183  -0.262  0.00  0.00    +0.101 C 
ATOM      2  C   UNL     1      -1.877  -4.569  -1.574  0.00  0.00    +0.051 C 
ATOM      3  C   UNL     1      -2.700  -4.039  -2.720  0.00  0.00    -0.023 A 
ATOM      4  C   UNL     1      -2.079  -3.706  -3.910  0.00  0.00    +0.038 A 
ATOM      5  C   UNL     1      -2.824  -3.209  -4.963  0.00  0.00    +0.127 A 
ATOM      6  C   UNL     1      -4.190  -3.043  -4.828  0.00  0.00    +0.034 A 
ATOM      7  C   UNL     1      -4.814  -3.378  -3.644  0.00  0.00    +0.025 A 
ATOM      8  C   UNL     1      -4.067  -3.884  -2.583  0.00  0.00    +0.033 A 
ATOM      9  N   UNL     1      -4.736  -4.240  -1.400  0.00  0.00    -0.323 N 
ATOM     10  C   UNL     1      -3.995  -4.711  -0.245  0.00  0.00    +0.103 C 
ATOM     11  C   UNL     1      -4.633  -4.323   1.078  0.00  0.00    +0.128 C 
ATOM     12  N   UNL     1      -6.079  -4.262   1.015  0.00  0.00    -0.324 N 
ATOM     13  C   UNL     1      -6.790  -3.697  -0.120  0.00  0.00    +0.124 C 
ATOM     14  C   UNL     1      -6.196  -4.160  -1.427  0.00  0.00    +0.124 C 
ENDROOT
BRANCH  12  15
ATOM     15  C   UNL     1      -6.822  -4.768   2.088  0.00  0.00    +0.073 A 
ATOM     16  C   UNL     1      -7.173  -3.938   3.143  0.00  0.00    +0.046 A 
ATOM     17  C   UNL     1      -7.907  -4.441   4.202  0.00  0.00    +0.043 A 
ATOM     18  C   UNL     1      -8.291  -5.770   4.213  0.00  0.00    +0.024 A 
ATOM     19  C   UNL     1      -7.944  -6.602   3.164  0.00  0.00    +0.049 A 
ATOM     20  C   UNL     1      -7.214  -6.105   2.097  0.00  0.00    +0.141 A 
ATOM     21 CL   UNL     1      -8.345  -3.402   5.522  0.00  0.00    -0.083 Cl
BRANCH  20  22
ATOM     22  O   UNL     1      -6.876  -6.921   1.063  0.00  0.00    -0.493 OA
ATOM     23  C   UNL     1      -7.313  -8.280   1.140  0.00  0.00    +0.277 C 
ENDBRANCH  20  22
ENDBRANCH  12  15
BRANCH   1  25
ATOM     24  N   UNL     1      -1.416  -1.993  -0.116  0.00  0.00    -0.315 N 
ATOM     25  C   UNL     1      -2.575  -2.682  -0.130  0.00  0.00    +0.218 C 
ATOM     26  O   UNL     1      -3.631  -2.093  -0.036  0.00  0.00    -0.275 OA
ATOM     27  H   UNL     1      -0.572  -2.463  -0.190  0.00  0.00    +0.149 HD
BRANCH  24  28
ATOM     28  C   UNL     1      -1.433  -0.534   0.013  0.00  0.00    +0.107 C 
BRANCH  28  30
ATOM     29  C   UNL     1      -0.019   1.526   0.010  0.00  0.00    +0.009 C 
ATOM     30  C   UNL     1       0.002  -0.004   0.002  0.00  0.00    -0.000 C 
ATOM     31  C   UNL     1       0.742  -0.511   1.242  0.00  0.00    +0.009 C 
ENDBRANCH  28  30
ENDBRANCH  24  28
ENDBRANCH   1  25
BRANCH   5  32
ATOM     32  N   UNL     1      -2.158  -2.855  -6.237  0.00  0.00    +0.056 N 
ATOM     33  O   UNL     1      -0.964  -2.999  -6.355  0.00  0.00    -0.126 OA
ATOM     34  O   UNL     1      -2.808  -2.420  -7.158  0.00  0.00    -0.126 OA
ENDBRANCH   5  32
TORSDOF 6
