REMARK  Name = ZINC20860258
REMARK  9 active torsions:
REMARK  status: ('A' for Active; 'I' for Inactive)
REMARK    1  A    between atoms: C_1  and  C_2
REMARK    2  A    between atoms: C_2  and  N_3
REMARK    3  A    between atoms: C_9  and  N_25
REMARK    4  A    between atoms: C_10  and  C_11
REMARK    5  A    between atoms: C_11  and  N_12
REMARK    6  A    between atoms: N_15  and  C_16
REMARK    7  A    between atoms: C_20  and  C_21
REMARK    8  A    between atoms: C_21  and  O_23
REMARK    9  A    between atoms: O_23  and  C_24
REMARK                            x       y       z     vdW  Elec       q    Type
REMARK                         _______ _______ _______ _____ _____    ______ ____
ROOT
ATOM      1  N   UNL     1       8.439  -1.264  -6.726  0.00  0.00    +0.383 N 
ATOM      2  C   UNL     1       8.251  -2.690  -6.423  0.00  0.00    -0.074 C 
ATOM      3  C   UNL     1       6.799  -2.957  -6.016  0.00  0.00    +0.018 C 
ATOM      4  C   UNL     1       5.887  -2.373  -7.092  0.00  0.00    -0.034 A 
ATOM      5  C   UNL     1       6.385  -1.452  -7.963  0.00  0.00    -0.021 A 
ATOM      6  S   UNL     1       5.008  -1.069  -9.009  0.00  0.00    -0.077 S 
ATOM      7  C   UNL     1       3.815  -2.159  -8.246  0.00  0.00    +0.089 A 
ATOM      8  C   UNL     1       4.550  -2.726  -7.251  0.00  0.00    +0.004 A 
ATOM      9  C   UNL     1       7.777  -0.910  -7.996  0.00  0.00    -0.035 C 
ATOM     10  H   UNL     1       7.975  -0.680  -5.918  0.00  0.00    -0.081 HD
ENDROOT
BRANCH   7  11
ATOM     11  N   UNL     1       2.474  -2.373  -8.583  0.00  0.00    -0.317 N 
ATOM     12  C   UNL     1       1.998  -2.624  -9.838  0.00  0.00    +0.092 A 
ATOM     13  C   UNL     1       0.660  -2.777  -9.759  0.00  0.00    +0.019 A 
ATOM     14  C   UNL     1       0.294  -2.604  -8.410  0.00  0.00    +0.019 A 
ATOM     15  C   UNL     1       1.422  -2.358  -7.712  0.00  0.00    +0.092 A 
ENDBRANCH   7  11
BRANCH   1  17
ATOM     16  C   UNL     1      10.021   0.602  -6.830  0.00  0.00    -0.017 C 
ATOM     17  C   UNL     1       9.866  -0.918  -6.762  0.00  0.00    -0.082 C 
ENDBRANCH   1  17
BRANCH   8  18
ATOM     18  C   UNL     1       3.919  -3.737  -6.328  0.00  0.00    +0.144 C 
BRANCH  18  19
ATOM     19  N   UNL     1       3.466  -3.067  -5.107  0.00  0.00    -0.295 N 
ATOM     20  C   UNL     1       2.868  -3.778  -4.131  0.00  0.00    +0.304 C 
ATOM     21  O   UNL     1       2.704  -4.975  -4.264  0.00  0.00    -0.252 OA
ATOM     22  N   UNL     1       2.451  -3.162  -3.007  0.00  0.00    -0.268 N 
ATOM     23  H   UNL     1       3.615  -1.984  -4.986  0.00  0.00    +0.151 HD
ATOM     24  H   UNL     1       2.537  -2.069  -2.915  0.00  0.00    +0.156 HD
BRANCH  22  25
ATOM     25  C   UNL     1       1.911  -3.909  -1.960  0.00  0.00    +0.056 A 
ATOM     26  C   UNL     1       1.428  -5.186  -2.158  0.00  0.00    +0.032 A 
ATOM     27  C   UNL     1       0.906  -5.867  -1.107  0.00  0.00    +0.048 A 
ATOM     28  S   UNL     1       1.073  -4.758   0.214  0.00  0.00    -0.088 S 
ATOM     29  C   UNL     1       1.836  -3.404  -0.662  0.00  0.00    +0.117 A 
BRANCH  29  30
ATOM     30  C   UNL     1       2.252  -2.145  -0.171  0.00  0.00    +0.347 C 
ATOM     31  O   UNL     1       2.760  -1.335  -0.924  0.00  0.00    -0.244 OA
BRANCH  30  32
ATOM     32  O   UNL     1       2.085  -1.842   1.134  0.00  0.00    -0.464 OA
ATOM     33  C   UNL     1       2.528  -0.552   1.562  0.00  0.00    +0.280 C 
ENDBRANCH  30  32
ENDBRANCH  29  30
ENDBRANCH  22  25
ENDBRANCH  18  19
ENDBRANCH   8  18
TORSDOF 7
