REMARK  Name = ZINC43575687
REMARK  5 active torsions:
REMARK  status: ('A' for Active; 'I' for Inactive)
REMARK    1  A    between atoms: C_1  and  C_2
REMARK    2  A    between atoms: C_5  and  N_9
REMARK    3  A    between atoms: C_7  and  C_8
REMARK    4  A    between atoms: C_10  and  C_14
REMARK    5  A    between atoms: C_17  and  N_21
REMARK                            x       y       z     vdW  Elec       q    Type
REMARK                         _______ _______ _______ _____ _____    ______ ____
ROOT
ATOM      1  N   UNL     1       0.092  -4.172  -0.050  0.00  0.00    -0.193 N 
ATOM      2  C   UNL     1      -0.627  -5.006  -0.855  0.00  0.00    +0.190 A 
ATOM      3  N   UNL     1      -0.344  -6.238  -0.480  0.00  0.00    -0.108 NA
ATOM      4  N   UNL     1       0.492  -6.231   0.494  0.00  0.00    -0.022 NA
ATOM      5  N   UNL     1       0.810  -5.022   0.810  0.00  0.00    -0.039 NA
ENDROOT
BRANCH   1  10
ATOM      6  C   UNL     1       0.185   1.501  -0.163  0.00  0.00    +0.044 C 
ATOM      7  C   UNL     1       0.160  -0.005  -0.133  0.00  0.00    -0.047 A 
ATOM      8  C   UNL     1       1.338  -0.712   0.029  0.00  0.00    +0.006 A 
ATOM      9  C   UNL     1       1.319  -2.092   0.057  0.00  0.00    +0.028 A 
ATOM     10  C   UNL     1       0.115  -2.771  -0.077  0.00  0.00    +0.070 A 
ATOM     11  C   UNL     1      -1.066  -2.059  -0.239  0.00  0.00    +0.031 A 
ATOM     12  C   UNL     1      -1.040  -0.678  -0.262  0.00  0.00    -0.046 A 
ATOM     13  C   UNL     1      -2.322   0.095  -0.432  0.00  0.00    +0.044 C 
ENDBRANCH   1  10
BRANCH   2  14
ATOM     14  C   UNL     1      -1.546  -4.606  -1.940  0.00  0.00    +0.056 A 
ATOM     15  C   UNL     1      -1.144  -3.660  -2.885  0.00  0.00    +0.016 A 
ATOM     16  C   UNL     1      -2.003  -3.288  -3.896  0.00  0.00    +0.023 A 
ATOM     17  C   UNL     1      -3.271  -3.855  -3.978  0.00  0.00    +0.027 A 
ATOM     18  C   UNL     1      -3.677  -4.797  -3.040  0.00  0.00    +0.061 A 
ATOM     19  C   UNL     1      -2.820  -5.178  -2.027  0.00  0.00    +0.136 A 
ATOM     20  F   UNL     1      -3.211  -6.098  -1.119  0.00  0.00    -0.205 F 
BRANCH  17  21
ATOM     21  N   UNL     1      -4.138  -3.476  -5.002  0.00  0.00    -0.358 N 
ATOM     22  H   UNL     1      -3.856  -2.818  -5.657  0.00  0.00    +0.142 HD
ATOM     23  H   UNL     1      -5.022  -3.870  -5.060  0.00  0.00    +0.142 HD
ENDBRANCH  17  21
ENDBRANCH   2  14
TORSDOF 3
