REMARK  Name = ZINC64600265
REMARK  8 active torsions:
REMARK  status: ('A' for Active; 'I' for Inactive)
REMARK    1  A    between atoms: C_1  and  C_2
REMARK    2  A    between atoms: C_2  and  N_3
REMARK    3  A    between atoms: C_10  and  N_14
REMARK    4  A    between atoms: C_15  and  C_17
REMARK    5  A    between atoms: N_19  and  C_20
REMARK    6  A    between atoms: C_20  and  C_22
REMARK    7  A    between atoms: C_20  and  C_23
REMARK    8  A    between atoms: C_23  and  C_24
REMARK                            x       y       z     vdW  Elec       q    Type
REMARK                         _______ _______ _______ _____ _____    ______ ____
ROOT
ATOM      1  N   UNL     1      -4.502  -0.378  -1.123  0.00  0.00    -0.292 N 
ATOM      2  C   UNL     1      -5.085  -0.597  -2.318  0.00  0.00    +0.300 C 
ATOM      3  O   UNL     1      -4.731  -1.534  -3.003  0.00  0.00    -0.265 OA
ATOM      4  H   UNL     1      -4.785   0.371  -0.576  0.00  0.00    +0.150 HD
ENDROOT
BRANCH   1  12
ATOM      5  N   UNL     1      -1.372  -0.511   0.012  0.00  0.00    -0.270 N 
ATOM      6  C   UNL     1      -2.093  -0.781   1.177  0.00  0.00    +0.042 A 
ATOM      7  C   UNL     1      -1.737  -0.656   2.518  0.00  0.00    +0.025 A 
ATOM      8  C   UNL     1      -2.637  -0.993   3.508  0.00  0.00    +0.017 A 
ATOM      9  C   UNL     1      -3.898  -1.456   3.179  0.00  0.00    +0.018 A 
ATOM     10  C   UNL     1      -4.259  -1.583   1.848  0.00  0.00    +0.023 A 
ATOM     11  C   UNL     1      -3.362  -1.248   0.858  0.00  0.00    +0.004 A 
ATOM     12  C   UNL     1      -3.441  -1.270  -0.651  0.00  0.00    +0.192 C 
ATOM     13  C   UNL     1      -2.086  -0.764  -1.098  0.00  0.00    +0.245 C 
ATOM     14  O   UNL     1      -1.714  -0.616  -2.243  0.00  0.00    -0.273 OA
ATOM     15 BR   UNL     1      -5.125  -1.917   4.542  0.00  0.00    -0.050 Br
BRANCH   5  17
ATOM     16  C   UNL     1      -0.019   1.526   0.010  0.00  0.00    +0.025 C 
ATOM     17  C   UNL     1       0.002  -0.004   0.002  0.00  0.00    +0.110 C 
ENDBRANCH   5  17
ENDBRANCH   1  12
BRANCH   2  18
ATOM     18  C   UNL     1      -6.168   0.314  -2.800  0.00  0.00    +0.299 C 
ATOM     19  O   UNL     1      -6.522   1.251  -2.115  0.00  0.00    -0.265 OA
ATOM     20  N   UNL     1      -6.752   0.094  -3.995  0.00  0.00    -0.305 N 
ATOM     21  H   UNL     1      -6.468  -0.655  -4.542  0.00  0.00    +0.149 HD
BRANCH  20  22
ATOM     22  C   UNL     1      -7.813   0.987  -4.467  0.00  0.00    +0.074 C 
ATOM     23  C   UNL     1      -7.189   2.200  -5.159  0.00  0.00    +0.028 C 
BRANCH  22  24
ATOM     24  C   UNL     1      -8.706   0.237  -5.458  0.00  0.00    +0.055 C 
BRANCH  24  25
ATOM     25  C   UNL     1      -9.416  -0.884  -4.745  0.00  0.00    -0.040 C 
ATOM     26  C   UNL     1     -10.659  -0.852  -4.213  0.00  0.00    -0.001 A 
ATOM     27  C   UNL     1     -11.682   0.198  -4.140  0.00  0.00    +0.010 A 
ATOM     28  C   UNL     1     -12.858  -0.072  -3.528  0.00  0.00    +0.001 A 
ATOM     29  C   UNL     1     -13.123  -1.327  -2.963  0.00  0.00    +0.002 A 
ATOM     30  C   UNL     1     -12.232  -2.342  -2.990  0.00  0.00    +0.026 A 
ATOM     31  C   UNL     1     -10.964  -2.168  -3.608  0.00  0.00    +0.043 A 
ATOM     32  N   UNL     1      -9.948  -2.983  -3.761  0.00  0.00    -0.380 N 
ATOM     33  C   UNL     1      -8.886  -2.277  -4.486  0.00  0.00    +0.144 C 
ATOM     34  H   UNL     1      -9.908  -3.901  -3.450  0.00  0.00    +0.160 HD
ENDBRANCH  24  25
ENDBRANCH  22  24
ENDBRANCH  20  22
ENDBRANCH   2  18
TORSDOF 6
