REMARK  Name = ZINC39359217
REMARK  7 active torsions:
REMARK  status: ('A' for Active; 'I' for Inactive)
REMARK    1  A    between atoms: C_1  and  O_2
REMARK    2  A    between atoms: O_2  and  C_3
REMARK    3  A    between atoms: C_6  and  C_11
REMARK    4  A    between atoms: C_8  and  O_9
REMARK    5  A    between atoms: O_9  and  C_10
REMARK    6  A    between atoms: C_16  and  C_26
REMARK    7  A    between atoms: C_19  and  O_25
REMARK                            x       y       z     vdW  Elec       q    Type
REMARK                         _______ _______ _______ _____ _____    ______ ____
ROOT
ATOM      1  C   UNL     1      -4.987  -2.627   0.035  0.00  0.00    +0.032 C 
ATOM      2  C   UNL     1      -5.774  -2.219   1.280  0.00  0.00    +0.059 C 
ATOM      3  C   UNL     1      -7.128  -2.899   1.278  0.00  0.00    +0.014 C 
ATOM      4  C   UNL     1      -7.745  -3.175   0.109  0.00  0.00    +0.023 C 
ATOM      5  C   UNL     1      -9.105  -3.855   0.049  0.00  0.00    +0.089 C 
ATOM      6  C   UNL     1      -9.639  -3.888   1.450  0.00  0.00    +0.048 C 
ATOM      7  C   UNL     1     -10.822  -3.694   1.990  0.00  0.00    +0.235 C 
ATOM      8  N   UNL     1     -10.728  -3.718   3.348  0.00  0.00    -0.114 NA
ATOM      9  N   UNL     1      -9.592  -3.956   3.778  0.00  0.00    -0.157 NA
ATOM     10  C   UNL     1      -8.713  -4.189   2.631  0.00  0.00    +0.245 C 
ATOM     11  N   UNL     1      -7.652  -3.185   2.514  0.00  0.00    -0.321 N 
ATOM     12  C   UNL     1      -7.152  -2.857  -1.124  0.00  0.00    +0.162 C 
ATOM     13  O   UNL     1      -7.749  -3.107  -2.153  0.00  0.00    -0.292 OA
ATOM     14  C   UNL     1      -5.794  -2.215  -1.201  0.00  0.00    +0.088 C 
ATOM     15  H   UNL     1      -7.323  -2.727   3.303  0.00  0.00    +0.148 HD
ENDROOT
BRANCH   5  16
ATOM     16  C   UNL     1     -10.034  -3.069  -0.839  0.00  0.00    -0.034 A 
ATOM     17  C   UNL     1     -10.334  -1.754  -0.535  0.00  0.00    +0.006 A 
ATOM     18  C   UNL     1     -11.186  -1.032  -1.349  0.00  0.00    +0.022 A 
ATOM     19  C   UNL     1     -11.740  -1.625  -2.469  0.00  0.00    +0.059 A 
ATOM     20  C   UNL     1     -11.439  -2.941  -2.775  0.00  0.00    +0.060 A 
ATOM     21  C   UNL     1     -10.582  -3.661  -1.962  0.00  0.00    +0.026 A 
ATOM     22 CL   UNL     1     -12.134  -3.687  -4.180  0.00  0.00    -0.082 Cl
ATOM     23 CL   UNL     1     -12.811  -0.719  -3.491  0.00  0.00    -0.082 Cl
ENDBRANCH   5  16
BRANCH   1  27
ATOM     24  C   UNL     1      -1.201  -0.638   0.010  0.00  0.00    +0.161 A 
ATOM     25  C   UNL     1      -2.374   0.099   0.019  0.00  0.00    +0.049 A 
ATOM     26  C   UNL     1      -3.596  -0.546   0.027  0.00  0.00    +0.008 A 
ATOM     27  C   UNL     1      -3.652  -1.928   0.026  0.00  0.00    -0.040 A 
ATOM     28  C   UNL     1      -2.485  -2.669   0.017  0.00  0.00    +0.053 A 
ATOM     29  C   UNL     1      -1.257  -2.028   0.003  0.00  0.00    +0.162 A 
BRANCH  24  31
ATOM     30  C   UNL     1      -0.017   1.425   0.010  0.00  0.00    +0.277 C 
ATOM     31  O   UNL     1       0.002  -0.004   0.002  0.00  0.00    -0.491 OA
ENDBRANCH  24  31
BRANCH  29  32
ATOM     32  O   UNL     1      -0.108  -2.756  -0.012  0.00  0.00    -0.491 OA
ATOM     33  C   UNL     1      -0.242  -4.179  -0.018  0.00  0.00    +0.277 C 
ENDBRANCH  29  32
ENDBRANCH   1  27
BRANCH   7  34
ATOM     34  O   UNL     1     -11.973  -3.499   1.294  0.00  0.00    -0.491 OA
ATOM     35  H   UNL     1     -12.753  -3.372   1.851  0.00  0.00    +0.294 HD
ENDBRANCH   7  34
TORSDOF 5
