REMARK  Name = ZINC48285979
REMARK  7 active torsions:
REMARK  status: ('A' for Active; 'I' for Inactive)
REMARK    1  A    between atoms: C_7  and  C_29
REMARK    2  A    between atoms: N_9  and  C_10
REMARK    3  A    between atoms: C_10  and  C_11
REMARK    4  A    between atoms: N_13  and  C_14
REMARK    5  A    between atoms: C_14  and  C_15
REMARK    6  A    between atoms: C_15  and  C_17
REMARK    7  A    between atoms: C_15  and  N_24
REMARK                            x       y       z     vdW  Elec       q    Type
REMARK                         _______ _______ _______ _____ _____    ______ ____
ROOT
ATOM      1  C   UNL     1       5.403  -0.397   1.319  0.00  0.00    +0.233 C 
ATOM      2  O   UNL     1       4.655  -0.667   2.234  0.00  0.00    -0.274 OA
ATOM      3  N   UNL     1       6.661   0.012   1.576  0.00  0.00    -0.315 N 
ATOM      4  H   UNL     1       7.260   0.228   0.844  0.00  0.00    +0.149 HD
ENDROOT
BRANCH   1   5
ATOM      5  C   UNL     1       4.926  -0.518  -0.105  0.00  0.00    +0.217 C 
BRANCH   5  14
ATOM      6  C   UNL     1      -0.104   0.961   0.194  0.00  0.00    +0.001 A 
ATOM      7  C   UNL     1       1.024   1.768   0.251  0.00  0.00    +0.002 A 
ATOM      8  C   UNL     1       2.284   1.220   0.157  0.00  0.00    +0.026 A 
ATOM      9  C   UNL     1       2.434  -0.155   0.003  0.00  0.00    +0.050 A 
ATOM     10  C   UNL     1       1.292  -0.969  -0.054  0.00  0.00    +0.012 A 
ATOM     11  C   UNL     1       0.024  -0.402   0.042  0.00  0.00    +0.011 A 
ATOM     12  C   UNL     1       1.787  -2.348  -0.218  0.00  0.00    +0.062 A 
ATOM     13  C   UNL     1       3.148  -2.269  -0.247  0.00  0.00    +0.100 A 
ATOM     14  N   UNL     1       3.535  -0.977  -0.117  0.00  0.00    -0.337 N 
BRANCH  12  15
ATOM     15  C   UNL     1       0.975  -3.567  -0.327  0.00  0.00    +0.244 C 
ATOM     16  O   UNL     1      -0.239  -3.496  -0.285  0.00  0.00    -0.270 OA
ATOM     17  N   UNL     1       1.575  -4.766  -0.474  0.00  0.00    -0.325 N 
ATOM     18  H   UNL     1       2.542  -4.823  -0.508  0.00  0.00    +0.145 HD
ATOM     19  H   UNL     1       1.038  -5.571  -0.546  0.00  0.00    +0.145 HD
ENDBRANCH  12  15
ENDBRANCH   5  14
ENDBRANCH   1   5
BRANCH   3  20
ATOM     20  C   UNL     1       7.125   0.130   2.961  0.00  0.00    +0.093 C 
BRANCH  20  21
ATOM     21  C   UNL     1       8.608   0.505   2.972  0.00  0.00    -0.020 C 
BRANCH  21  22
ATOM     22  C   UNL     1       8.781   1.884   2.388  0.00  0.00    -0.058 A 
ATOM     23  C   UNL     1       8.534   3.000   3.166  0.00  0.00    +0.002 A 
ATOM     24  C   UNL     1       8.692   4.265   2.631  0.00  0.00    +0.002 A 
ATOM     25  C   UNL     1       9.098   4.414   1.319  0.00  0.00    +0.020 A 
ATOM     26  C   UNL     1       9.347   3.298   0.540  0.00  0.00    +0.041 A 
ATOM     27  C   UNL     1       9.193   2.032   1.077  0.00  0.00    +0.022 A 
ATOM     28 CL   UNL     1       9.857   3.485  -1.109  0.00  0.00    -0.084 Cl
ENDBRANCH  21  22
BRANCH  21  29
ATOM     29  N   UNL     1       9.106   0.492   4.354  0.00  0.00    +0.385 N 
ATOM     30  C   UNL     1       9.010  -0.877   4.920  0.00  0.00    -0.078 C 
ATOM     31  C   UNL     1      10.041  -0.856   6.077  0.00  0.00    -0.020 C 
ATOM     32  C   UNL     1      11.190   0.003   5.501  0.00  0.00    -0.020 C 
ATOM     33  C   UNL     1      10.543   0.841   4.381  0.00  0.00    -0.078 C 
ATOM     34  H   UNL     1       8.580   1.142   4.920  0.00  0.00    -0.081 HD
ENDBRANCH  21  29
ENDBRANCH  20  21
ENDBRANCH   3  20
TORSDOF 7
