REMARK  Name = ZINC43525950
REMARK  8 active torsions:
REMARK  status: ('A' for Active; 'I' for Inactive)
REMARK    1  A    between atoms: C_1  and  N_2
REMARK    2  A    between atoms: C_3  and  C_14
REMARK    3  A    between atoms: C_5  and  C_7
REMARK    4  A    between atoms: C_23  and  C_25
REMARK    5  A    between atoms: C_25  and  N_26
REMARK    6  A    between atoms: N_26  and  C_27
REMARK    7  A    between atoms: C_27  and  N_29
REMARK    8  A    between atoms: N_29  and  C_30
REMARK                            x       y       z     vdW  Elec       q    Type
REMARK                         _______ _______ _______ _____ _____    ______ ____
ROOT
ATOM      1  C   UNL     1      -0.327   0.454  -3.106  0.00  0.00    +0.024 C 
ATOM      2  C   UNL     1       1.163   0.181  -3.320  0.00  0.00    -0.068 C 
ATOM      3  N   UNL     1       1.360  -0.600  -4.543  0.00  0.00    +0.383 N 
ATOM      4  C   UNL     1       0.687  -1.897  -4.441  0.00  0.00    -0.078 C 
ATOM      5  C   UNL     1      -0.820  -1.693  -4.264  0.00  0.00    -0.015 C 
ATOM      6  C   UNL     1      -1.120  -0.185  -4.254  0.00  0.00    -0.007 C 
ATOM      7  C   UNL     1      -0.625   0.415  -5.577  0.00  0.00    -0.010 C 
ATOM      8  C   UNL     1       0.877   0.141  -5.711  0.00  0.00    -0.051 C 
ATOM      9  H   UNL     1       2.348  -0.769  -4.659  0.00  0.00    -0.081 HD
ENDROOT
BRANCH   1  12
ATOM     10  C   UNL     1      -2.943   1.086  -1.574  0.00  0.00    +0.172 C 
ATOM     11  N   UNL     1      -1.912   0.141  -1.137  0.00  0.00    -0.271 N 
ATOM     12  C   UNL     1      -0.767  -0.143  -1.794  0.00  0.00    +0.041 A 
ATOM     13  C   UNL     1      -0.086  -1.057  -1.070  0.00  0.00    +0.053 A 
ATOM     14  C   UNL     1      -0.843  -1.347   0.082  0.00  0.00    +0.093 A 
ATOM     15  N   UNL     1      -1.939  -0.619   0.040  0.00  0.00    -0.171 NA
BRANCH  14  16
ATOM     16  C   UNL     1      -0.469  -2.300   1.156  0.00  0.00    +0.002 A 
ATOM     17  C   UNL     1       0.732  -3.002   1.080  0.00  0.00    +0.013 A 
ATOM     18  C   UNL     1       1.076  -3.887   2.081  0.00  0.00    +0.039 A 
ATOM     19  C   UNL     1       0.228  -4.080   3.160  0.00  0.00    +0.123 A 
ATOM     20  C   UNL     1      -0.967  -3.384   3.239  0.00  0.00    +0.039 A 
ATOM     21  C   UNL     1      -1.316  -2.492   2.246  0.00  0.00    +0.013 A 
ATOM     22  F   UNL     1       0.568  -4.949   4.137  0.00  0.00    -0.205 F 
ENDBRANCH  14  16
ENDBRANCH   1  12
BRANCH   8  23
ATOM     23  C   UNL     1       1.134  -0.681  -6.976  0.00  0.00    +0.088 C 
BRANCH  23  24
ATOM     24  N   UNL     1       2.554  -1.032  -7.051  0.00  0.00    -0.328 N 
ATOM     25  H   UNL     1       3.163  -0.740  -6.354  0.00  0.00    +0.148 HD
BRANCH  24  26
ATOM     26  C   UNL     1       3.014  -1.760  -8.087  0.00  0.00    +0.134 C 
ATOM     27  S   UNL     1       1.940  -2.275  -9.316  0.00  0.00    -0.019 S 
BRANCH  26  28
ATOM     28  N   UNL     1       4.321  -2.082  -8.156  0.00  0.00    -0.297 N 
ATOM     29  H   UNL     1       4.915  -1.860  -7.422  0.00  0.00    +0.154 HD
BRANCH  28  30
ATOM     30  C   UNL     1       4.821  -2.737  -9.287  0.00  0.00    +0.033 A 
ATOM     31  C   UNL     1       4.402  -2.356 -10.555  0.00  0.00    +0.023 A 
ATOM     32  C   UNL     1       4.897  -3.005 -11.668  0.00  0.00    +0.002 A 
ATOM     33  C   UNL     1       5.810  -4.033 -11.523  0.00  0.00    +0.000 A 
ATOM     34  C   UNL     1       6.230  -4.415 -10.262  0.00  0.00    +0.002 A 
ATOM     35  C   UNL     1       5.743  -3.767  -9.144  0.00  0.00    +0.023 A 
ENDBRANCH  28  30
ENDBRANCH  26  28
ENDBRANCH  24  26
ENDBRANCH  23  24
ENDBRANCH   8  23
TORSDOF 7
