REMARK  Name = ZINC56546698
REMARK  4 active torsions:
REMARK  status: ('A' for Active; 'I' for Inactive)
REMARK    1  A    between atoms: C_1  and  C_2
REMARK    2  A    between atoms: C_8  and  N_10
REMARK    3  A    between atoms: N_13  and  N_14
REMARK    4  A    between atoms: N_17  and  C_18
REMARK                            x       y       z     vdW  Elec       q    Type
REMARK                         _______ _______ _______ _____ _____    ______ ____
ROOT
ATOM      1  N   UNL     1       0.052  -0.058   2.452  0.00  0.00    -0.295 N 
ATOM      2  C   UNL     1       0.733   0.072   3.608  0.00  0.00    +0.316 C 
ATOM      3  O   UNL     1       1.915  -0.209   3.652  0.00  0.00    -0.251 OA
ATOM      4  N   UNL     1       0.104   0.514   4.715  0.00  0.00    -0.217 N 
ATOM      5  H   UNL     1      -0.891   0.167   2.417  0.00  0.00    +0.151 HD
ATOM      6  H   UNL     1       0.594   0.607   5.546  0.00  0.00    +0.174 HD
ENDROOT
BRANCH   1  13
ATOM      7  C   UNL     1      -0.010   1.501   0.012  0.00  0.00    +0.009 C 
ATOM      8  C   UNL     1       0.001  -0.029   0.007  0.00  0.00    +0.006 C 
ATOM      9  C   UNL     1      -1.438  -0.549   0.017  0.00  0.00    +0.005 C 
ATOM     10  C   UNL     1      -1.427  -2.079   0.013  0.00  0.00    +0.000 C 
ATOM     11  C   UNL     1      -0.692  -2.587   1.254  0.00  0.00    +0.002 C 
ATOM     12  C   UNL     1       0.747  -2.067   1.244  0.00  0.00    +0.022 C 
ATOM     13  C   UNL     1       0.736  -0.537   1.249  0.00  0.00    +0.077 C 
ENDBRANCH   1  13
BRANCH   4  14
ATOM     14  N   UNL     1      -1.258   0.838   4.664  0.00  0.00    -0.217 N 
ATOM     15  C   UNL     1      -1.887   1.279   5.771  0.00  0.00    +0.320 C 
ATOM     16  O   UNL     1      -3.070   1.560   5.727  0.00  0.00    -0.251 OA
ATOM     17  N   UNL     1      -1.206   1.409   6.927  0.00  0.00    -0.268 N 
ATOM     18  H   UNL     1      -1.748   0.744   3.832  0.00  0.00    +0.174 HD
ATOM     19  H   UNL     1      -0.281   1.122   6.980  0.00  0.00    +0.156 HD
BRANCH  17  20
ATOM     20  C   UNL     1      -1.834   1.959   8.051  0.00  0.00    +0.035 A 
ATOM     21  C   UNL     1      -1.112   2.753   8.931  0.00  0.00    +0.024 A 
ATOM     22  C   UNL     1      -1.734   3.295  10.040  0.00  0.00    +0.017 A 
ATOM     23  C   UNL     1      -3.074   3.046  10.273  0.00  0.00    +0.018 A 
ATOM     24  C   UNL     1      -3.796   2.254   9.397  0.00  0.00    +0.017 A 
ATOM     25  C   UNL     1      -3.181   1.715   8.284  0.00  0.00    +0.024 A 
ATOM     26 BR   UNL     1      -3.922   3.789  11.791  0.00  0.00    -0.050 Br
ENDBRANCH  17  20
ENDBRANCH   4  14
TORSDOF 3
