REMARK  Name = ZINC09325736
REMARK  9 active torsions:
REMARK  status: ('A' for Active; 'I' for Inactive)
REMARK    1  A    between atoms: C_1  and  C_2
REMARK    2  A    between atoms: C_5  and  S_8
REMARK    3  A    between atoms: S_8  and  N_11
REMARK    4  A    between atoms: N_11  and  C_12
REMARK    5  A    between atoms: C_17  and  C_18
REMARK    6  A    between atoms: C_18  and  N_20
REMARK    7  A    between atoms: N_22  and  C_33
REMARK    8  A    between atoms: C_24  and  O_31
REMARK    9  A    between atoms: O_31  and  C_32
REMARK                            x       y       z     vdW  Elec       q    Type
REMARK                         _______ _______ _______ _____ _____    ______ ____
ROOT
ATOM      1  C   UNL     1      -4.841   9.066  -0.079  0.00  0.00    +0.060 A 
ATOM      2  C   UNL     1      -5.109  10.429  -0.134  0.00  0.00    +0.025 A 
ATOM      3  C   UNL     1      -4.077  11.329  -0.306  0.00  0.00    +0.002 A 
ATOM      4  C   UNL     1      -2.770  10.884  -0.420  0.00  0.00    +0.001 A 
ATOM      5  C   UNL     1      -2.486   9.537  -0.363  0.00  0.00    +0.015 A 
ATOM      6  C   UNL     1      -3.518   8.614  -0.188  0.00  0.00    +0.061 A 
ENDROOT
BRANCH   1   7
ATOM      7  N   UNL     1      -5.878   8.157   0.089  0.00  0.00    -0.216 N 
ATOM      8  H   UNL     1      -5.740   7.355   0.618  0.00  0.00    +0.174 HD
BRANCH   7   9
ATOM      9  S   UNL     1      -7.351   8.441  -0.613  0.00  0.00    +0.072 S 
ATOM     10  O   UNL     1      -8.145   7.287  -0.374  0.00  0.00    -0.150 OA
ATOM     11  O   UNL     1      -7.752   9.741  -0.202  0.00  0.00    -0.150 OA
BRANCH   9  16
ATOM     12  C   UNL     1      -6.462   8.716  -6.575  0.00  0.00    +0.044 C 
ATOM     13  C   UNL     1      -6.683   8.648  -5.086  0.00  0.00    -0.050 A 
ATOM     14  C   UNL     1      -6.973   7.437  -4.485  0.00  0.00    +0.005 A 
ATOM     15  C   UNL     1      -7.177   7.374  -3.119  0.00  0.00    +0.029 A 
ATOM     16  C   UNL     1      -7.091   8.522  -2.354  0.00  0.00    +0.109 A 
ATOM     17  C   UNL     1      -6.806   9.733  -2.955  0.00  0.00    +0.029 A 
ATOM     18  C   UNL     1      -6.597   9.795  -4.320  0.00  0.00    +0.005 A 
ENDBRANCH   9  16
ENDBRANCH   7   9
ENDBRANCH   1   7
BRANCH   6  19
ATOM     19  C   UNL     1      -3.219   7.168  -0.125  0.00  0.00    +0.271 C 
ATOM     20  O   UNL     1      -4.124   6.365   0.027  0.00  0.00    -0.268 OA
BRANCH  19  21
ATOM     21  N   UNL     1      -1.957   6.740  -0.236  0.00  0.00    -0.152 NA
ATOM     22  C   UNL     1      -1.688   5.441  -0.179  0.00  0.00    +0.167 A 
ATOM     23  N   UNL     1      -0.479   4.824  -0.272  0.00  0.00    -0.321 N 
ATOM     24  C   UNL     1      -0.397   3.444  -0.191  0.00  0.00    +0.101 A 
ATOM     25  C   UNL     1       0.751   2.632  -0.263  0.00  0.00    +0.145 A 
ATOM     26  C   UNL     1       0.650   1.261  -0.162  0.00  0.00    +0.049 A 
ATOM     27  C   UNL     1      -0.578   0.643   0.012  0.00  0.00    +0.025 A 
ATOM     28  C   UNL     1      -1.722   1.419   0.081  0.00  0.00    +0.057 A 
ATOM     29  C   UNL     1      -1.623   2.790  -0.013  0.00  0.00    +0.061 A 
ATOM     30  S   UNL     1      -2.795   4.122   0.028  0.00  0.00    -0.050 S 
ATOM     31 CL   UNL     1      -3.273   0.670   0.292  0.00  0.00    -0.082 Cl
ATOM     32  C   UNL     1       0.736   5.620  -0.457  0.00  0.00    +0.151 C 
BRANCH  25  33
ATOM     33  O   UNL     1       1.972   3.206  -0.434  0.00  0.00    -0.493 OA
ATOM     34  C   UNL     1       3.098   2.329  -0.500  0.00  0.00    +0.277 C 
ENDBRANCH  25  33
ENDBRANCH  19  21
ENDBRANCH   6  19
TORSDOF 6
