REMARK  Name = ZINC06828571
REMARK  2 active torsions:
REMARK  status: ('A' for Active; 'I' for Inactive)
REMARK    1  A    between atoms: N_3  and  C_11
REMARK    2  A    between atoms: C_7  and  C_9
REMARK                            x       y       z     vdW  Elec       q    Type
REMARK                         _______ _______ _______ _____ _____    ______ ____
ROOT
ATOM      1  C   UNL     1      -2.066   3.807   4.559  0.00  0.00    +0.065 A 
ATOM      2  C   UNL     1      -1.247   3.117   3.734  0.00  0.00    +0.111 A 
ATOM      3  N   UNL     1      -1.435   3.582   2.481  0.00  0.00    -0.264 N 
ATOM      4  N   UNL     1      -2.397   4.599   2.535  0.00  0.00    -0.155 NA
ATOM      5  C   UNL     1      -2.777   4.736   3.783  0.00  0.00    +0.147 A 
ATOM      6  N   UNL     1      -3.728   5.650   4.259  0.00  0.00    -0.268 N 
ATOM      7  C   UNL     1      -4.028   5.687   5.572  0.00  0.00    +0.233 C 
ATOM      8  O   UNL     1      -3.476   4.930   6.343  0.00  0.00    -0.274 OA
ATOM      9  H   UNL     1      -4.169   6.255   3.643  0.00  0.00    +0.156 HD
ENDROOT
BRANCH   3  10
ATOM     10  C   UNL     1      -0.750   3.109   1.275  0.00  0.00    +0.064 C 
ATOM     11  C   UNL     1      -0.729   1.579   1.267  0.00  0.00    +0.033 C 
ATOM     12  C   UNL     1      -0.013   1.086   0.008  0.00  0.00    -0.008 C 
ATOM     13  C   UNL     1      -0.753   1.593  -1.232  0.00  0.00    +0.007 C 
ATOM     14  C   UNL     1      -0.773   3.123  -1.223  0.00  0.00    -0.008 C 
ATOM     15  C   UNL     1      -1.490   3.616   0.036  0.00  0.00    +0.033 C 
ATOM     16  C   UNL     1       0.662   3.652  -1.234  0.00  0.00    +0.007 C 
ATOM     17  C   UNL     1       1.402   3.145   0.006  0.00  0.00    -0.008 C 
ATOM     18  C   UNL     1       1.423   1.615  -0.003  0.00  0.00    +0.007 C 
ATOM     19  C   UNL     1       0.686   3.639   1.264  0.00  0.00    +0.033 C 
ENDBRANCH   3  10
BRANCH   7  20
ATOM     20  C   UNL     1      -5.050   6.670   6.083  0.00  0.00    +0.204 C 
ATOM     21 CL   UNL     1      -5.230   6.477   7.867  0.00  0.00    -0.116 Cl
ENDBRANCH   7  20
TORSDOF 2
