REMARK  Name = ZINC08886752
REMARK  5 active torsions:
REMARK  status: ('A' for Active; 'I' for Inactive)
REMARK    1  A    between atoms: C_1  and  C_2
REMARK    2  A    between atoms: C_2  and  C_24
REMARK    3  A    between atoms: N_5  and  C_9
REMARK    4  A    between atoms: C_9  and  C_10
REMARK    5  A    between atoms: N_12  and  C_13
REMARK                            x       y       z     vdW  Elec       q    Type
REMARK                         _______ _______ _______ _____ _____    ______ ____
ROOT
ATOM      1  C   UNL     1      -2.081   1.868  -1.229  0.00  0.00    +0.047 C 
ATOM      2  C   UNL     1      -1.234   2.103   0.024  0.00  0.00    +0.135 C 
ATOM      3  C   UNL     1      -0.011   1.208   0.017  0.00  0.00    +0.251 C 
ATOM      4  O   UNL     1       0.009  -0.004   0.018  0.00  0.00    -0.272 OA
ATOM      5  N   UNL     1       1.050   2.039   0.003  0.00  0.00    -0.215 N 
ATOM      6  C   UNL     1       0.671   3.322   0.005  0.00  0.00    +0.310 C 
ATOM      7  O   UNL     1       1.448   4.256  -0.005  0.00  0.00    -0.252 OA
ATOM      8  N   UNL     1      -0.667   3.463   0.020  0.00  0.00    -0.281 N 
ATOM      9  H   UNL     1      -1.162   4.297   0.024  0.00  0.00    +0.152 HD
ENDROOT
BRANCH   2  10
ATOM     10  C   UNL     1      -2.051   1.875   1.269  0.00  0.00    -0.015 A 
ATOM     11  C   UNL     1      -2.049   0.618   1.871  0.00  0.00    +0.007 A 
ATOM     12  C   UNL     1      -2.776   0.379   2.996  0.00  0.00    +0.009 A 
ATOM     13  C   UNL     1      -3.542   1.413   3.562  0.00  0.00    -0.018 A 
ATOM     14  C   UNL     1      -4.304   1.204   4.724  0.00  0.00    +0.008 A 
ATOM     15  C   UNL     1      -5.033   2.229   5.245  0.00  0.00    +0.001 A 
ATOM     16  C   UNL     1      -5.036   3.486   4.642  0.00  0.00    +0.001 A 
ATOM     17  C   UNL     1      -4.309   3.725   3.517  0.00  0.00    +0.008 A 
ATOM     18  C   UNL     1      -3.544   2.691   2.950  0.00  0.00    -0.018 A 
ATOM     19  C   UNL     1      -2.776   2.902   1.792  0.00  0.00    +0.014 A 
ENDBRANCH   2  10
BRANCH   5  20
ATOM     20  C   UNL     1       2.445   1.593  -0.011  0.00  0.00    +0.214 C 
BRANCH  20  21
ATOM     21  C   UNL     1       2.908   1.437  -1.437  0.00  0.00    +0.235 C 
ATOM     22  O   UNL     1       2.147   1.675  -2.351  0.00  0.00    -0.274 OA
ATOM     23  N   UNL     1       4.167   1.033  -1.696  0.00  0.00    -0.284 N 
ATOM     24  H   UNL     1       4.796   0.907  -0.968  0.00  0.00    +0.155 HD
BRANCH  23  25
ATOM     25  C   UNL     1       4.568   0.794  -3.017  0.00  0.00    +0.037 A 
ATOM     26  C   UNL     1       5.471  -0.223  -3.295  0.00  0.00    +0.027 A 
ATOM     27  C   UNL     1       5.862  -0.464  -4.598  0.00  0.00    +0.051 A 
ATOM     28  C   UNL     1       5.366   0.318  -5.629  0.00  0.00    +0.173 A 
ATOM     29  C   UNL     1       4.465   1.343  -5.352  0.00  0.00    +0.174 A 
ATOM     30  C   UNL     1       4.068   1.579  -4.047  0.00  0.00    +0.073 A 
ATOM     31  O   UNL     1       4.129   1.957  -6.524  0.00  0.00    -0.395 OA
ATOM     32  C   UNL     1       4.516   1.039  -7.564  0.00  0.00    +0.589 C 
ATOM     33  O   UNL     1       5.595   0.290  -6.976  0.00  0.00    -0.395 OA
ATOM     34  F   UNL     1       3.451   0.193  -7.893  0.00  0.00    -0.125 F 
ATOM     35  F   UNL     1       4.956   1.735  -8.695  0.00  0.00    -0.125 F 
ENDBRANCH  23  25
ENDBRANCH  20  21
ENDBRANCH   5  20
TORSDOF 4
