REMARK  Name = ZINC02026097
REMARK  8 active torsions:
REMARK  status: ('A' for Active; 'I' for Inactive)
REMARK    1  A    between atoms: C_1  and  C_2
REMARK    2  A    between atoms: C_2  and  C_3
REMARK    3  A    between atoms: C_3  and  C_4
REMARK    4  A    between atoms: C_4  and  O_5
REMARK    5  A    between atoms: O_5  and  C_6
REMARK    6  A    between atoms: C_9  and  C_12
REMARK    7  A    between atoms: C_17  and  C_30
REMARK    8  A    between atoms: C_33  and  N_36
REMARK                            x       y       z     vdW  Elec       q    Type
REMARK                         _______ _______ _______ _____ _____    ______ ____
ROOT
ATOM      1  C   UNL     1       3.858   2.876   0.547  0.00  0.00    +0.031 C 
ATOM      2  C   UNL     1       3.164   3.153  -0.791  0.00  0.00    +0.045 C 
ATOM      3  C   UNL     1       1.715   2.746  -0.680  0.00  0.00    -0.029 C 
ATOM      4  C   UNL     1       1.406   1.605  -0.003  0.00  0.00    +0.023 C 
ATOM      5  C   UNL     1      -0.013   1.089   0.008  0.00  0.00    +0.135 C 
ATOM      6  N   UNL     1      -0.743   1.567  -1.167  0.00  0.00    -0.332 N 
ATOM      7  C   UNL     1      -0.486   2.827  -1.681  0.00  0.00    +0.036 A 
ATOM      8  C   UNL     1       0.706   3.486  -1.329  0.00  0.00    +0.007 A 
ATOM      9  C   UNL     1       0.816   4.906  -1.644  0.00  0.00    -0.009 A 
ATOM     10  C   UNL     1       1.766   5.742  -1.052  0.00  0.00    +0.009 A 
ATOM     11  C   UNL     1       1.875   7.043  -1.448  0.00  0.00    +0.001 A 
ATOM     12  C   UNL     1       1.035   7.564  -2.427  0.00  0.00    +0.001 A 
ATOM     13  C   UNL     1       0.044   6.802  -2.970  0.00  0.00    +0.008 A 
ATOM     14  C   UNL     1      -0.128   5.478  -2.537  0.00  0.00    -0.017 A 
ATOM     15  C   UNL     1      -1.244   4.723  -2.946  0.00  0.00    +0.010 A 
ATOM     16  C   UNL     1      -1.433   3.459  -2.487  0.00  0.00    +0.024 A 
ATOM     17  C   UNL     1       2.384   0.887   0.700  0.00  0.00    +0.162 C 
ATOM     18  O   UNL     1       2.077  -0.160   1.243  0.00  0.00    -0.292 OA
ATOM     19  C   UNL     1       3.807   1.366   0.803  0.00  0.00    +0.088 C 
ATOM     20  H   UNL     1      -1.414   0.997  -1.590  0.00  0.00    +0.147 HD
ENDROOT
BRANCH   1  24
ATOM     21  C   UNL     1       7.926   4.170   0.352  0.00  0.00    +0.121 A 
ATOM     22  C   UNL     1       7.066   4.720   1.292  0.00  0.00    +0.046 A 
ATOM     23  C   UNL     1       5.751   4.300   1.353  0.00  0.00    +0.007 A 
ATOM     24  C   UNL     1       5.292   3.332   0.478  0.00  0.00    -0.043 A 
ATOM     25  C   UNL     1       6.149   2.778  -0.456  0.00  0.00    +0.007 A 
ATOM     26  C   UNL     1       7.463   3.199  -0.524  0.00  0.00    +0.046 A 
BRANCH  21  27
ATOM     27  O   UNL     1       9.220   4.581   0.291  0.00  0.00    -0.492 OA
BRANCH  27  28
ATOM     28  C   UNL     1      10.048   3.971  -0.702  0.00  0.00    +0.229 C 
BRANCH  28  29
ATOM     29  C   UNL     1      11.459   4.557  -0.619  0.00  0.00    +0.041 C 
BRANCH  29  31
ATOM     30  C   UNL     1      13.756   4.489  -1.598  0.00  0.00    +0.004 C 
ATOM     31  C   UNL     1      12.345   3.904  -1.681  0.00  0.00    -0.000 C 
ENDBRANCH  29  31
ENDBRANCH  28  29
ENDBRANCH  27  28
ENDBRANCH  21  27
ENDBRANCH   1  24
BRANCH   5  32
ATOM     32  C   UNL     1      -0.711   1.561   1.257  0.00  0.00    -0.023 A 
ATOM     33  C   UNL     1      -1.222   2.844   1.321  0.00  0.00    +0.008 A 
ATOM     34  C   UNL     1      -1.866   3.276   2.465  0.00  0.00    +0.033 A 
ATOM     35  C   UNL     1      -1.991   2.428   3.550  0.00  0.00    +0.126 A 
ATOM     36  C   UNL     1      -1.475   1.146   3.488  0.00  0.00    +0.033 A 
ATOM     37  C   UNL     1      -0.835   0.713   2.342  0.00  0.00    +0.008 A 
BRANCH  35  38
ATOM     38  N   UNL     1      -2.675   2.892   4.777  0.00  0.00    +0.056 N 
ATOM     39  O   UNL     1      -2.785   2.144   5.733  0.00  0.00    -0.126 OA
ATOM     40  O   UNL     1      -3.130   4.020   4.832  0.00  0.00    -0.126 OA
ENDBRANCH  35  38
ENDBRANCH   5  32
TORSDOF 7
