REMARK  Name = ZINC40689076
REMARK  7 active torsions:
REMARK  status: ('A' for Active; 'I' for Inactive)
REMARK    1  A    between atoms: C_1  and  C_2
REMARK    2  A    between atoms: C_2  and  C_3
REMARK    3  A    between atoms: C_3  and  O_41
REMARK    4  A    between atoms: C_15  and  C_39
REMARK    5  A    between atoms: C_19  and  C_31
REMARK    6  A    between atoms: C_31  and  N_32
REMARK    7  A    between atoms: C_35  and  C_38
REMARK                            x       y       z     vdW  Elec       q    Type
REMARK                         _______ _______ _______ _____ _____    ______ ____
ROOT
ATOM      1  C   UNL     1       1.202  -0.278  -1.546  0.00  0.00    +0.162 C 
ATOM      2  C   UNL     1       1.309  -1.800  -1.492  0.00  0.00    +0.054 C 
ATOM      3  C   UNL     1       1.255  -2.390  -2.883  0.00  0.00    +0.032 C 
ATOM      4  C   UNL     1      -0.114  -2.848  -3.287  0.00  0.00    +0.003 C 
ATOM      5  C   UNL     1      -0.360  -3.013  -4.597  0.00  0.00    +0.058 C 
ATOM      6  C   UNL     1      -1.557  -3.565  -5.229  0.00  0.00    +0.085 C 
ATOM      7  N   UNL     1      -2.674  -4.012  -4.726  0.00  0.00    -0.273 NA
ATOM      8  C   UNL     1      -3.618  -4.707  -5.607  0.00  0.00    +0.141 C 
ATOM      9  C   UNL     1      -3.253  -6.169  -5.651  0.00  0.00    +0.020 C 
ATOM     10  C   UNL     1      -3.619  -6.928  -6.677  0.00  0.00    +0.042 C 
ATOM     11  C   UNL     1      -4.399  -6.342  -7.780  0.00  0.00    -0.036 C 
ATOM     12  C   UNL     1      -4.418  -5.024  -7.943  0.00  0.00    -0.012 C 
ATOM     13  C   UNL     1      -3.647  -4.136  -7.011  0.00  0.00    +0.065 C 
ATOM     14  C   UNL     1      -2.267  -3.875  -7.560  0.00  0.00    -0.070 C 
ATOM     15  C   UNL     1      -1.322  -3.560  -6.699  0.00  0.00    -0.005 C 
ATOM     16  C   UNL     1       0.099  -3.126  -6.895  0.00  0.00    +0.151 C 
ATOM     17  N   UNL     1       0.592  -2.703  -5.586  0.00  0.00    -0.265 N 
ATOM     18  C   UNL     1       1.746  -2.049  -5.303  0.00  0.00    +0.227 C 
ATOM     19  O   UNL     1       2.638  -1.950  -6.118  0.00  0.00    -0.275 OA
ATOM     20  C   UNL     1       1.848  -1.446  -3.929  0.00  0.00    +0.120 C 
ATOM     21  C   UNL     1       3.262  -1.010  -3.599  0.00  0.00    +0.245 C 
ATOM     22  O   UNL     1       3.193   0.240  -2.874  0.00  0.00    -0.462 OA
ATOM     23  C   UNL     1       2.624   0.239  -1.677  0.00  0.00    +0.339 C 
ATOM     24  O   UNL     1       3.225   0.642  -0.710  0.00  0.00    -0.248 OA
ATOM     25  C   UNL     1      -5.171  -7.233  -8.719  0.00  0.00    +0.045 C 
ATOM     26 CL   UNL     1      -3.179  -8.607  -6.718  0.00  0.00    -0.084 Cl
ENDROOT
BRANCH   1  28
ATOM     27  C   UNL     1       0.544   1.781  -0.292  0.00  0.00    +0.007 C 
ATOM     28  C   UNL     1       0.567   0.251  -0.259  0.00  0.00    +0.043 C 
ENDBRANCH   1  28
BRANCH   1  29
ATOM     29  O   UNL     1       0.427   0.124  -2.677  0.00  0.00    -0.377 OA
ATOM     30  H   UNL     1       0.346   1.082  -2.779  0.00  0.00    +0.211 HD
ENDBRANCH   1  29
BRANCH  14  31
ATOM     31  C   UNL     1      -1.988  -3.946  -9.040  0.00  0.00    -0.046 C 
BRANCH  31  32
ATOM     32  N   UNL     1      -2.410  -2.692  -9.678  0.00  0.00    +0.382 N 
ATOM     33  C   UNL     1      -1.577  -1.589  -9.186  0.00  0.00    -0.078 C 
ATOM     34  C   UNL     1      -2.065  -0.268  -9.786  0.00  0.00    -0.016 C 
ATOM     35  C   UNL     1      -1.969  -0.341 -11.313  0.00  0.00    -0.018 C 
ATOM     36  C   UNL     1      -2.782  -1.540 -11.809  0.00  0.00    -0.016 C 
ATOM     37  C   UNL     1      -2.268  -2.813 -11.134  0.00  0.00    -0.078 C 
ATOM     38  C   UNL     1      -2.529   0.945 -11.923  0.00  0.00    +0.007 C 
ATOM     39  H   UNL     1      -3.376  -2.508  -9.450  0.00  0.00    -0.081 HD
ENDBRANCH  31  32
ENDBRANCH  14  31
TORSDOF 4
