REMARK  Name = ZINC25250481
REMARK  5 active torsions:
REMARK  status: ('A' for Active; 'I' for Inactive)
REMARK    1  A    between atoms: C_4  and  C_7
REMARK    2  A    between atoms: C_7  and  C_13
REMARK    3  A    between atoms: C_13  and  N_14
REMARK    4  A    between atoms: C_15  and  C_17
REMARK    5  A    between atoms: C_17  and  N_18
REMARK                            x       y       z     vdW  Elec       q    Type
REMARK                         _______ _______ _______ _____ _____    ______ ____
ROOT
ATOM      1  N   UNL     1       4.790   1.004  -1.412  0.00  0.00    -0.313 N 
ATOM      2  C   UNL     1       5.352   1.512  -2.527  0.00  0.00    +0.231 C 
ATOM      3  O   UNL     1       5.567   0.793  -3.480  0.00  0.00    -0.274 OA
ATOM      4  H   UNL     1       4.618   1.579  -0.650  0.00  0.00    +0.149 HD
ENDROOT
BRANCH   1   5
ATOM      5  C   UNL     1       4.440  -0.417  -1.351  0.00  0.00    +0.115 C 
BRANCH   5   6
ATOM      6  C   UNL     1       3.815  -0.731   0.010  0.00  0.00    +0.011 C 
ATOM      7  C   UNL     1       4.837  -0.460   1.115  0.00  0.00    +0.013 C 
ATOM      8  C   UNL     1       6.065  -1.347   0.902  0.00  0.00    +0.001 C 
ATOM      9  C   UNL     1       5.646  -2.818   0.944  0.00  0.00    +0.000 C 
ATOM     10  C   UNL     1       4.623  -3.088  -0.161  0.00  0.00    +0.001 C 
ATOM     11  C   UNL     1       3.395  -2.201   0.052  0.00  0.00    +0.013 C 
BRANCH   6  15
ATOM     12  C   UNL     1       0.387   1.748   0.603  0.00  0.00    +0.000 A 
ATOM     13  C   UNL     1       1.436   1.793   1.502  0.00  0.00    +0.000 A 
ATOM     14  C   UNL     1       2.545   0.990   1.310  0.00  0.00    +0.004 A 
ATOM     15  C   UNL     1       2.605   0.143   0.220  0.00  0.00    -0.040 A 
ATOM     16  C   UNL     1       1.556   0.098  -0.679  0.00  0.00    +0.004 A 
ATOM     17  C   UNL     1       0.447   0.901  -0.488  0.00  0.00    +0.000 A 
ENDBRANCH   6  15
ENDBRANCH   5   6
ENDBRANCH   1   5
BRANCH   2  18
ATOM     18  C   UNL     1       5.712   2.974  -2.590  0.00  0.00    +0.212 C 
BRANCH  18  19
ATOM     19  N   UNL     1       6.302   3.276  -3.897  0.00  0.00    -0.233 N 
ATOM     20  C   UNL     1       7.636   3.187  -4.152  0.00  0.00    +0.226 C 
ATOM     21  O   UNL     1       8.478   2.663  -3.455  0.00  0.00    -0.275 OA
ATOM     22  C   UNL     1       7.850   3.868  -5.466  0.00  0.00    +0.087 C 
ATOM     23  C   UNL     1       8.929   3.361  -6.399  0.00  0.00    +0.013 C 
ATOM     24  C   UNL     1       8.856   4.244  -7.660  0.00  0.00    +0.001 C 
ATOM     25  C   UNL     1       7.475   4.200  -8.306  0.00  0.00    +0.001 C 
ATOM     26  C   UNL     1       6.355   4.529  -7.302  0.00  0.00    +0.013 C 
ATOM     27  C   UNL     1       6.484   3.568  -6.152  0.00  0.00    +0.087 C 
ATOM     28  C   UNL     1       5.570   3.666  -4.975  0.00  0.00    +0.226 C 
ATOM     29  O   UNL     1       4.412   4.024  -4.979  0.00  0.00    -0.275 OA
ENDBRANCH  18  19
ENDBRANCH   2  18
TORSDOF 5
