REMARK  Name = ZINC01081565
REMARK  5 active torsions:
REMARK  status: ('A' for Active; 'I' for Inactive)
REMARK    1  A    between atoms: C_4  and  C_7
REMARK    2  A    between atoms: C_7  and  N_8
REMARK    3  A    between atoms: C_19  and  C_30
REMARK    4  A    between atoms: C_25  and  N_29
REMARK    5  A    between atoms: C_26  and  C_27
REMARK                            x       y       z     vdW  Elec       q    Type
REMARK                         _______ _______ _______ _____ _____    ______ ____
ROOT
ATOM      1  N   UNL     1       4.152  -0.952   1.338  0.00  0.00    -0.265 N 
ATOM      2  C   UNL     1       4.940  -0.078   2.065  0.00  0.00    +0.041 A 
ATOM      3  C   UNL     1       5.468   1.159   1.692  0.00  0.00    +0.024 A 
ATOM      4  C   UNL     1       6.233   1.832   2.631  0.00  0.00    +0.002 A 
ATOM      5  C   UNL     1       6.471   1.312   3.888  0.00  0.00    +0.000 A 
ATOM      6  C   UNL     1       5.951   0.081   4.272  0.00  0.00    +0.007 A 
ATOM      7  C   UNL     1       5.189  -0.595   3.343  0.00  0.00    -0.001 A 
ATOM      8  C   UNL     1       4.488  -1.914   3.403  0.00  0.00    +0.145 C 
ATOM      9  C   UNL     1       3.832  -2.055   2.047  0.00  0.00    +0.241 C 
ATOM     10  O   UNL     1       3.150  -2.984   1.669  0.00  0.00    -0.274 OA
ATOM     11  C   UNL     1       3.447  -1.933   4.487  0.00  0.00    +0.070 A 
ATOM     12  C   UNL     1       2.288  -1.266   4.583  0.00  0.00    +0.147 A 
ATOM     13  N   UNL     1       1.703  -1.623   5.750  0.00  0.00    -0.269 N 
ATOM     14  H   UNL     1       0.853  -1.296   6.085  0.00  0.00    +0.189 HD
ATOM     15  N   UNL     1       2.542  -2.548   6.393  0.00  0.00    -0.135 NA
ATOM     16  C   UNL     1       3.587  -2.737   5.642  0.00  0.00    +0.246 A 
ATOM     17  O   UNL     1       4.670  -3.537   5.835  0.00  0.00    -0.421 OA
ATOM     18  C   UNL     1       5.489  -3.749   4.786  0.00  0.00    +0.201 C 
ATOM     19  C   UNL     1       5.458  -3.039   3.636  0.00  0.00    +0.110 C 
ENDROOT
BRANCH  12  20
ATOM     20  C   UNL     1       1.736  -0.292   3.574  0.00  0.00    +0.434 C 
ATOM     21  F   UNL     1       0.507   0.200   4.025  0.00  0.00    -0.164 F 
ATOM     22  F   UNL     1       2.633   0.770   3.413  0.00  0.00    -0.164 F 
ATOM     23  F   UNL     1       1.558  -0.942   2.349  0.00  0.00    -0.164 F 
ENDBRANCH  12  20
BRANCH  18  24
ATOM     24  N   UNL     1       6.417  -4.755   4.892  0.00  0.00    -0.328 N 
ATOM     25  H   UNL     1       6.468  -5.284   5.703  0.00  0.00    +0.145 HD
ATOM     26  H   UNL     1       7.023  -4.935   4.156  0.00  0.00    +0.145 HD
ENDBRANCH  18  24
BRANCH  19  27
ATOM     27  C   UNL     1       6.387  -3.371   2.598  0.00  0.00    +0.102 C 
ATOM     28  N   UNL     1       7.123  -3.635   1.775  0.00  0.00    -0.191 NA
ENDBRANCH  19  27
BRANCH   1  29
ATOM     29  C   UNL     1       3.711  -0.707  -0.038  0.00  0.00    +0.148 C 
BRANCH  29  33
ATOM     30  C   UNL     1      -0.017   1.378   0.010  0.00  0.00    +0.000 A 
ATOM     31  C   UNL     1       1.171   2.086   0.002  0.00  0.00    +0.000 A 
ATOM     32  C   UNL     1       2.377   1.411  -0.013  0.00  0.00    +0.005 A 
ATOM     33  C   UNL     1       2.396   0.029  -0.020  0.00  0.00    -0.030 A 
ATOM     34  C   UNL     1       1.208  -0.679  -0.012  0.00  0.00    +0.005 A 
ATOM     35  C   UNL     1       0.002  -0.004   0.002  0.00  0.00    +0.000 A 
ENDBRANCH  29  33
ENDBRANCH   1  29
TORSDOF 5
