REMARK  Name = ZINC39940652
REMARK  5 active torsions:
REMARK  status: ('A' for Active; 'I' for Inactive)
REMARK    1  A    between atoms: C_4  and  C_7
REMARK    2  A    between atoms: N_10  and  C_15
REMARK    3  A    between atoms: N_13  and  N_14
REMARK    4  A    between atoms: C_15  and  C_16
REMARK    5  A    between atoms: N_22  and  C_23
REMARK                            x       y       z     vdW  Elec       q    Type
REMARK                         _______ _______ _______ _____ _____    ______ ____
ROOT
ATOM      1  C   UNL     1       3.651  -0.893  -0.127  0.00  0.00    +0.209 C 
ATOM      2  N   UNL     1       4.643  -0.092  -0.872  0.00  0.00    -0.210 NA
ATOM      3  N   UNL     1       5.060  -0.875  -1.910  0.00  0.00    -0.210 N 
ATOM      4  C   UNL     1       4.444  -2.064  -1.894  0.00  0.00    +0.334 C 
ATOM      5  O   UNL     1       4.638  -2.944  -2.710  0.00  0.00    -0.250 OA
ATOM      6  N   UNL     1       3.583  -2.166  -0.861  0.00  0.00    -0.199 N 
ATOM      7  H   UNL     1       5.418   0.166  -0.279  0.00  0.00    +0.147 HD
ENDROOT
BRANCH   1  11
ATOM      8  C   UNL     1      -0.154   1.048  -0.148  0.00  0.00    +0.000 A 
ATOM      9  C   UNL     1       1.005   1.801  -0.133  0.00  0.00    +0.000 A 
ATOM     10  C   UNL     1       2.237   1.173  -0.126  0.00  0.00    +0.007 A 
ATOM     11  C   UNL     1       2.309  -0.208  -0.134  0.00  0.00    -0.010 A 
ATOM     12  C   UNL     1       1.149  -0.960  -0.148  0.00  0.00    +0.007 A 
ATOM     13  C   UNL     1      -0.082  -0.332  -0.156  0.00  0.00    +0.000 A 
ENDBRANCH   1  11
BRANCH   6  14
ATOM     14  N   UNL     1       2.799  -3.242  -0.555  0.00  0.00    -0.249 NA
ATOM     15  H   UNL     1       2.938  -3.991  -1.216  0.00  0.00    +0.141 HD
ATOM     16  H   UNL     1       2.969  -3.556   0.389  0.00  0.00    +0.141 HD
ENDBRANCH   6  14
BRANCH   3  17
ATOM     17  C   UNL     1       6.051  -0.468  -2.909  0.00  0.00    +0.205 C 
BRANCH  17  18
ATOM     18  C   UNL     1       7.413  -0.963  -2.497  0.00  0.00    +0.155 A 
ATOM     19  H   UNL     1       9.549  -2.312  -0.673  0.00  0.00    +0.191 HD
ATOM     20  N   UNL     1       7.692  -1.564  -1.385  0.00  0.00    -0.156 NA
ATOM     21  N   UNL     1       9.061  -1.862  -1.380  0.00  0.00    -0.254 N 
ATOM     22  C   UNL     1       9.575  -1.407  -2.542  0.00  0.00    +0.180 A 
ATOM     23  S   UNL     1      11.210  -1.519  -3.040  0.00  0.00    -0.011 S 
ATOM     24  N   UNL     1       8.564  -0.855  -3.242  0.00  0.00    -0.274 N 
BRANCH  24  25
ATOM     25  C   UNL     1       8.668  -0.269  -4.510  0.00  0.00    +0.050 A 
ATOM     26  C   UNL     1       8.953  -1.054  -5.619  0.00  0.00    +0.026 A 
ATOM     27  C   UNL     1       9.055  -0.473  -6.868  0.00  0.00    +0.002 A 
ATOM     28  C   UNL     1       8.873   0.890  -7.014  0.00  0.00    +0.000 A 
ATOM     29  C   UNL     1       8.589   1.675  -5.912  0.00  0.00    +0.002 A 
ATOM     30  C   UNL     1       8.481   1.099  -4.662  0.00  0.00    +0.026 A 
ENDBRANCH  24  25
ENDBRANCH  17  18
ENDBRANCH   3  17
TORSDOF 5
