REMARK  Name = ZINC30882854
REMARK  10 active torsions:
REMARK  status: ('A' for Active; 'I' for Inactive)
REMARK    1  A    between atoms: C_1  and  C_2
REMARK    2  A    between atoms: C_4  and  C_26
REMARK    3  A    between atoms: C_6  and  C_23
REMARK    4  A    between atoms: C_9  and  C_11
REMARK    5  A    between atoms: C_11  and  C_12
REMARK    6  A    between atoms: C_15  and  C_17
REMARK    7  A    between atoms: C_23  and  C_24
REMARK    8  A    between atoms: C_23  and  C_25
REMARK    9  A    between atoms: C_26  and  N_27
REMARK   10  A    between atoms: C_30  and  C_33
REMARK                            x       y       z     vdW  Elec       q    Type
REMARK                         _______ _______ _______ _____ _____    ______ ____
ROOT
ATOM      1  C   UNL     1      -1.616   1.137   0.092  0.00  0.00    +0.039 C 
ATOM      2  C   UNL     1      -0.302   1.774  -0.280  0.00  0.00    -0.073 C 
ATOM      3  C   UNL     1      -0.307   2.678  -1.206  0.00  0.00    -0.026 C 
ATOM      4  C   UNL     1       0.921   3.393  -1.690  0.00  0.00    -0.002 C 
ATOM      5  C   UNL     1       2.059   3.228  -0.681  0.00  0.00    -0.003 C 
ATOM      6  C   UNL     1       2.182   1.740  -0.328  0.00  0.00    +0.012 C 
ATOM      7  C   UNL     1       0.930   1.321   0.447  0.00  0.00    +0.024 C 
ENDROOT
BRANCH   5   8
ATOM      8  C   UNL     1       3.369   3.720  -1.298  0.00  0.00    -0.014 C 
ATOM      9  C   UNL     1       4.482   3.660  -0.250  0.00  0.00    +0.007 C 
ATOM     10  C   UNL     1       3.740   2.829  -2.486  0.00  0.00    +0.007 C 
ENDBRANCH   5   8
BRANCH   7  11
ATOM     11  C   UNL     1       0.958   1.957   1.838  0.00  0.00    +0.105 C 
BRANCH  11  12
ATOM     12  C   UNL     1      -0.205   1.444   2.648  0.00  0.00    +0.218 A 
ATOM     13  N   UNL     1      -0.204   0.388   3.413  0.00  0.00    -0.112 NA
ATOM     14  N   UNL     1      -1.364   0.247   3.952  0.00  0.00    -0.107 NA
ATOM     15  C   UNL     1      -2.151   1.216   3.546  0.00  0.00    +0.248 A 
ATOM     16  O   UNL     1      -1.429   1.996   2.716  0.00  0.00    -0.420 OA
BRANCH  15  17
ATOM     17  C   UNL     1      -3.563   1.419   3.932  0.00  0.00    +0.038 A 
ATOM     18  C   UNL     1      -4.280   2.503   3.423  0.00  0.00    +0.013 A 
ATOM     19  C   UNL     1      -5.600   2.682   3.782  0.00  0.00    +0.001 A 
ATOM     20  C   UNL     1      -6.210   1.798   4.654  0.00  0.00    +0.000 A 
ATOM     21  C   UNL     1      -5.503   0.724   5.166  0.00  0.00    +0.001 A 
ATOM     22  C   UNL     1      -4.184   0.530   4.810  0.00  0.00    +0.013 A 
ENDBRANCH  15  17
ENDBRANCH  11  12
ENDBRANCH   7  11
BRANCH   4  23
ATOM     23  C   UNL     1       0.605   4.880  -1.860  0.00  0.00    -0.071 C 
BRANCH  23  24
ATOM     24  N   UNL     1       0.128   5.127  -3.227  0.00  0.00    +0.380 N 
ATOM     25  C   UNL     1      -0.800   4.074  -3.659  0.00  0.00    -0.078 C 
ATOM     26  C   UNL     1      -1.161   4.283  -5.132  0.00  0.00    -0.006 C 
ATOM     27  C   UNL     1      -1.807   5.661  -5.303  0.00  0.00    +0.071 C 
ATOM     28  C   UNL     1      -0.839   6.736  -4.801  0.00  0.00    -0.006 C 
ATOM     29  C   UNL     1      -0.487   6.456  -3.339  0.00  0.00    -0.078 C 
ATOM     30  H   UNL     1       0.998   5.103  -3.900  0.00  0.00    -0.082 HD
BRANCH  27  31
ATOM     31  C   UNL     1      -2.110   5.897  -6.761  0.00  0.00    +0.213 C 
ATOM     32  O   UNL     1      -1.602   6.832  -7.342  0.00  0.00    -0.276 OA
ATOM     33  N   UNL     1      -2.945   5.068  -7.418  0.00  0.00    -0.329 N 
ATOM     34  H   UNL     1      -3.166   5.240  -8.482  0.00  0.00    +0.145 HD
ATOM     35  H   UNL     1      -3.405   4.219  -6.891  0.00  0.00    +0.145 HD
ENDBRANCH  27  31
ENDBRANCH  23  24
ENDBRANCH   4  23
TORSDOF 7
