REMARK  Name = ZINC29053046
REMARK  7 active torsions:
REMARK  status: ('A' for Active; 'I' for Inactive)
REMARK    1  A    between atoms: C_1  and  C_2
REMARK    2  A    between atoms: C_6  and  C_8
REMARK    3  A    between atoms: C_13  and  C_14
REMARK    4  A    between atoms: N_22  and  C_23
REMARK    5  A    between atoms: C_23  and  C_24
REMARK    6  A    between atoms: C_24  and  N_25
REMARK    7  A    between atoms: C_29  and  C_32
REMARK                            x       y       z     vdW  Elec       q    Type
REMARK                         _______ _______ _______ _____ _____    ______ ____
ROOT
ATOM      1  C   UNL     1       1.662   4.755  -0.447  0.00  0.00    +0.061 A 
ATOM      2  C   UNL     1       1.132   6.046  -0.522  0.00  0.00    +0.128 A 
ATOM      3  N   UNL     1       1.846   7.061  -0.068  0.00  0.00    -0.222 NA
ATOM      4  C   UNL     1       3.055   6.874   0.444  0.00  0.00    +0.216 A 
ATOM      5  N   UNL     1       3.603   5.672   0.531  0.00  0.00    -0.214 NA
ATOM      6  C   UNL     1       2.950   4.595   0.103  0.00  0.00    +0.088 A 
ATOM      7  N   UNL     1       3.766   7.969   0.900  0.00  0.00    -0.312 N 
ATOM      8  H   UNL     1       4.771   7.833   1.329  0.00  0.00    +0.149 HD
ENDROOT
BRANCH   6   9
ATOM      9  C   UNL     1       3.566   3.252   0.204  0.00  0.00    +0.020 A 
ATOM     10  C   UNL     1       2.971   2.266   0.992  0.00  0.00    +0.013 A 
ATOM     11  C   UNL     1       3.549   1.017   1.082  0.00  0.00    +0.021 A 
ATOM     12  C   UNL     1       4.717   0.739   0.391  0.00  0.00    +0.042 A 
ATOM     13  C   UNL     1       5.312   1.712  -0.392  0.00  0.00    +0.040 A 
ATOM     14  C   UNL     1       4.740   2.965  -0.495  0.00  0.00    +0.052 A 
ATOM     15 CL   UNL     1       5.482   4.182  -1.485  0.00  0.00    -0.083 Cl
ATOM     16 CL   UNL     1       5.437  -0.836   0.510  0.00  0.00    -0.083 Cl
ENDBRANCH   6   9
BRANCH   1  22
ATOM     17  C   UNL     1       0.490   0.092  -1.778  0.00  0.00    +0.067 C 
ATOM     18  C   UNL     1       0.376   1.572  -1.517  0.00  0.00    +0.056 A 
ATOM     19  C   UNL     1      -0.718   2.329  -1.734  0.00  0.00    +0.107 A 
ATOM     20  N   UNL     1      -0.400   3.609  -1.363  0.00  0.00    -0.344 N 
ATOM     21  H   UNL     1      -1.151   4.408  -1.447  0.00  0.00    +0.167 HD
ATOM     22  C   UNL     1       0.896   3.591  -0.936  0.00  0.00    +0.142 A 
ATOM     23  N   UNL     1       1.346   2.359  -1.036  0.00  0.00    -0.233 NA
ENDBRANCH   1  22
BRANCH   7  24
ATOM     24  C   UNL     1       3.182   9.309   0.814  0.00  0.00    +0.123 C 
BRANCH  24  25
ATOM     25  C   UNL     1       4.167  10.333   1.383  0.00  0.00    +0.121 C 
BRANCH  25  26
ATOM     26  N   UNL     1       3.583  11.673   1.297  0.00  0.00    -0.328 N 
ATOM     27  C   UNL     1       4.295  12.771   1.755  0.00  0.00    +0.119 A 
ATOM     28  C   UNL     1       5.564  12.587   2.300  0.00  0.00    +0.045 A 
ATOM     29  C   UNL     1       6.267  13.673   2.746  0.00  0.00    +0.024 A 
ATOM     30  C   UNL     1       5.674  14.941   2.646  0.00  0.00    +0.070 A 
ATOM     31  C   UNL     1       4.397  15.051   2.094  0.00  0.00    +0.131 A 
ATOM     32  N   UNL     1       3.757  13.979   1.672  0.00  0.00    -0.239 NA
ATOM     33  H   UNL     1       2.578  11.809   0.869  0.00  0.00    +0.148 HD
BRANCH  30  34
ATOM     34  C   UNL     1       6.370  16.107   3.104  0.00  0.00    +0.101 C 
ATOM     35  N   UNL     1       6.921  17.031   3.467  0.00  0.00    -0.191 NA
ENDBRANCH  30  34
ENDBRANCH  25  26
ENDBRANCH  24  25
ENDBRANCH   7  24
TORSDOF 6
