REMARK  Name = ZINC13495924
REMARK  12 active torsions:
REMARK  status: ('A' for Active; 'I' for Inactive)
REMARK    1  A    between atoms: C_1  and  C_2
REMARK    2  A    between atoms: C_2  and  C_3
REMARK    3  A    between atoms: C_3  and  C_5
REMARK    4  A    between atoms: C_3  and  N_75
REMARK    5  A    between atoms: N_9  and  C_10
REMARK    6  A    between atoms: C_16  and  C_17
REMARK    7  A    between atoms: C_16  and  N_75
REMARK    8  A    between atoms: C_17  and  C_18
REMARK    9  A    between atoms: C_22  and  C_24
REMARK   10  A    between atoms: C_25  and  C_26
REMARK   11  A    between atoms: C_25  and  N_75
REMARK   12  A    between atoms: C_32  and  C_38
REMARK                            x       y       z     vdW  Elec       q    Type
REMARK                         _______ _______ _______ _____ _____    ______ ____
ROOT
ATOM      1  N   UNL     1       3.693   0.539   1.826  0.00  0.00    +0.389 N 
ATOM      2  H   UNL     1       3.248   0.014   2.589  0.00  0.00    -0.080 HD
ENDROOT
BRANCH   1   3
ATOM      3  C   UNL     1       4.530  -0.385   1.032  0.00  0.00    +0.003 C 
BRANCH   3   4
ATOM      4  C   UNL     1       3.851  -1.730   0.986  0.00  0.00    +0.138 A 
ATOM      5  N   UNL     1       2.572  -1.955   0.810  0.00  0.00    -0.115 NA
ATOM      6  N   UNL     1       2.385  -3.229   0.832  0.00  0.00    -0.023 NA
ATOM      7  N   UNL     1       3.512  -3.823   1.018  0.00  0.00    -0.044 NA
ATOM      8  N   UNL     1       4.441  -2.933   1.112  0.00  0.00    -0.228 N 
BRANCH   8   9
ATOM      9  C   UNL     1       5.869  -3.184   1.321  0.00  0.00    +0.111 C 
ATOM     10  C   UNL     1       6.413  -4.026   0.166  0.00  0.00    +0.027 C 
ATOM     11  C   UNL     1       7.905  -4.289   0.384  0.00  0.00    +0.002 C 
ATOM     12  C   UNL     1       8.102  -5.042   1.701  0.00  0.00    +0.000 C 
ATOM     13  C   UNL     1       7.558  -4.199   2.857  0.00  0.00    +0.002 C 
ATOM     14  C   UNL     1       6.067  -3.937   2.639  0.00  0.00    +0.027 C 
ENDBRANCH   8   9
ENDBRANCH   3   4
BRANCH   3  16
ATOM     15  C   UNL     1       5.449   1.483  -0.348  0.00  0.00    +0.002 C 
ATOM     16  C   UNL     1       4.708   0.145  -0.392  0.00  0.00    -0.011 C 
ENDBRANCH   3  16
ENDBRANCH   1   3
BRANCH   1  17
ATOM     17  C   UNL     1       4.532   1.609   2.405  0.00  0.00    -0.073 C 
BRANCH  17  18
ATOM     18  C   UNL     1       5.369   1.017   3.542  0.00  0.00    +0.016 C 
BRANCH  18  19
ATOM     19  C   UNL     1       6.114   2.123   4.245  0.00  0.00    -0.049 A 
ATOM     20  C   UNL     1       7.379   2.483   3.819  0.00  0.00    +0.003 A 
ATOM     21  C   UNL     1       8.061   3.499   4.461  0.00  0.00    +0.001 A 
ATOM     22  C   UNL     1       7.482   4.149   5.535  0.00  0.00    +0.003 A 
ATOM     23  C   UNL     1       6.219   3.786   5.964  0.00  0.00    -0.050 A 
ATOM     24  C   UNL     1       5.535   2.772   5.319  0.00  0.00    +0.007 A 
ATOM     25  C   UNL     1       5.588   4.494   7.135  0.00  0.00    +0.044 C 
ENDBRANCH  18  19
ENDBRANCH  17  18
ENDBRANCH   1  17
BRANCH   1  26
ATOM     26  C   UNL     1       2.641   1.128   0.972  0.00  0.00    -0.037 C 
BRANCH  26  27
ATOM     27  C   UNL     1       1.604   1.773   1.855  0.00  0.00    +0.001 A 
ATOM     28  C   UNL     1       1.672   3.101   2.118  0.00  0.00    +0.017 A 
ATOM     29  C   UNL     1       0.649   3.697   2.979  0.00  0.00    -0.001 A 
ATOM     30  C   UNL     1       0.666   5.062   3.285  0.00  0.00    +0.010 A 
ATOM     31  C   UNL     1      -0.303   5.587   4.093  0.00  0.00    +0.001 A 
ATOM     32  C   UNL     1      -1.304   4.777   4.613  0.00  0.00    +0.005 A 
ATOM     33  C   UNL     1      -1.341   3.430   4.324  0.00  0.00    -0.026 A 
ATOM     34  C   UNL     1      -0.365   2.873   3.504  0.00  0.00    +0.052 A 
ATOM     35  N   UNL     1      -0.381   1.530   3.194  0.00  0.00    -0.322 N 
ATOM     36  H   UNL     1      -1.083   0.965   3.553  0.00  0.00    +0.169 HD
ATOM     37  C   UNL     1       0.566   0.991   2.406  0.00  0.00    +0.251 A 
ATOM     38  O   UNL     1       0.524  -0.201   2.157  0.00  0.00    -0.268 OA
ATOM     39  C   UNL     1      -2.434   2.564   4.895  0.00  0.00    +0.046 C 
ENDBRANCH  26  27
ENDBRANCH   1  26
TORSDOF 9
