REMARK  Name = ZINC33803758
REMARK  7 active torsions:
REMARK  status: ('A' for Active; 'I' for Inactive)
REMARK    1  A    between atoms: C_1  and  C_2
REMARK    2  A    between atoms: C_2  and  O_3
REMARK    3  A    between atoms: O_3  and  C_4
REMARK    4  A    between atoms: C_8  and  C_10
REMARK    5  A    between atoms: C_10  and  C_11
REMARK    6  A    between atoms: C_12  and  C_29
REMARK    7  A    between atoms: C_33  and  O_35
REMARK                            x       y       z     vdW  Elec       q    Type
REMARK                         _______ _______ _______ _____ _____    ______ ____
ROOT
ATOM      1  C   UNL     1      -1.278   5.993  -0.060  0.00  0.00    +0.077 C 
ATOM      2  C   UNL     1      -1.479   7.487  -0.166  0.00  0.00    +0.152 C 
ATOM      3  N   UNL     1      -2.926   7.711  -0.238  0.00  0.00    -0.232 N 
ATOM      4  C   UNL     1      -3.556   6.527  -0.177  0.00  0.00    +0.293 C 
ATOM      5  O   UNL     1      -4.761   6.377  -0.208  0.00  0.00    -0.266 OA
ATOM      6  C   UNL     1      -2.563   5.425  -0.065  0.00  0.00    +0.250 C 
ATOM      7  O   UNL     1      -2.819   4.237   0.010  0.00  0.00    -0.282 OA
ATOM      8  C   UNL     1      -3.543   8.945  -0.347  0.00  0.00    +0.169 A 
ATOM      9  N   UNL     1      -2.996  10.137  -0.405  0.00  0.00    -0.224 NA
ATOM     10  C   UNL     1      -3.728  11.267  -0.516  0.00  0.00    +0.080 A 
ATOM     11  C   UNL     1      -3.267  12.602  -0.593  0.00  0.00    +0.032 A 
ATOM     12  C   UNL     1      -4.150  13.644  -0.698  0.00  0.00    +0.040 A 
ATOM     13  C   UNL     1      -5.523  13.431  -0.731  0.00  0.00    +0.125 A 
ATOM     14  C   UNL     1      -6.009  12.137  -0.657  0.00  0.00    +0.055 A 
ATOM     15  C   UNL     1      -5.130  11.088  -0.553  0.00  0.00    +0.043 A 
ATOM     16  S   UNL     1      -5.288   9.322  -0.435  0.00  0.00    -0.052 S 
ATOM     17  F   UNL     1      -6.373  14.475  -0.835  0.00  0.00    -0.205 F 
ENDROOT
BRANCH   2  18
ATOM     18  C   UNL     1      -0.816   8.010  -1.414  0.00  0.00    -0.019 A 
ATOM     19  C   UNL     1      -1.444   7.875  -2.639  0.00  0.00    +0.006 A 
ATOM     20  C   UNL     1      -0.840   8.358  -3.785  0.00  0.00    +0.004 A 
ATOM     21  C   UNL     1       0.398   8.968  -3.710  0.00  0.00    +0.045 A 
ATOM     22  C   UNL     1       1.032   9.100  -2.484  0.00  0.00    +0.117 A 
ATOM     23  C   UNL     1       0.422   8.618  -1.334  0.00  0.00    +0.051 A 
BRANCH  22  24
ATOM     24  O   UNL     1       2.250   9.698  -2.408  0.00  0.00    -0.507 OA
ATOM     25  H   UNL     1       2.752   9.802  -1.435  0.00  0.00    +0.292 HD
ENDBRANCH  22  24
ENDBRANCH   2  18
BRANCH   1  26
ATOM     26  C   UNL     1      -0.076   5.322   0.029  0.00  0.00    +0.195 C 
ATOM     27  O   UNL     1       1.074   6.015   0.171  0.00  0.00    -0.287 OA
BRANCH  26  32
ATOM     28  C   UNL     1      -0.673   1.793  -1.109  0.00  0.00    +0.121 A 
ATOM     29  C   UNL     1       0.011   1.079  -0.133  0.00  0.00    +0.045 A 
ATOM     30  C   UNL     1       0.658   1.744   0.893  0.00  0.00    +0.004 A 
ATOM     31  C   UNL     1       0.638   3.122   0.949  0.00  0.00    +0.012 A 
ATOM     32  C   UNL     1      -0.047   3.850  -0.029  0.00  0.00    +0.026 A 
ATOM     33  C   UNL     1      -0.705   3.176  -1.062  0.00  0.00    +0.057 A 
BRANCH  28  34
ATOM     34  O   UNL     1      -1.312   1.133  -2.111  0.00  0.00    -0.492 OA
BRANCH  34  36
ATOM     35  C   UNL     1      -2.010  -0.855  -3.293  0.00  0.00    +0.048 C 
ATOM     36  C   UNL     1      -1.238  -0.294  -2.097  0.00  0.00    +0.225 C 
ENDBRANCH  34  36
ENDBRANCH  28  34
ENDBRANCH  26  32
ENDBRANCH   1  26
TORSDOF 6
