REMARK  Name = ZINC25263319
REMARK  9 active torsions:
REMARK  status: ('A' for Active; 'I' for Inactive)
REMARK    1  A    between atoms: C_1  and  C_2
REMARK    2  A    between atoms: C_2  and  C_3
REMARK    3  A    between atoms: C_3  and  C_5
REMARK    4  A    between atoms: C_3  and  C_6
REMARK    5  A    between atoms: C_6  and  C_8
REMARK    6  A    between atoms: C_6  and  N_26
REMARK    7  A    between atoms: N_10  and  C_11
REMARK    8  A    between atoms: N_23  and  C_24
REMARK    9  A    between atoms: C_24  and  C_25
REMARK                            x       y       z     vdW  Elec       q    Type
REMARK                         _______ _______ _______ _____ _____    ______ ____
ROOT
ATOM      1  C   UNL     1      -1.642   8.983   0.955  0.00  0.00    +0.238 C 
ATOM      2  O   UNL     1      -1.929   7.975   1.567  0.00  0.00    -0.273 OA
ATOM      3  N   UNL     1      -0.373   9.188   0.551  0.00  0.00    -0.284 N 
ATOM      4  H   UNL     1      -0.095  10.138   0.071  0.00  0.00    +0.155 HD
ENDROOT
BRANCH   3   5
ATOM      5  C   UNL     1       0.593   8.191   0.743  0.00  0.00    +0.034 A 
ATOM      6  C   UNL     1       1.917   8.543   0.989  0.00  0.00    +0.025 A 
ATOM      7  C   UNL     1       2.876   7.573   1.178  0.00  0.00    +0.028 A 
ATOM      8  C   UNL     1       2.527   6.226   1.125  0.00  0.00    +0.050 A 
ATOM      9  C   UNL     1       1.194   5.869   0.876  0.00  0.00    +0.009 A 
ATOM     10  C   UNL     1       0.230   6.856   0.686  0.00  0.00    +0.034 A 
ATOM     11  C   UNL     1       1.147   4.395   0.880  0.00  0.00    +0.008 A 
ATOM     12  C   UNL     1       0.123   3.469   0.695  0.00  0.00    +0.010 A 
ATOM     13  C   UNL     1       0.401   2.121   0.754  0.00  0.00    +0.001 A 
ATOM     14  C   UNL     1       1.693   1.684   1.007  0.00  0.00    +0.002 A 
ATOM     15  C   UNL     1       2.715   2.590   1.193  0.00  0.00    +0.026 A 
ATOM     16  C   UNL     1       2.455   3.956   1.131  0.00  0.00    +0.050 A 
ATOM     17  N   UNL     1       3.268   5.066   1.275  0.00  0.00    -0.340 N 
BRANCH  17  18
ATOM     18  C   UNL     1       4.707   5.020   1.546  0.00  0.00    +0.119 C 
ATOM     19  C   UNL     1       5.475   4.993   0.224  0.00  0.00    +0.027 C 
ENDBRANCH  17  18
ENDBRANCH   3   5
BRANCH   1  20
ATOM     20  C   UNL     1      -2.706  10.005   0.646  0.00  0.00    +0.163 C 
BRANCH  20  21
ATOM     21  N   UNL     1      -4.027   9.379   0.742  0.00  0.00    -0.288 N 
ATOM     22  C   UNL     1      -4.541   8.725  -0.318  0.00  0.00    +0.298 C 
ATOM     23  O   UNL     1      -3.873   8.577  -1.324  0.00  0.00    -0.253 OA
ATOM     24  N   UNL     1      -5.795   8.234  -0.264  0.00  0.00    -0.313 N 
ATOM     25  H   UNL     1      -4.599   9.443   1.679  0.00  0.00    +0.151 HD
ATOM     26  H   UNL     1      -6.215   7.700  -1.129  0.00  0.00    +0.146 HD
ATOM     27  H   UNL     1      -6.399   8.368   0.645  0.00  0.00    +0.146 HD
ENDBRANCH  20  21
BRANCH  20  28
ATOM     28  C   UNL     1      -2.613  11.156   1.649  0.00  0.00    +0.015 C 
ATOM     29  C   UNL     1      -2.819  10.617   3.066  0.00  0.00    +0.010 C 
BRANCH  28  31
ATOM     30  C   UNL     1      -3.523  13.402   2.258  0.00  0.00    +0.004 C 
ATOM     31  C   UNL     1      -3.693  12.193   1.336  0.00  0.00    +0.002 C 
ENDBRANCH  28  31
ENDBRANCH  20  28
ENDBRANCH   1  20
TORSDOF 6
