REMARK  Name = ZINC14479878
REMARK  4 active torsions:
REMARK  status: ('A' for Active; 'I' for Inactive)
REMARK    1  A    between atoms: C_1  and  C_2
REMARK    2  A    between atoms: C_6  and  C_8
REMARK    3  A    between atoms: C_18  and  N_25
REMARK    4  A    between atoms: C_21  and  C_24
REMARK                            x       y       z     vdW  Elec       q    Type
REMARK                         _______ _______ _______ _____ _____    ______ ____
ROOT
ATOM      1  C   UNL     1       3.664  -2.070   0.177  0.00  0.00    +0.105 C 
ATOM      2  C   UNL     1       2.846  -2.986  -0.709  0.00  0.00    +0.029 C 
ATOM      3  C   UNL     1       3.112  -4.493  -0.628  0.00  0.00    +0.033 C 
ATOM      4  C   UNL     1       1.716  -5.054  -0.976  0.00  0.00    -0.030 C 
ATOM      5  C   UNL     1       0.773  -4.164  -0.685  0.00  0.00    -0.023 C 
ATOM      6  C   UNL     1       1.419  -2.975  -0.076  0.00  0.00    +0.051 C 
ATOM      7  C   UNL     1       0.889  -1.605  -0.248  0.00  0.00    +0.011 A 
ATOM      8  C   UNL     1      -0.455  -1.366  -0.439  0.00  0.00    +0.132 A 
ATOM      9  C   UNL     1      -0.927  -0.072  -0.563  0.00  0.00    +0.033 A 
ATOM     10  C   UNL     1      -0.042   0.988  -0.494  0.00  0.00    +0.007 A 
ATOM     11  C   UNL     1       1.304   0.757  -0.311  0.00  0.00    -0.029 A 
ATOM     12  C   UNL     1       1.796  -0.544  -0.191  0.00  0.00    +0.037 A 
ATOM     13  N   UNL     1       3.173  -0.700  -0.045  0.00  0.00    -0.336 N 
ATOM     14  C   UNL     1       2.255   1.923  -0.238  0.00  0.00    +0.045 C 
ATOM     15  H   UNL     1       3.670  -0.257  -0.802  0.00  0.00    +0.147 HD
ENDROOT
BRANCH   1  21
ATOM     16  C   UNL     1       4.984  -4.844   4.128  0.00  0.00    +0.044 C 
ATOM     17  C   UNL     1       4.110  -3.781   3.513  0.00  0.00    -0.050 A 
ATOM     18  C   UNL     1       3.140  -3.157   4.275  0.00  0.00    +0.003 A 
ATOM     19  C   UNL     1       2.339  -2.182   3.711  0.00  0.00    +0.001 A 
ATOM     20  C   UNL     1       2.513  -1.827   2.386  0.00  0.00    +0.005 A 
ATOM     21  C   UNL     1       3.479  -2.454   1.623  0.00  0.00    -0.027 A 
ATOM     22  C   UNL     1       4.280  -3.429   2.187  0.00  0.00    +0.008 A 
ENDBRANCH   1  21
BRANCH   8  23
ATOM     23  N   UNL     1      -1.401  -2.502  -0.512  0.00  0.00    +0.057 N 
ATOM     24  O   UNL     1      -2.172  -2.594  -1.450  0.00  0.00    -0.126 OA
ATOM     25  O   UNL     1      -1.407  -3.346   0.366  0.00  0.00    -0.126 OA
ENDBRANCH   8  23
TORSDOF 2
