REMARK  Name = ZINC09413242
REMARK  6 active torsions:
REMARK  status: ('A' for Active; 'I' for Inactive)
REMARK    1  A    between atoms: C_1  and  N_2
REMARK    2  A    between atoms: C_3  and  C_19
REMARK    3  A    between atoms: C_6  and  S_7
REMARK    4  A    between atoms: S_7  and  C_8
REMARK    5  A    between atoms: C_8  and  C_9
REMARK    6  A    between atoms: C_19  and  N_20
REMARK                            x       y       z     vdW  Elec       q    Type
REMARK                         _______ _______ _______ _____ _____    ______ ____
ROOT
ATOM      1  C   UNL     1      -5.486   5.288  -3.713  0.00  0.00    +0.152 C 
ATOM      2  N   UNL     1      -5.607   5.373  -2.256  0.00  0.00    -0.308 N 
ATOM      3  C   UNL     1      -6.633   5.931  -1.544  0.00  0.00    +0.154 A 
ATOM      4  N   UNL     1      -6.344   5.801  -0.280  0.00  0.00    -0.132 NA
ATOM      5  N   UNL     1      -5.216   5.199  -0.145  0.00  0.00    -0.122 NA
ATOM      6  C   UNL     1      -4.721   4.910  -1.326  0.00  0.00    +0.192 A 
ENDROOT
BRANCH   6   7
ATOM      7  S   UNL     1      -3.197   4.087  -1.650  0.00  0.00    -0.081 S 
BRANCH   7   8
ATOM      8  C   UNL     1      -2.622   3.811   0.044  0.00  0.00    +0.113 C 
BRANCH   8   9
ATOM      9  C   UNL     1      -1.295   3.099   0.014  0.00  0.00    -0.029 A 
ATOM     10  C   UNL     1      -1.248   1.738   0.014  0.00  0.00    +0.005 A 
ATOM     11  C   UNL     1      -0.030   1.062  -0.008  0.00  0.00    +0.001 A 
ATOM     12  C   UNL     1       1.149   1.743  -0.042  0.00  0.00    +0.008 A 
ATOM     13  C   UNL     1       1.140   3.148  -0.049  0.00  0.00    -0.018 A 
ATOM     14  C   UNL     1      -0.099   3.835  -0.021  0.00  0.00    -0.014 A 
ATOM     15  C   UNL     1      -0.107   5.241  -0.028  0.00  0.00    +0.009 A 
ATOM     16  C   UNL     1       1.071   5.921  -0.062  0.00  0.00    +0.001 A 
ATOM     17  C   UNL     1       2.290   5.245  -0.089  0.00  0.00    +0.001 A 
ATOM     18  C   UNL     1       2.337   3.885  -0.083  0.00  0.00    +0.008 A 
ENDBRANCH   8   9
ENDBRANCH   7   8
ENDBRANCH   6   7
BRANCH   3  19
ATOM     19  C   UNL     1      -7.867   6.580  -2.115  0.00  0.00    +0.202 C 
BRANCH  19  20
ATOM     20  N   UNL     1      -7.670   8.030  -2.181  0.00  0.00    -0.294 N 
ATOM     21  C   UNL     1      -7.924   8.808  -1.063  0.00  0.00    +0.060 A 
ATOM     22  C   UNL     1      -8.361   8.378   0.201  0.00  0.00    +0.027 A 
ATOM     23  C   UNL     1      -8.566   9.277   1.220  0.00  0.00    +0.002 A 
ATOM     24  C   UNL     1      -8.345  10.632   1.038  0.00  0.00    +0.001 A 
ATOM     25  C   UNL     1      -7.909  11.083  -0.195  0.00  0.00    +0.017 A 
ATOM     26  C   UNL     1      -7.704  10.185  -1.214  0.00  0.00    +0.041 A 
ATOM     27  S   UNL     1      -7.167  10.326  -2.901  0.00  0.00    -0.027 S 
ATOM     28  C   UNL     1      -7.247   8.595  -3.329  0.00  0.00    +0.292 A 
ATOM     29  O   UNL     1      -6.986   8.059  -4.390  0.00  0.00    -0.259 OA
ENDBRANCH  19  20
ENDBRANCH   3  19
TORSDOF 5
