REMARK  Name = ZINC01499251
REMARK  6 active torsions:
REMARK  status: ('A' for Active; 'I' for Inactive)
REMARK    1  A    between atoms: C_1  and  C_2
REMARK    2  A    between atoms: C_2  and  C_3
REMARK    3  A    between atoms: C_3  and  N_4
REMARK    4  A    between atoms: N_12  and  N_13
REMARK    5  A    between atoms: C_14  and  C_16
REMARK    6  A    between atoms: C_21  and  O_22
REMARK                            x       y       z     vdW  Elec       q    Type
REMARK                         _______ _______ _______ _____ _____    ______ ____
ROOT
ATOM      1  N   UNL     1      -1.413  -1.998   0.005  0.00  0.00    -0.266 N 
ATOM      2  C   UNL     1      -1.408  -2.776  -1.149  0.00  0.00    +0.046 A 
ATOM      3  C   UNL     1      -1.419  -2.429  -2.496  0.00  0.00    +0.025 A 
ATOM      4  C   UNL     1      -1.411  -3.413  -3.464  0.00  0.00    +0.017 A 
ATOM      5  C   UNL     1      -1.392  -4.752  -3.109  0.00  0.00    +0.019 A 
ATOM      6  C   UNL     1      -1.380  -5.115  -1.776  0.00  0.00    +0.027 A 
ATOM      7  C   UNL     1      -1.388  -4.130  -0.794  0.00  0.00    +0.029 A 
ATOM      8  C   UNL     1      -1.381  -4.175   0.686  0.00  0.00    +0.153 C 
ATOM      9  N   UNL     1      -1.363  -5.239   1.453  0.00  0.00    -0.174 NA
ATOM     10  C   UNL     1      -1.392  -2.761   1.111  0.00  0.00    +0.271 C 
ATOM     11  O   UNL     1      -1.386  -2.358   2.259  0.00  0.00    -0.268 OA
ATOM     12 BR   UNL     1      -1.381  -6.085  -4.451  0.00  0.00    -0.050 Br
ENDROOT
BRANCH   9  13
ATOM     13  N   UNL     1      -1.358  -5.098   2.847  0.00  0.00    -0.202 N 
ATOM     14  C   UNL     1      -1.339  -6.191   3.635  0.00  0.00    +0.267 C 
ATOM     15  O   UNL     1      -1.327  -7.300   3.136  0.00  0.00    -0.268 OA
ATOM     16  H   UNL     1      -1.368  -4.214   3.245  0.00  0.00    +0.178 HD
BRANCH  14  17
ATOM     17  C   UNL     1      -1.335  -6.043   5.101  0.00  0.00    +0.081 A 
ATOM     18  C   UNL     1      -1.355  -4.771   5.679  0.00  0.00    +0.032 A 
ATOM     19  C   UNL     1      -1.350  -4.639   7.051  0.00  0.00    +0.019 A 
ATOM     20  C   UNL     1      -1.325  -5.764   7.862  0.00  0.00    +0.019 A 
ATOM     21  C   UNL     1      -1.305  -7.026   7.303  0.00  0.00    +0.047 A 
ATOM     22  C   UNL     1      -1.315  -7.178   5.925  0.00  0.00    +0.129 A 
ATOM     23 BR   UNL     1      -1.378  -2.917   7.832  0.00  0.00    -0.050 Br
BRANCH  22  24
ATOM     24  O   UNL     1      -1.302  -8.418   5.375  0.00  0.00    -0.506 OA
ATOM     25  H   UNL     1      -0.414  -8.766   5.212  0.00  0.00    +0.292 HD
ENDBRANCH  22  24
ENDBRANCH  14  17
ENDBRANCH   9  13
BRANCH   1  26
ATOM     26  C   UNL     1      -1.433  -0.534   0.013  0.00  0.00    +0.114 C 
BRANCH  26  28
ATOM     27  C   UNL     1      -0.019   1.526   0.010  0.00  0.00    +0.005 C 
ATOM     28  C   UNL     1       0.002  -0.004   0.002  0.00  0.00    +0.016 C 
ENDBRANCH  26  28
ENDBRANCH   1  26
TORSDOF 5
