REMARK  Name = ZINC41584786
REMARK  7 active torsions:
REMARK  status: ('A' for Active; 'I' for Inactive)
REMARK    1  A    between atoms: C_1  and  N_2
REMARK    2  A    between atoms: N_2  and  C_3
REMARK    3  A    between atoms: N_2  and  C_4
REMARK    4  A    between atoms: C_7  and  C_10
REMARK    5  A    between atoms: C_17  and  O_38
REMARK    6  A    between atoms: C_18  and  C_21
REMARK    7  A    between atoms: C_21  and  N_22
REMARK                            x       y       z     vdW  Elec       q    Type
REMARK                         _______ _______ _______ _____ _____    ______ ____
ROOT
ATOM      1  C   UNL     1      -0.006  -2.788  -4.881  0.00  0.00    +0.058 C 
ATOM      2  C   UNL     1      -0.124  -2.108  -6.051  0.00  0.00    +0.176 C 
ATOM      3  C   UNL     1      -0.148  -0.647  -6.206  0.00  0.00    +0.231 C 
ATOM      4  O   UNL     1      -0.068   0.198  -5.331  0.00  0.00    -0.283 OA
ATOM      5  C   UNL     1      -0.290  -0.432  -7.658  0.00  0.00    +0.068 A 
ATOM      6  C   UNL     1      -0.375   0.715  -8.449  0.00  0.00    +0.019 A 
ATOM      7  C   UNL     1      -0.506   0.599  -9.804  0.00  0.00    +0.046 A 
ATOM      8  C   UNL     1      -0.556  -0.660 -10.396  0.00  0.00    +0.122 A 
ATOM      9  C   UNL     1      -0.474  -1.807  -9.623  0.00  0.00    +0.020 A 
ATOM     10  C   UNL     1      -0.339  -1.706  -8.244  0.00  0.00    +0.144 A 
ATOM     11  O   UNL     1      -0.235  -2.652  -7.285  0.00  0.00    -0.451 OA
ENDROOT
BRANCH   1  15
ATOM     12  C   UNL     1      -0.211  -0.716  -1.199  0.00  0.00    +0.029 A 
ATOM     13  C   UNL     1       0.703  -1.754  -1.362  0.00  0.00    +0.023 A 
ATOM     14  C   UNL     1       0.773  -2.426  -2.549  0.00  0.00    +0.010 A 
ATOM     15  C   UNL     1      -0.078  -2.070  -3.604  0.00  0.00    -0.021 A 
ATOM     16  C   UNL     1      -0.996  -1.025  -3.436  0.00  0.00    +0.010 A 
ATOM     17  C   UNL     1      -1.062  -0.362  -2.244  0.00  0.00    +0.023 A 
BRANCH  12  19
ATOM     18  C   UNL     1      -1.243   1.054   0.187  0.00  0.00    +0.129 C 
ATOM     19  N   UNL     1      -0.278  -0.034   0.011  0.00  0.00    -0.336 N 
ATOM     20  C   UNL     1       0.616  -0.405   1.111  0.00  0.00    +0.129 C 
ENDBRANCH  12  19
ENDBRANCH   1  15
BRANCH   8  21
ATOM     21  O   UNL     1      -0.687  -0.765 -11.743  0.00  0.00    -0.506 OA
ATOM     22  H   UNL     1       0.154  -0.790 -12.220  0.00  0.00    +0.292 HD
ENDBRANCH   8  21
BRANCH   9  23
ATOM     23  C   UNL     1      -0.530  -3.163 -10.278  0.00  0.00    -0.036 C 
BRANCH  23  24
ATOM     24  N   UNL     1       0.830  -3.596 -10.626  0.00  0.00    +0.383 N 
ATOM     25  C   UNL     1       0.764  -4.853 -11.376  0.00  0.00    -0.073 C 
ATOM     26  C   UNL     1       2.155  -5.340 -11.756  0.00  0.00    -0.007 C 
ATOM     27  C   UNL     1       3.034  -5.492 -10.511  0.00  0.00    +0.011 C 
ATOM     28  C   UNL     1       3.054  -4.136  -9.795  0.00  0.00    +0.020 C 
ATOM     29  C   UNL     1       1.611  -3.789  -9.395  0.00  0.00    -0.069 C 
ATOM     30  C   UNL     1       3.539  -3.076 -10.759  0.00  0.00    +0.023 A 
ATOM     31  C   UNL     1       4.184  -2.000 -10.237  0.00  0.00    +0.022 A 
ATOM     32  C   UNL     1       4.601  -0.952 -11.064  0.00  0.00    +0.007 A 
ATOM     33  C   UNL     1       4.329  -1.017 -12.399  0.00  0.00    +0.070 A 
ATOM     34  C   UNL     1       3.659  -2.140 -12.905  0.00  0.00    +0.251 A 
ATOM     35  O   UNL     1       3.356  -2.181 -14.086  0.00  0.00    -0.268 OA
ATOM     36  N   UNL     1       3.346  -3.181 -12.095  0.00  0.00    -0.312 N 
ATOM     37  C   UNL     1       2.838  -4.394 -12.729  0.00  0.00    +0.126 C 
ATOM     38  H   UNL     1       1.271  -2.889 -11.195  0.00  0.00    -0.081 HD
ENDBRANCH  23  24
ENDBRANCH   9  23
TORSDOF 5
