REMARK  Name = ZINC09257504
REMARK  3 active torsions:
REMARK  status: ('A' for Active; 'I' for Inactive)
REMARK    1  A    between atoms: N_13  and  C_17
REMARK    2  A    between atoms: C_17  and  C_18
REMARK    3  A    between atoms: N_20  and  C_21
REMARK                            x       y       z     vdW  Elec       q    Type
REMARK                         _______ _______ _______ _____ _____    ______ ____
ROOT
ATOM      1  C   UNL     1       6.490   7.433  -2.311  0.00  0.00    +0.000 A 
ATOM      2  C   UNL     1       5.546   6.584  -1.762  0.00  0.00    +0.000 A 
ATOM      3  C   UNL     1       5.907   5.305  -1.393  0.00  0.00    +0.006 A 
ATOM      4  C   UNL     1       7.212   4.862  -1.567  0.00  0.00    -0.012 A 
ATOM      5  C   UNL     1       8.151   5.707  -2.116  0.00  0.00    -0.042 A 
ATOM      6  C   UNL     1       7.786   6.995  -2.486  0.00  0.00    +0.004 A 
ATOM      7  C   UNL     1       9.580   5.287  -2.345  0.00  0.00    +0.035 C 
ATOM      8  C   UNL     1       9.924   4.062  -1.499  0.00  0.00    +0.008 C 
ATOM      9  C   UNL     1       8.858   2.987  -1.747  0.00  0.00    +0.040 C 
ATOM     10  C   UNL     1       7.544   3.459  -1.139  0.00  0.00    +0.138 C 
ATOM     11  C   UNL     1       6.426   2.515  -1.521  0.00  0.00    +0.251 C 
ATOM     12  O   UNL     1       6.029   2.262  -2.638  0.00  0.00    -0.272 OA
ATOM     13  N   UNL     1       5.962   2.015  -0.357  0.00  0.00    -0.215 N 
ATOM     14  C   UNL     1       6.633   2.504   0.692  0.00  0.00    +0.310 C 
ATOM     15  O   UNL     1       6.401   2.199   1.845  0.00  0.00    -0.252 OA
ATOM     16  N   UNL     1       7.596   3.372   0.327  0.00  0.00    -0.281 N 
ATOM     17  H   UNL     1       8.203   3.847   0.915  0.00  0.00    +0.152 HD
ENDROOT
BRANCH  13  18
ATOM     18  C   UNL     1       4.864   1.050  -0.255  0.00  0.00    +0.214 C 
BRANCH  18  19
ATOM     19  C   UNL     1       3.557   1.789  -0.124  0.00  0.00    +0.235 C 
ATOM     20  O   UNL     1       3.544   3.002  -0.118  0.00  0.00    -0.274 OA
ATOM     21  N   UNL     1       2.403   1.103  -0.015  0.00  0.00    -0.284 N 
ATOM     22  H   UNL     1       2.418   0.135   0.046  0.00  0.00    +0.155 HD
BRANCH  21  23
ATOM     23  C   UNL     1       1.180   1.787   0.008  0.00  0.00    +0.037 A 
ATOM     24  C   UNL     1       1.091   3.027   0.626  0.00  0.00    +0.027 A 
ATOM     25  C   UNL     1      -0.114   3.703   0.650  0.00  0.00    +0.051 A 
ATOM     26  C   UNL     1      -1.236   3.146   0.058  0.00  0.00    +0.173 A 
ATOM     27  C   UNL     1      -1.148   1.905  -0.568  0.00  0.00    +0.174 A 
ATOM     28  C   UNL     1       0.059   1.225  -0.586  0.00  0.00    +0.073 A 
ATOM     29  O   UNL     1      -2.374   1.583  -1.073  0.00  0.00    -0.395 OA
ATOM     30  C   UNL     1      -3.111   2.819  -1.114  0.00  0.00    +0.589 C 
ATOM     31  O   UNL     1      -2.519   3.601  -0.054  0.00  0.00    -0.395 OA
ATOM     32  F   UNL     1      -2.946   3.449  -2.352  0.00  0.00    -0.125 F 
ATOM     33  F   UNL     1      -4.467   2.593  -0.855  0.00  0.00    -0.125 F 
ENDBRANCH  21  23
ENDBRANCH  18  19
ENDBRANCH  13  18
TORSDOF 3
