REMARK  Name = ZINC64623160
REMARK  8 active torsions:
REMARK  status: ('A' for Active; 'I' for Inactive)
REMARK    1  A    between atoms: C_1  and  C_2
REMARK    2  A    between atoms: C_2  and  O_3
REMARK    3  A    between atoms: O_3  and  C_4
REMARK    4  A    between atoms: C_4  and  C_6
REMARK    5  A    between atoms: C_11  and  N_12
REMARK    6  A    between atoms: C_21  and  O_37
REMARK    7  A    between atoms: C_28  and  C_30
REMARK    8  A    between atoms: O_37  and  C_38
REMARK                            x       y       z     vdW  Elec       q    Type
REMARK                         _______ _______ _______ _____ _____    ______ ____
ROOT
ATOM      1  N   UNL     1       0.845  -4.671  -1.473  0.00  0.00    -0.269 N 
ATOM      2  C   UNL     1       1.304  -5.925  -1.657  0.00  0.00    +0.307 C 
ATOM      3  O   UNL     1       2.113  -6.154  -2.534  0.00  0.00    -0.252 OA
ATOM      4  N   UNL     1       0.865  -6.926  -0.867  0.00  0.00    -0.276 N 
ATOM      5  C   UNL     1      -0.027  -6.625   0.257  0.00  0.00    +0.114 C 
ATOM      6  C   UNL     1      -1.333  -7.424   0.104  0.00  0.00    +0.052 C 
ATOM      7  C   UNL     1      -0.938  -8.833  -0.262  0.00  0.00    -0.035 C 
ATOM      8  C   UNL     1      -1.272 -10.004   0.266  0.00  0.00    +0.003 A 
ATOM      9  C   UNL     1      -2.228 -10.368   1.324  0.00  0.00    +0.055 A 
ATOM     10  C   UNL     1      -2.312 -11.689   1.642  0.00  0.00    +0.121 A 
ATOM     11  C   UNL     1      -1.552 -12.694   1.027  0.00  0.00    +0.047 A 
ATOM     12  C   UNL     1      -0.649 -12.471   0.038  0.00  0.00    +0.029 A 
ATOM     13  C   UNL     1      -0.475 -11.079  -0.400  0.00  0.00    +0.043 A 
ATOM     14  N   UNL     1       0.286 -10.576  -1.325  0.00  0.00    -0.375 N 
ATOM     15  C   UNL     1       0.025  -9.138  -1.404  0.00  0.00    +0.131 C 
ATOM     16  C   UNL     1       1.281  -8.309  -1.147  0.00  0.00    +0.134 C 
ATOM     17  H   UNL     1       0.260  -4.473  -0.725  0.00  0.00    +0.156 HD
ATOM     18  H   UNL     1       0.920 -11.069  -1.869  0.00  0.00    +0.160 HD
ENDROOT
BRANCH  16  19
ATOM     19  C   UNL     1       2.023  -8.868   0.039  0.00  0.00    -0.025 A 
ATOM     20  C   UNL     1       3.310  -9.350  -0.115  0.00  0.00    +0.008 A 
ATOM     21  C   UNL     1       3.992  -9.862   0.972  0.00  0.00    +0.038 A 
ATOM     22  C   UNL     1       3.386  -9.894   2.216  0.00  0.00    +0.123 A 
ATOM     23  C   UNL     1       2.097  -9.412   2.370  0.00  0.00    +0.038 A 
ATOM     24  C   UNL     1       1.419  -8.895   1.282  0.00  0.00    +0.008 A 
ATOM     25  F   UNL     1       4.051 -10.396   3.280  0.00  0.00    -0.205 F 
ENDBRANCH  16  19
BRANCH   1  31
ATOM     26  C   UNL     1       1.397  -2.349  -1.892  0.00  0.00    +0.080 A 
ATOM     27  C   UNL     1       1.769  -1.344  -2.789  0.00  0.00    +0.017 A 
ATOM     28  C   UNL     1       1.945  -1.644  -4.122  0.00  0.00    +0.001 A 
ATOM     29  C   UNL     1       1.754  -2.938  -4.579  0.00  0.00    +0.002 A 
ATOM     30  C   UNL     1       1.386  -3.941  -3.706  0.00  0.00    +0.024 A 
ATOM     31  C   UNL     1       1.210  -3.660  -2.357  0.00  0.00    +0.049 A 
BRANCH  26  32
ATOM     32  C   UNL     1       1.207  -2.035  -0.464  0.00  0.00    +0.341 C 
ATOM     33  O   UNL     1       0.804  -2.892   0.298  0.00  0.00    -0.245 OA
BRANCH  32  34
ATOM     34  O   UNL     1       1.480  -0.799  -0.004  0.00  0.00    -0.461 OA
BRANCH  34  36
ATOM     35  C   UNL     1       1.634   0.884   1.724  0.00  0.00    +0.048 C 
ATOM     36  C   UNL     1       1.273  -0.565   1.391  0.00  0.00    +0.229 C 
ENDBRANCH  34  36
ENDBRANCH  32  34
ENDBRANCH  26  32
ENDBRANCH   1  31
BRANCH  10  37
ATOM     37  O   UNL     1      -3.187 -12.056   2.616  0.00  0.00    -0.495 OA
ATOM     38  C   UNL     1      -3.258 -13.447   2.933  0.00  0.00    +0.277 C 
ENDBRANCH  10  37
TORSDOF 6
