REMARK  Name = ZINC40077008
REMARK  12 active torsions:
REMARK  status: ('A' for Active; 'I' for Inactive)
REMARK    1  A    between atoms: C_1  and  C_2
REMARK    2  A    between atoms: C_2  and  C_3
REMARK    3  A    between atoms: C_2  and  C_4
REMARK    4  A    between atoms: C_4  and  C_5
REMARK    5  A    between atoms: C_5  and  O_6
REMARK    6  A    between atoms: O_6  and  C_7
REMARK    7  A    between atoms: C_11  and  C_13
REMARK    8  A    between atoms: C_15  and  C_24
REMARK    9  A    between atoms: N_19  and  C_20
REMARK   10  A    between atoms: C_20  and  C_21
REMARK   11  A    between atoms: C_21  and  O_22
REMARK   12  A    between atoms: C_24  and  C_26
REMARK                            x       y       z     vdW  Elec       q    Type
REMARK                         _______ _______ _______ _____ _____    ______ ____
ROOT
ATOM      1  C   UNL     1       0.776  -0.945   8.489  0.00  0.00    +0.145 C 
ATOM      2  C   UNL     1       0.039  -2.109   9.108  0.00  0.00    +0.076 C 
ATOM      3  C   UNL     1      -0.351  -1.713  10.343  0.00  0.00    +0.249 C 
ATOM      4  C   UNL     1       0.100  -0.324  10.571  0.00  0.00    +0.288 C 
ATOM      5  O   UNL     1      -0.095   0.315  11.586  0.00  0.00    -0.266 OA
ATOM      6  N   UNL     1       0.761   0.129   9.489  0.00  0.00    -0.281 N 
ATOM      7  O   UNL     1      -1.043  -2.467  11.226  0.00  0.00    -0.282 OA
ENDROOT
BRANCH   1  12
ATOM      8  C   UNL     1       0.028  -0.261   4.849  0.00  0.00    +0.121 A 
ATOM      9  C   UNL     1      -1.222   0.334   4.933  0.00  0.00    +0.045 A 
ATOM     10  C   UNL     1      -1.819   0.513   6.166  0.00  0.00    +0.004 A 
ATOM     11  C   UNL     1      -1.172   0.099   7.315  0.00  0.00    +0.006 A 
ATOM     12  C   UNL     1       0.074  -0.495   7.234  0.00  0.00    -0.019 A 
ATOM     13  C   UNL     1       0.673  -0.681   6.003  0.00  0.00    +0.051 A 
BRANCH   8  14
ATOM     14  O   UNL     1       0.618  -0.439   3.637  0.00  0.00    -0.492 OA
BRANCH  14  15
ATOM     15  C   UNL     1      -0.104   0.018   2.492  0.00  0.00    +0.229 C 
BRANCH  15  16
ATOM     16  C   UNL     1       0.712  -0.265   1.229  0.00  0.00    +0.044 C 
BRANCH  16  18
ATOM     17  C   UNL     1      -0.201   1.746   0.061  0.00  0.00    +0.007 C 
ATOM     18  C   UNL     1      -0.061   0.224   0.002  0.00  0.00    -0.014 C 
ATOM     19  C   UNL     1       0.695  -0.170  -1.268  0.00  0.00    +0.007 C 
ENDBRANCH  16  18
ENDBRANCH  15  16
ENDBRANCH  14  15
ENDBRANCH   8  14
ENDBRANCH   1  12
BRANCH   2  20
ATOM     20  C   UNL     1      -0.207  -3.416   8.492  0.00  0.00    +0.195 C 
ATOM     21  O   UNL     1      -1.344  -3.757   8.223  0.00  0.00    -0.287 OA
BRANCH  20  22
ATOM     22  C   UNL     1       0.925  -4.319   8.196  0.00  0.00    +0.022 A 
ATOM     23  C   UNL     1       2.216  -3.985   8.612  0.00  0.00    +0.013 A 
ATOM     24  C   UNL     1       3.268  -4.831   8.333  0.00  0.00    +0.016 A 
ATOM     25  C   UNL     1       3.047  -6.011   7.642  0.00  0.00    +0.018 A 
ATOM     26  C   UNL     1       1.769  -6.348   7.227  0.00  0.00    +0.016 A 
ATOM     27  C   UNL     1       0.708  -5.513   7.505  0.00  0.00    +0.013 A 
ATOM     28 BR   UNL     1       4.495  -7.166   7.264  0.00  0.00    -0.050 Br
ENDBRANCH  20  22
ENDBRANCH   2  20
BRANCH   6  29
ATOM     29  C   UNL     1       1.359   1.458   9.336  0.00  0.00    +0.137 C 
BRANCH  29  30
ATOM     30  C   UNL     1       0.329   2.414   8.732  0.00  0.00    +0.175 C 
BRANCH  30  31
ATOM     31  O   UNL     1      -0.752   2.590   9.650  0.00  0.00    -0.393 OA
ATOM     32  H   UNL     1      -1.445   3.186   9.333  0.00  0.00    +0.209 HD
ENDBRANCH  30  31
ENDBRANCH  29  30
ENDBRANCH   6  29
TORSDOF 10
