REMARK  Name = ZINC44714503
REMARK  10 active torsions:
REMARK  status: ('A' for Active; 'I' for Inactive)
REMARK    1  A    between atoms: C_1  and  C_2
REMARK    2  A    between atoms: C_3  and  C_14
REMARK    3  A    between atoms: C_6  and  C_12
REMARK    4  A    between atoms: C_14  and  C_15
REMARK    5  A    between atoms: C_15  and  N_16
REMARK    6  A    between atoms: C_17  and  C_19
REMARK    7  A    between atoms: C_30  and  C_32
REMARK    8  A    between atoms: C_32  and  C_34
REMARK    9  A    between atoms: C_32  and  O_35
REMARK   10  A    between atoms: O_35  and  C_36
REMARK                            x       y       z     vdW  Elec       q    Type
REMARK                         _______ _______ _______ _____ _____    ______ ____
ROOT
ATOM      1  C   UNL     1       3.434   1.269  -6.358  0.00  0.00    +0.100 C 
ATOM      2  C   UNL     1       2.343   2.363  -6.388  0.00  0.00    +0.121 C 
ATOM      3  N   UNL     1       3.091   3.634  -6.537  0.00  0.00    -0.297 N 
ATOM      4  C   UNL     1       4.183   3.309  -7.486  0.00  0.00    +0.115 C 
ATOM      5  C   UNL     1       4.638   1.893  -7.083  0.00  0.00    -0.004 C 
ATOM      6  C   UNL     1       4.988   1.077  -8.325  0.00  0.00    -0.010 C 
ATOM      7  C   UNL     1       6.224   1.683  -8.996  0.00  0.00    -0.082 C 
ATOM      8  N   UNL     1       7.347   1.679  -8.051  0.00  0.00    +0.379 N 
ATOM      9  C   UNL     1       7.039   2.541  -6.904  0.00  0.00    -0.082 C 
ATOM     10  C   UNL     1       5.838   1.972  -6.144  0.00  0.00    -0.010 C 
ATOM     11  C   UNL     1       2.836   4.817  -5.944  0.00  0.00    +0.256 C 
ATOM     12  O   UNL     1       3.546   5.774  -6.170  0.00  0.00    -0.272 OA
ATOM     13  H   UNL     1       7.511   0.738  -7.729  0.00  0.00    -0.086 HD
ATOM     14  H   UNL     1       8.176   2.022  -8.515  0.00  0.00    -0.086 HD
ENDROOT
BRANCH   1  16
ATOM     15  N   UNL     1       4.250  -0.304  -4.633  0.00  0.00    -0.315 N 
ATOM     16  C   UNL     1       3.797   0.928  -4.936  0.00  0.00    +0.218 C 
ATOM     17  O   UNL     1       3.681   1.763  -4.064  0.00  0.00    -0.275 OA
ATOM     18  H   UNL     1       4.343  -0.972  -5.331  0.00  0.00    +0.149 HD
BRANCH  15  19
ATOM     19  C   UNL     1       4.603  -0.636  -3.250  0.00  0.00    +0.109 C 
BRANCH  19  20
ATOM     20  C   UNL     1       5.085  -2.086  -3.181  0.00  0.00    +0.056 C 
BRANCH  20  23
ATOM     21  C   UNL     1       3.174  -3.262  -1.037  0.00  0.00    +0.063 C 
ATOM     22  C   UNL     1       4.629  -2.936  -0.825  0.00  0.00    +0.017 A 
ATOM     23  C   UNL     1       5.448  -2.427  -1.758  0.00  0.00    -0.018 A 
ATOM     24  C   UNL     1       6.763  -2.266  -1.131  0.00  0.00    +0.004 A 
ATOM     25  C   UNL     1       7.996  -1.796  -1.577  0.00  0.00    +0.029 A 
ATOM     26  C   UNL     1       9.077  -1.776  -0.700  0.00  0.00    +0.052 A 
ATOM     27  C   UNL     1       8.920  -2.226   0.619  0.00  0.00    +0.021 A 
ATOM     28  C   UNL     1       7.714  -2.686   1.057  0.00  0.00    +0.027 A 
ATOM     29  C   UNL     1       6.619  -2.715   0.196  0.00  0.00    +0.047 A 
ATOM     30  N   UNL     1       5.310  -3.109   0.349  0.00  0.00    -0.358 N 
ATOM     31  H   UNL     1       4.927  -3.461   1.168  0.00  0.00    +0.166 HD
BRANCH  26  32
ATOM     32  C   UNL     1      10.351  -1.296  -1.145  0.00  0.00    +0.099 C 
ATOM     33  N   UNL     1      11.361  -0.915  -1.498  0.00  0.00    -0.191 NA
ENDBRANCH  26  32
ENDBRANCH  20  23
ENDBRANCH  19  20
ENDBRANCH  15  19
ENDBRANCH   1  16
BRANCH  11  34
ATOM     34  C   UNL     1       1.669   4.951  -5.001  0.00  0.00    +0.256 C 
ATOM     35  C   UNL     1       0.363   4.745  -5.772  0.00  0.00    +0.062 C 
BRANCH  34  36
ATOM     36  O   UNL     1       1.676   6.255  -4.416  0.00  0.00    -0.480 OA
BRANCH  36  37
ATOM     37  C   UNL     1       1.067   6.394  -3.209  0.00  0.00    +0.122 A 
ATOM     38  C   UNL     1       0.382   5.324  -2.650  0.00  0.00    +0.045 A 
ATOM     39  C   UNL     1      -0.235   5.468  -1.423  0.00  0.00    +0.004 A 
ATOM     40  C   UNL     1      -0.173   6.675  -0.752  0.00  0.00    +0.000 A 
ATOM     41  C   UNL     1       0.508   7.742  -1.308  0.00  0.00    +0.004 A 
ATOM     42  C   UNL     1       1.133   7.603  -2.532  0.00  0.00    +0.045 A 
ENDBRANCH  36  37
ENDBRANCH  34  36
ENDBRANCH  11  34
TORSDOF 8
