REMARK  Name = ZINC41111429
REMARK  5 active torsions:
REMARK  status: ('A' for Active; 'I' for Inactive)
REMARK    1  A    between atoms: C_1  and  C_2
REMARK    2  A    between atoms: C_2  and  C_3
REMARK    3  A    between atoms: C_2  and  C_4
REMARK    4  A    between atoms: N_8  and  C_12
REMARK    5  A    between atoms: C_15  and  C_18
REMARK                            x       y       z     vdW  Elec       q    Type
REMARK                         _______ _______ _______ _____ _____    ______ ____
ROOT
ATOM      1  C   UNL     1      -1.444  -0.534   0.019  0.00  0.00    +0.164 C 
ATOM      2  C   UNL     1      -1.462  -2.049  -0.038  0.00  0.00    +0.248 C 
ATOM      3  O   UNL     1      -1.006  -2.817   0.781  0.00  0.00    -0.273 OA
ATOM      4  N   UNL     1      -2.091  -2.363  -1.187  0.00  0.00    -0.193 N 
ATOM      5  C   UNL     1      -2.469  -1.269  -1.858  0.00  0.00    +0.314 C 
ATOM      6  O   UNL     1      -3.054  -1.298  -2.923  0.00  0.00    -0.252 OA
ATOM      7  N   UNL     1      -2.130  -0.130  -1.220  0.00  0.00    -0.287 N 
ATOM      8  H   UNL     1      -2.304   0.777  -1.517  0.00  0.00    +0.151 HD
ENDROOT
BRANCH   4   9
ATOM      9  C   UNL     1      -2.320  -3.674  -1.626  0.00  0.00    +0.045 A 
ATOM     10  C   UNL     1      -3.082  -3.904  -2.764  0.00  0.00    +0.024 A 
ATOM     11  C   UNL     1      -3.306  -5.197  -3.194  0.00  0.00    +0.014 A 
ATOM     12  C   UNL     1      -2.772  -6.263  -2.494  0.00  0.00    +0.055 A 
ATOM     13  C   UNL     1      -2.013  -6.037  -1.360  0.00  0.00    +0.014 A 
ATOM     14  C   UNL     1      -1.781  -4.746  -0.928  0.00  0.00    +0.024 A 
BRANCH  12  15
ATOM     15  C   UNL     1      -3.018  -7.672  -2.966  0.00  0.00    +0.417 C 
ATOM     16  F   UNL     1      -2.005  -8.050  -3.853  0.00  0.00    -0.166 F 
ATOM     17  F   UNL     1      -3.022  -8.538  -1.867  0.00  0.00    -0.166 F 
ATOM     18  F   UNL     1      -4.255  -7.737  -3.616  0.00  0.00    -0.166 F 
ENDBRANCH  12  15
ENDBRANCH   4   9
BRANCH   1  20
ATOM     19  C   UNL     1      -0.017   1.517   0.035  0.00  0.00    +0.009 C 
ATOM     20  C   UNL     1      -0.005  -0.013   0.032  0.00  0.00    +0.012 C 
ATOM     21  C   UNL     1       0.710  -0.520   1.285  0.00  0.00    +0.009 C 
ENDBRANCH   1  20
TORSDOF 3
