REMARK  Name = ZINC00739589
REMARK  13 active torsions:
REMARK  status: ('A' for Active; 'I' for Inactive)
REMARK    1  A    between atoms: C_1  and  C_2
REMARK    2  A    between atoms: C_5  and  N_9
REMARK    3  A    between atoms: C_6  and  C_8
REMARK    4  A    between atoms: N_12  and  C_13
REMARK    5  A    between atoms: N_12  and  C_31
REMARK    6  A    between atoms: C_13  and  C_14
REMARK    7  A    between atoms: N_16  and  C_17
REMARK    8  A    between atoms: N_16  and  C_24
REMARK    9  A    between atoms: C_17  and  C_18
REMARK   10  A    between atoms: C_24  and  C_25
REMARK   11  A    between atoms: N_29  and  C_30
REMARK   12  A    between atoms: C_31  and  C_32
REMARK   13  A    between atoms: C_31  and  C_33
REMARK                            x       y       z     vdW  Elec       q    Type
REMARK                         _______ _______ _______ _____ _____    ______ ____
ROOT
ATOM      1  C   UNL     1      -0.056  -2.070  -1.132  0.00  0.00    +0.205 C 
ENDROOT
BRANCH   1   5
ATOM      2  N   UNL     1       2.344  -2.550  -2.408  0.00  0.00    -0.269 N 
ATOM      3  C   UNL     1       1.231  -2.462  -3.163  0.00  0.00    +0.307 C 
ATOM      4  O   UNL     1       1.292  -2.661  -4.361  0.00  0.00    -0.252 OA
ATOM      5  N   UNL     1       0.051  -2.151  -2.591  0.00  0.00    -0.274 N 
ATOM      6  H   UNL     1       2.272  -2.482  -1.312  0.00  0.00    +0.156 HD
BRANCH   2  11
ATOM      7  C   UNL     1       7.399  -3.272  -4.880  0.00  0.00    +0.044 C 
ATOM      8  C   UNL     1       6.056  -3.081  -4.223  0.00  0.00    -0.050 A 
ATOM      9  C   UNL     1       4.910  -3.537  -4.849  0.00  0.00    +0.005 A 
ATOM     10  C   UNL     1       3.678  -3.363  -4.250  0.00  0.00    +0.024 A 
ATOM     11  C   UNL     1       3.591  -2.729  -3.018  0.00  0.00    +0.038 A 
ATOM     12  C   UNL     1       4.742  -2.267  -2.394  0.00  0.00    -0.029 A 
ATOM     13  C   UNL     1       5.972  -2.449  -2.997  0.00  0.00    +0.008 A 
ATOM     14  C   UNL     1       4.651  -1.573  -1.060  0.00  0.00    +0.045 C 
ENDBRANCH   2  11
BRANCH   5  15
ATOM     15  C   UNL     1      -1.125  -1.896  -3.427  0.00  0.00    +0.072 C 
ATOM     16  C   UNL     1      -0.816  -0.764  -4.408  0.00  0.00    +0.028 C 
ATOM     17  C   UNL     1      -1.481  -3.164  -4.206  0.00  0.00    +0.028 C 
ENDBRANCH   5  15
ENDBRANCH   1   5
BRANCH   1  18
ATOM     18  C   UNL     1       0.244  -0.662  -0.684  0.00  0.00    +0.234 C 
ATOM     19  O   UNL     1       0.520   0.189  -1.503  0.00  0.00    -0.274 OA
ATOM     20  N   UNL     1       0.205  -0.349   0.626  0.00  0.00    -0.290 N 
BRANCH  20  21
ATOM     21  C   UNL     1       0.497   1.019   1.061  0.00  0.00    +0.143 C 
BRANCH  21  22
ATOM     22  C   UNL     1       1.973   1.156   1.330  0.00  0.00    -0.030 A 
ATOM     23  C   UNL     1       2.472   0.900   2.594  0.00  0.00    +0.005 A 
ATOM     24  C   UNL     1       3.827   1.022   2.839  0.00  0.00    +0.000 A 
ATOM     25  C   UNL     1       4.682   1.409   1.824  0.00  0.00    +0.000 A 
ATOM     26  C   UNL     1       4.182   1.670   0.562  0.00  0.00    +0.000 A 
ATOM     27  C   UNL     1       2.828   1.544   0.315  0.00  0.00    +0.005 A 
ENDBRANCH  21  22
ENDBRANCH  20  21
BRANCH  20  28
ATOM     28  C   UNL     1      -0.129  -1.377   1.615  0.00  0.00    +0.161 C 
BRANCH  28  29
ATOM     29  C   UNL     1      -1.619  -1.398   1.835  0.00  0.00    +0.036 A 
ATOM     30  C   UNL     1      -2.498  -2.212   1.216  0.00  0.00    +0.024 A 
ATOM     31  C   UNL     1      -3.781  -1.903   1.710  0.00  0.00    +0.019 A 
ATOM     32  C   UNL     1      -3.637  -0.911   2.612  0.00  0.00    +0.085 A 
ATOM     33  N   UNL     1      -2.312  -0.601   2.697  0.00  0.00    -0.352 N 
ATOM     34  C   UNL     1      -1.728   0.422   3.569  0.00  0.00    +0.148 C 
ENDBRANCH  28  29
ENDBRANCH  20  28
ENDBRANCH   1  18
TORSDOF 8
