REMARK  Name = ZINC36005381
REMARK  16 active torsions:
REMARK  status: ('A' for Active; 'I' for Inactive)
REMARK    1  A    between atoms: C_1  and  C_2
REMARK    2  A    between atoms: C_2  and  O_3
REMARK    3  A    between atoms: O_3  and  C_4
REMARK    4  A    between atoms: C_4  and  C_6
REMARK    5  A    between atoms: C_7  and  C_25
REMARK    6  A    between atoms: N_8  and  C_24
REMARK    7  A    between atoms: C_12  and  C_14
REMARK    8  A    between atoms: C_17  and  C_20
REMARK    9  A    between atoms: C_20  and  C_21
REMARK   10  A    between atoms: C_20  and  C_22
REMARK   11  A    between atoms: C_20  and  C_23
REMARK   12  A    between atoms: C_25  and  N_26
REMARK   13  A    between atoms: N_34  and  C_35
REMARK   14  A    between atoms: C_35  and  C_36
REMARK   15  A    between atoms: C_35  and  C_37
REMARK   16  A    between atoms: C_35  and  C_38
REMARK                            x       y       z     vdW  Elec       q    Type
REMARK                         _______ _______ _______ _____ _____    ______ ____
ROOT
ATOM      1  C   UNL     1       1.556  -2.365   2.383  0.00  0.00    +0.080 C 
ATOM      2  C   UNL     1       1.515  -3.689   2.649  0.00  0.00    +0.041 C 
ATOM      3  N   UNL     1       2.082  -4.198   3.782  0.00  0.00    -0.260 N 
ATOM      4  C   UNL     1       2.709  -3.450   4.699  0.00  0.00    +0.307 C 
ATOM      5  O   UNL     1       3.183  -3.994   5.677  0.00  0.00    -0.252 OA
ATOM      6  N   UNL     1       2.831  -2.114   4.573  0.00  0.00    -0.288 N 
ATOM      7  C   UNL     1       2.257  -1.467   3.381  0.00  0.00    +0.144 C 
ATOM      8  C   UNL     1       2.001  -5.643   4.007  0.00  0.00    +0.139 C 
ATOM      9  H   UNL     1       3.288  -1.591   5.250  0.00  0.00    +0.151 HD
ENDROOT
BRANCH   7  10
ATOM     10  C   UNL     1       1.267  -0.432   3.851  0.00  0.00    -0.022 A 
ATOM     11  C   UNL     1       0.340  -0.755   4.824  0.00  0.00    +0.006 A 
ATOM     12  C   UNL     1      -0.568   0.194   5.255  0.00  0.00    +0.004 A 
ATOM     13  C   UNL     1      -0.549   1.465   4.713  0.00  0.00    -0.042 A 
ATOM     14  C   UNL     1       0.379   1.788   3.740  0.00  0.00    +0.004 A 
ATOM     15  C   UNL     1       1.290   0.841   3.312  0.00  0.00    +0.006 A 
BRANCH  13  16
ATOM     16  C   UNL     1      -1.540   2.500   5.182  0.00  0.00    -0.013 C 
ATOM     17  C   UNL     1      -1.359   2.735   6.683  0.00  0.00    +0.015 C 
ATOM     18  C   UNL     1      -1.304   3.810   4.428  0.00  0.00    +0.015 C 
ATOM     19  C   UNL     1      -2.962   2.004   4.910  0.00  0.00    +0.015 C 
ENDBRANCH  13  16
ENDBRANCH   7  10
BRANCH   1  20
ATOM     20  C   UNL     1       0.969  -1.837   1.209  0.00  0.00    +0.339 C 
ATOM     21  O   UNL     1       1.674  -1.493   0.279  0.00  0.00    -0.245 OA
BRANCH  20  22
ATOM     22  O   UNL     1      -0.372  -1.714   1.122  0.00  0.00    -0.462 OA
BRANCH  22  24
ATOM     23  C   UNL     1      -2.422  -1.111  -0.006  0.00  0.00    +0.048 C 
ATOM     24  C   UNL     1      -0.896  -1.173  -0.092  0.00  0.00    +0.229 C 
ENDBRANCH  22  24
ENDBRANCH  20  22
ENDBRANCH   1  20
BRANCH   2  25
ATOM     25  C   UNL     1       0.832  -4.619   1.680  0.00  0.00    +0.136 C 
BRANCH  25  26
ATOM     26  N   UNL     1       1.822  -5.537   1.102  0.00  0.00    -0.294 NA
ATOM     27  C   UNL     1       2.794  -4.811   0.274  0.00  0.00    +0.104 C 
ATOM     28  C   UNL     1       3.908  -5.769  -0.160  0.00  0.00    +0.124 C 
ATOM     29  N   UNL     1       3.293  -6.939  -0.805  0.00  0.00    -0.283 N 
ATOM     30  C   UNL     1       2.213  -7.639  -0.093  0.00  0.00    +0.124 C 
ATOM     31  C   UNL     1       1.165  -6.607   0.338  0.00  0.00    +0.104 C 
ATOM     32  C   UNL     1       3.708  -7.359  -2.017  0.00  0.00    +0.303 C 
ATOM     33  O   UNL     1       4.661  -6.826  -2.551  0.00  0.00    -0.253 OA
ATOM     34  N   UNL     1       3.066  -8.369  -2.637  0.00  0.00    -0.294 N 
ATOM     35  H   UNL     1       2.351  -8.841  -2.182  0.00  0.00    +0.151 HD
BRANCH  34  36
ATOM     36  C   UNL     1       3.447  -8.754  -3.998  0.00  0.00    +0.028 C 
ATOM     37  C   UNL     1       4.915  -9.184  -4.014  0.00  0.00    +0.031 C 
ATOM     38  C   UNL     1       2.570  -9.917  -4.464  0.00  0.00    +0.031 C 
ATOM     39  C   UNL     1       3.255  -7.562  -4.938  0.00  0.00    +0.031 C 
ENDBRANCH  34  36
ENDBRANCH  25  26
ENDBRANCH   2  25
TORSDOF 8
