REMARK  Name = ZINC35745970
REMARK  13 active torsions:
REMARK  status: ('A' for Active; 'I' for Inactive)
REMARK    1  A    between atoms: C_1  and  C_2
REMARK    2  A    between atoms: C_2  and  C_3
REMARK    3  A    between atoms: C_3  and  C_4
REMARK    4  A    between atoms: C_4  and  C_6
REMARK    5  A    between atoms: C_4  and  O_31
REMARK    6  A    between atoms: C_6  and  N_7
REMARK    7  A    between atoms: N_7  and  C_8
REMARK    8  A    between atoms: N_7  and  C_27
REMARK    9  A    between atoms: C_8  and  C_9
REMARK   10  A    between atoms: C_15  and  C_20
REMARK   11  A    between atoms: C_27  and  C_28
REMARK   12  A    between atoms: C_28  and  C_29
REMARK   13  A    between atoms: C_28  and  C_30
REMARK                            x       y       z     vdW  Elec       q    Type
REMARK                         _______ _______ _______ _____ _____    ______ ____
ROOT
ATOM      1  C   UNL     1       3.955  -4.013  -2.727  0.00  0.00    +0.094 A 
ATOM      2  N   UNL     1       5.039  -4.238  -3.514  0.00  0.00    -0.312 N 
ATOM      3  H   UNL     1       4.918  -4.655  -4.381  0.00  0.00    +0.170 HD
ATOM      4  C   UNL     1       6.277  -3.893  -3.114  0.00  0.00    +0.260 A 
ATOM      5  O   UNL     1       7.239  -4.101  -3.832  0.00  0.00    -0.267 OA
ATOM      6  C   UNL     1       6.446  -3.277  -1.832  0.00  0.00    +0.080 A 
ATOM      7  C   UNL     1       7.668  -2.818  -1.183  0.00  0.00    +0.004 A 
ATOM      8  C   UNL     1       7.581  -2.259   0.048  0.00  0.00    +0.056 A 
ATOM      9  S   UNL     1       5.836  -2.318   0.406  0.00  0.00    -0.076 S 
ATOM     10  C   UNL     1       5.269  -3.085  -1.090  0.00  0.00    +0.116 A 
ATOM     11  N   UNL     1       4.077  -3.449  -1.555  0.00  0.00    -0.229 NA
ENDROOT
BRANCH   7  12
ATOM     12  C   UNL     1       8.981  -2.962  -1.857  0.00  0.00    -0.016 A 
ATOM     13  C   UNL     1       9.356  -4.189  -2.403  0.00  0.00    +0.010 A 
ATOM     14  C   UNL     1      10.579  -4.317  -3.030  0.00  0.00    +0.020 A 
ATOM     15  C   UNL     1      11.432  -3.230  -3.116  0.00  0.00    +0.041 A 
ATOM     16  C   UNL     1      11.064  -2.010  -2.575  0.00  0.00    +0.020 A 
ATOM     17  C   UNL     1       9.841  -1.869  -1.951  0.00  0.00    +0.010 A 
ATOM     18 CL   UNL     1      12.969  -3.398  -3.906  0.00  0.00    -0.084 Cl
ENDBRANCH   7  12
BRANCH   1  19
ATOM     19  C   UNL     1       2.588  -4.415  -3.217  0.00  0.00    -0.003 C 
BRANCH  19  20
ATOM     20  N   UNL     1       1.570  -3.944  -2.268  0.00  0.00    +0.386 N 
ATOM     21  H   UNL     1       1.797  -4.271  -1.341  0.00  0.00    -0.081 HD
BRANCH  20  22
ATOM     22  C   UNL     1       1.536  -2.476  -2.276  0.00  0.00    -0.047 C 
BRANCH  22  23
ATOM     23  C   UNL     1       0.615  -1.981  -1.159  0.00  0.00    +0.098 C 
BRANCH  23  24
ATOM     24  O   UNL     1      -0.737  -2.324  -1.469  0.00  0.00    -0.394 OA
ATOM     25  H   UNL     1      -1.060  -1.940  -2.296  0.00  0.00    +0.210 HD
ENDBRANCH  23  24
BRANCH  23  26
ATOM     26  C   UNL     1       0.739  -0.462  -1.030  0.00  0.00    +0.029 C 
BRANCH  26  28
ATOM     27  C   UNL     1       0.039   1.538   0.294  0.00  0.00    +0.004 C 
ATOM     28  C   UNL     1      -0.085   0.018   0.166  0.00  0.00    -0.001 C 
ENDBRANCH  26  28
ENDBRANCH  23  26
ENDBRANCH  22  23
ENDBRANCH  20  22
BRANCH  20  29
ATOM     29  C   UNL     1       0.255  -4.467  -2.663  0.00  0.00    -0.075 C 
BRANCH  29  30
ATOM     30  C   UNL     1       0.272  -5.995  -2.595  0.00  0.00    -0.034 C 
ATOM     31  C   UNL     1       0.489  -6.440  -1.148  0.00  0.00    +0.005 C 
ATOM     32  C   UNL     1      -1.064  -6.543  -3.102  0.00  0.00    +0.005 C 
ENDBRANCH  29  30
ENDBRANCH  20  29
ENDBRANCH  19  20
ENDBRANCH   1  19
TORSDOF 10
