REMARK  Name = ZINC52016812
REMARK  6 active torsions:
REMARK  status: ('A' for Active; 'I' for Inactive)
REMARK    1  A    between atoms: C_3  and  N_22
REMARK    2  A    between atoms: C_4  and  N_19
REMARK    3  A    between atoms: C_6  and  C_7
REMARK    4  A    between atoms: N_9  and  C_10
REMARK    5  A    between atoms: C_16  and  O_18
REMARK    6  A    between atoms: N_22  and  N_23
REMARK                            x       y       z     vdW  Elec       q    Type
REMARK                         _______ _______ _______ _____ _____    ______ ____
ROOT
ATOM      1  C   UNL     1      -0.004   1.387  -0.207  0.00  0.00    +0.015 A 
ATOM      2  C   UNL     1       1.189   2.071  -0.268  0.00  0.00    +0.027 A 
ATOM      3  C   UNL     1       2.391   1.398  -0.069  0.00  0.00    +0.071 A 
ATOM      4  C   UNL     1       2.390   0.030   0.193  0.00  0.00    +0.149 A 
ATOM      5  C   UNL     1       1.201  -0.659   0.256  0.00  0.00    +0.047 A 
ATOM      6  C   UNL     1      -0.007   0.015   0.056  0.00  0.00    +0.039 A 
ENDROOT
BRANCH   6   7
ATOM      7  C   UNL     1      -1.284  -0.722   0.123  0.00  0.00    +0.244 C 
ATOM      8  O   UNL     1      -1.286  -1.916   0.352  0.00  0.00    -0.270 OA
ATOM      9  N   UNL     1      -2.448  -0.071  -0.070  0.00  0.00    -0.306 N 
ATOM     10  H   UNL     1      -2.447   0.882  -0.253  0.00  0.00    +0.149 HD
BRANCH   9  11
ATOM     11  C   UNL     1      -3.716  -0.802  -0.003  0.00  0.00    +0.102 C 
ATOM     12  C   UNL     1      -4.012  -1.434  -1.365  0.00  0.00    +0.025 C 
ATOM     13  C   UNL     1      -4.112  -0.336  -2.426  0.00  0.00    +0.002 C 
ATOM     14  C   UNL     1      -5.239   0.630  -2.055  0.00  0.00    +0.003 C 
ATOM     15  C   UNL     1      -4.943   1.262  -0.694  0.00  0.00    +0.033 C 
ATOM     16  C   UNL     1      -4.843   0.164   0.367  0.00  0.00    +0.135 C 
BRANCH  16  17
ATOM     17  O   UNL     1      -4.566   0.753   1.639  0.00  0.00    -0.390 OA
ATOM     18  H   UNL     1      -5.241   1.378   1.938  0.00  0.00    +0.210 HD
ENDBRANCH  16  17
ENDBRANCH   9  11
ENDBRANCH   6   7
BRANCH   4  19
ATOM     19  N   UNL     1       3.670  -0.682   0.405  0.00  0.00    +0.058 N 
ATOM     20  O   UNL     1       3.816  -1.803  -0.024  0.00  0.00    -0.126 OA
ATOM     21  O   UNL     1       4.571  -0.143   1.005  0.00  0.00    -0.126 OA
ENDBRANCH   4  19
BRANCH   3  22
ATOM     22  N   UNL     1       3.594   2.092  -0.132  0.00  0.00    -0.281 N 
ATOM     23  H   UNL     1       4.434   1.612  -0.070  0.00  0.00    +0.166 HD
BRANCH  22  24
ATOM     24  N   UNL     1       3.592   3.450  -0.280  0.00  0.00    -0.256 NA
ATOM     25  H   UNL     1       4.534   3.812  -0.310  0.00  0.00    +0.140 HD
ATOM     26  H   UNL     1       3.074   3.723  -1.102  0.00  0.00    +0.140 HD
ENDBRANCH  22  24
ENDBRANCH   3  22
TORSDOF 6
