REMARK  Name = ZINC24211989
REMARK  9 active torsions:
REMARK  status: ('A' for Active; 'I' for Inactive)
REMARK    1  A    between atoms: C_1  and  C_2
REMARK    2  A    between atoms: N_11  and  C_12
REMARK    3  A    between atoms: C_12  and  C_13
REMARK    4  A    between atoms: N_15  and  C_16
REMARK    5  A    between atoms: C_17  and  C_25
REMARK    6  A    between atoms: N_27  and  C_28
REMARK    7  A    between atoms: C_28  and  C_29
REMARK    8  A    between atoms: C_29  and  O_30
REMARK    9  A    between atoms: O_30  and  C_31
REMARK                            x       y       z     vdW  Elec       q    Type
REMARK                         _______ _______ _______ _____ _____    ______ ____
ROOT
ATOM      1  C   UNL     1      -1.213   3.547   0.027  0.00  0.00    +0.084 A 
ATOM      2  C   UNL     1      -2.312   4.395   0.031  0.00  0.00    +0.069 A 
ATOM      3  C   UNL     1      -2.057   5.825   0.043  0.00  0.00    -0.023 A 
ATOM      4  C   UNL     1      -0.753   6.177   0.038  0.00  0.00    -0.004 A 
ATOM      5  S   UNL     1       0.129   4.642   0.026  0.00  0.00    -0.077 S 
ATOM      6  C   UNL     1      -0.192   7.565   0.041  0.00  0.00    +0.043 C 
ATOM      7  C   UNL     1      -1.318   8.542  -0.330  0.00  0.00    +0.005 C 
ATOM      8  C   UNL     1      -2.554   8.211   0.512  0.00  0.00    +0.005 C 
ATOM      9  C   UNL     1      -3.155   6.882   0.053  0.00  0.00    +0.037 C 
ENDROOT
BRANCH   1  12
ATOM     10  C   UNL     1      -0.018   1.503   0.010  0.00  0.00    +0.201 C 
ATOM     11  O   UNL     1       1.024   2.123   0.004  0.00  0.00    -0.278 OA
ATOM     12  N   UNL     1      -1.195   2.161   0.019  0.00  0.00    -0.281 N 
ATOM     13  H   UNL     1      -2.140   1.598   0.021  0.00  0.00    +0.155 HD
BRANCH  10  14
ATOM     14  C   UNL     1       0.002  -0.004   0.002  0.00  0.00    +0.020 C 
BRANCH  14  24
ATOM     15  C   UNL     1       0.991  -2.250   1.637  0.00  0.00    -0.007 C 
ATOM     16  C   UNL     1       1.462  -1.929   0.217  0.00  0.00    -0.023 C 
ATOM     17  C   UNL     1       2.897  -2.361   0.045  0.00  0.00    +0.005 A 
ATOM     18  C   UNL     1       3.469  -3.512   0.431  0.00  0.00    +0.021 A 
ATOM     19  C   UNL     1       4.827  -3.454   0.055  0.00  0.00    +0.019 A 
ATOM     20  C   UNL     1       5.030  -2.263  -0.550  0.00  0.00    +0.086 A 
ATOM     21  N   UNL     1       3.853  -1.588  -0.562  0.00  0.00    -0.354 N 
ATOM     22  C   UNL     1       3.579  -0.257  -1.116  0.00  0.00    +0.103 C 
ATOM     23  C   UNL     1       2.060  -0.105  -1.270  0.00  0.00    -0.055 C 
ATOM     24  N   UNL     1       1.393  -0.475  -0.014  0.00  0.00    +0.392 N 
ATOM     25  H   UNL     1       1.928   0.024   0.808  0.00  0.00    -0.080 HD
ENDBRANCH  14  24
ENDBRANCH  10  14
ENDBRANCH   1  12
BRANCH   2  26
ATOM     26  C   UNL     1      -3.680   3.866   0.028  0.00  0.00    +0.247 C 
ATOM     27  O   UNL     1      -4.248   3.641   1.080  0.00  0.00    -0.270 OA
ATOM     28  N   UNL     1      -4.308   3.629  -1.141  0.00  0.00    -0.309 N 
ATOM     29  H   UNL     1      -3.794   3.832  -2.092  0.00  0.00    +0.149 HD
BRANCH  28  30
ATOM     30  C   UNL     1      -5.674   3.101  -1.145  0.00  0.00    +0.132 C 
BRANCH  30  31
ATOM     31  C   UNL     1      -6.149   2.925  -2.589  0.00  0.00    +0.178 C 
BRANCH  31  32
ATOM     32  O   UNL     1      -5.356   1.925  -3.232  0.00  0.00    -0.381 OA
ATOM     33  C   UNL     1      -5.719   1.682  -4.593  0.00  0.00    +0.194 C 
ENDBRANCH  31  32
ENDBRANCH  30  31
ENDBRANCH  28  30
ENDBRANCH   2  26
TORSDOF 7
