REMARK  Name = ZINC13689229
REMARK  2 active torsions:
REMARK  status: ('A' for Active; 'I' for Inactive)
REMARK    1  A    between atoms: C_10  and  C_15
REMARK    2  A    between atoms: C_16  and  C_17
REMARK                            x       y       z     vdW  Elec       q    Type
REMARK                         _______ _______ _______ _____ _____    ______ ____
ROOT
ATOM      1  C   UNL     1       7.754   4.916   0.417  0.00  0.00    +0.002 A 
ATOM      2  C   UNL     1       6.644   4.086   0.357  0.00  0.00    +0.002 A 
ATOM      3  C   UNL     1       5.377   4.620   0.251  0.00  0.00    +0.028 A 
ATOM      4  C   UNL     1       5.207   5.996   0.203  0.00  0.00    +0.077 A 
ATOM      5  C   UNL     1       6.329   6.842   0.263  0.00  0.00    +0.092 A 
ATOM      6  C   UNL     1       7.607   6.283   0.370  0.00  0.00    +0.030 A 
ATOM      7  N   UNL     1       5.878   8.119   0.197  0.00  0.00    -0.210 NA
ATOM      8  C   UNL     1       4.561   8.122   0.101  0.00  0.00    +0.240 A 
ATOM      9  N   UNL     1       4.103   6.823   0.107  0.00  0.00    -0.261 N 
ATOM     10  C   UNL     1       2.752   6.585   0.009  0.00  0.00    +0.144 A 
ATOM     11  N   UNL     1       1.916   7.612  -0.079  0.00  0.00    -0.197 NA
ATOM     12  C   UNL     1       2.376   8.864  -0.078  0.00  0.00    +0.218 A 
ATOM     13  N   UNL     1       3.670   9.123   0.010  0.00  0.00    -0.179 NA
ATOM     14  N   UNL     1       1.483   9.910  -0.170  0.00  0.00    -0.327 N 
ATOM     15  H   UNL     1       0.531   9.732  -0.234  0.00  0.00    +0.145 HD
ATOM     16  H   UNL     1       1.806  10.825  -0.170  0.00  0.00    +0.145 HD
ENDROOT
BRANCH  10  17
ATOM     17  C   UNL     1       2.259   5.260   0.007  0.00  0.00    +0.048 C 
ATOM     18  C   UNL     1       0.921   5.035   0.026  0.00  0.00    +0.018 C 
BRANCH  18  19
ATOM     19  C   UNL     1       0.427   3.708   0.025  0.00  0.00    +0.012 A 
ATOM     20  C   UNL     1      -0.890   3.263   0.042  0.00  0.00    +0.015 A 
ATOM     21  C   UNL     1      -1.089   1.905   0.030  0.00  0.00    +0.008 A 
ATOM     22  C   UNL     1      -0.013   1.076   0.013  0.00  0.00    +0.046 A 
ATOM     23  S   UNL     1       1.332   2.170  -0.000  0.00  0.00    -0.097 S 
ENDBRANCH  18  19
ENDBRANCH  10  17
TORSDOF 2
