REMARK  Name = ZINC39503790
REMARK  5 active torsions:
REMARK  status: ('A' for Active; 'I' for Inactive)
REMARK    1  A    between atoms: C_4  and  O_7
REMARK    2  A    between atoms: O_7  and  S_8
REMARK    3  A    between atoms: S_8  and  C_11
REMARK    4  A    between atoms: N_21  and  C_23
REMARK    5  A    between atoms: C_28  and  O_29
REMARK                            x       y       z     vdW  Elec       q    Type
REMARK                         _______ _______ _______ _____ _____    ______ ____
ROOT
ATOM      1  C   UNL     1       3.125  -2.313   1.960  0.00  0.00    +0.190 C 
ATOM      2  C   UNL     1       3.626  -2.799   3.348  0.00  0.00    +0.057 C 
ATOM      3  C   UNL     1       3.191  -4.269   3.367  0.00  0.00    +0.038 C 
ATOM      4  C   UNL     1       1.910  -4.449   4.201  0.00  0.00    +0.027 C 
ATOM      5  C   UNL     1       1.953  -5.928   4.643  0.00  0.00    +0.016 C 
ATOM      6  C   UNL     1       3.427  -6.366   4.575  0.00  0.00    +0.054 C 
ATOM      7  C   UNL     1       4.231  -5.139   4.094  0.00  0.00    +0.039 C 
ATOM      8  I   UNL     1       4.109  -6.978   6.533  0.00  0.00    -0.082 I 
ATOM      9  N   UNL     1       2.996  -4.710   1.989  0.00  0.00    -0.319 N 
ATOM     10  C   UNL     1       3.324  -3.582   1.092  0.00  0.00    +0.135 C 
ENDROOT
BRANCH   9  11
ATOM     11  C   UNL     1       2.573  -5.981   1.586  0.00  0.00    +0.072 A 
ATOM     12  C   UNL     1       1.221  -6.246   1.425  0.00  0.00    +0.027 A 
ATOM     13  C   UNL     1       0.805  -7.503   1.027  0.00  0.00    +0.002 A 
ATOM     14  C   UNL     1       1.734  -8.498   0.789  0.00  0.00    +0.004 A 
ATOM     15  C   UNL     1       3.084  -8.242   0.948  0.00  0.00    +0.047 A 
ATOM     16  C   UNL     1       3.509  -6.984   1.341  0.00  0.00    +0.138 A 
BRANCH  16  17
ATOM     17  O   UNL     1       4.836  -6.729   1.493  0.00  0.00    -0.505 OA
ATOM     18  H   UNL     1       5.172  -6.907   2.382  0.00  0.00    +0.292 HD
ENDBRANCH  16  17
ENDBRANCH   9  11
BRANCH   1  19
ATOM     19  S   UNL     1       4.140  -0.941   1.346  0.00  0.00    +0.125 S 
ATOM     20  O   UNL     1       5.471  -1.383   1.113  0.00  0.00    -0.136 OA
ATOM     21  O   UNL     1       3.889   0.232   2.108  0.00  0.00    -0.136 OA
BRANCH  19  22
ATOM     22  O   UNL     1       3.586  -0.632  -0.037  0.00  0.00    -0.346 OA
BRANCH  22  26
ATOM     23  C   UNL     1      -0.017   1.378   0.010  0.00  0.00    +0.000 A 
ATOM     24  C   UNL     1       1.170   2.088   0.002  0.00  0.00    +0.004 A 
ATOM     25  C   UNL     1       2.377   1.417  -0.013  0.00  0.00    +0.048 A 
ATOM     26  C   UNL     1       2.399   0.030  -0.021  0.00  0.00    +0.156 A 
ATOM     27  C   UNL     1       1.207  -0.680  -0.013  0.00  0.00    +0.048 A 
ATOM     28  C   UNL     1       0.002  -0.004   0.002  0.00  0.00    +0.004 A 
ENDBRANCH  22  26
ENDBRANCH  19  22
ENDBRANCH   1  19
TORSDOF 5
