REMARK  Name = ZINC41584675
REMARK  10 active torsions:
REMARK  status: ('A' for Active; 'I' for Inactive)
REMARK    1  A    between atoms: C_1  and  C_2
REMARK    2  A    between atoms: C_6  and  O_37
REMARK    3  A    between atoms: C_7  and  C_23
REMARK    4  A    between atoms: C_12  and  C_13
REMARK    5  A    between atoms: C_16  and  O_21
REMARK    6  A    between atoms: C_17  and  O_19
REMARK    7  A    between atoms: O_19  and  C_20
REMARK    8  A    between atoms: O_21  and  C_22
REMARK    9  A    between atoms: C_23  and  N_24
REMARK   10  A    between atoms: C_29  and  C_31
REMARK                            x       y       z     vdW  Elec       q    Type
REMARK                         _______ _______ _______ _____ _____    ______ ____
ROOT
ATOM      1  C   UNL     1      -0.018   1.503   0.010  0.00  0.00    +0.045 C 
ATOM      2  C   UNL     1       0.002  -0.004   0.002  0.00  0.00    -0.025 A 
ATOM      3  C   UNL     1      -1.206  -0.749   0.004  0.00  0.00    +0.022 A 
ATOM      4  C   UNL     1      -2.438  -0.107  -0.189  0.00  0.00    +0.015 A 
ATOM      5  C   UNL     1      -3.588  -0.839  -0.225  0.00  0.00    +0.046 A 
ATOM      6  C   UNL     1      -3.550  -2.223  -0.064  0.00  0.00    +0.122 A 
ATOM      7  C   UNL     1      -2.345  -2.873   0.146  0.00  0.00    +0.020 A 
ATOM      8  C   UNL     1      -1.168  -2.143   0.192  0.00  0.00    +0.144 A 
ATOM      9  O   UNL     1       0.014  -2.760   0.438  0.00  0.00    -0.421 OA
ATOM     10  C   UNL     1       1.125  -2.163  -0.050  0.00  0.00    +0.345 A 
ATOM     11  O   UNL     1       2.042  -2.819  -0.510  0.00  0.00    -0.244 OA
ATOM     12  C   UNL     1       1.190  -0.693  -0.013  0.00  0.00    +0.070 A 
ENDROOT
BRANCH  12  13
ATOM     13  C   UNL     1       2.490   0.018   0.012  0.00  0.00    -0.007 A 
ATOM     14  C   UNL     1       2.859   0.836  -1.055  0.00  0.00    +0.012 A 
ATOM     15  C   UNL     1       4.070   1.498  -1.031  0.00  0.00    +0.050 A 
ATOM     16  C   UNL     1       4.922   1.351   0.053  0.00  0.00    +0.162 A 
ATOM     17  C   UNL     1       4.558   0.535   1.122  0.00  0.00    +0.162 A 
ATOM     18  C   UNL     1       3.343  -0.125   1.106  0.00  0.00    +0.058 A 
BRANCH  17  19
ATOM     19  O   UNL     1       5.396   0.393   2.184  0.00  0.00    -0.491 OA
ATOM     20  C   UNL     1       4.958  -0.459   3.245  0.00  0.00    +0.277 C 
ENDBRANCH  17  19
BRANCH  16  21
ATOM     21  O   UNL     1       6.114   2.004   0.073  0.00  0.00    -0.491 OA
ATOM     22  C   UNL     1       6.424   2.823  -1.056  0.00  0.00    +0.277 C 
ENDBRANCH  16  21
ENDBRANCH  12  13
BRANCH   6  23
ATOM     23  O   UNL     1      -4.703  -2.939  -0.113  0.00  0.00    -0.506 OA
ATOM     24  H   UNL     1      -4.938  -3.245  -1.000  0.00  0.00    +0.292 HD
ENDBRANCH   6  23
BRANCH   7  25
ATOM     25  C   UNL     1      -2.314  -4.370   0.325  0.00  0.00    -0.035 C 
BRANCH  25  26
ATOM     26  N   UNL     1      -2.152  -5.016  -0.985  0.00  0.00    +0.387 N 
ATOM     27  C   UNL     1      -3.331  -4.739  -1.815  0.00  0.00    -0.078 C 
ATOM     28  C   UNL     1      -3.131  -5.341  -3.207  0.00  0.00    -0.019 C 
ATOM     29  C   UNL     1      -2.938  -6.855  -3.080  0.00  0.00    -0.003 C 
ATOM     30  C   UNL     1      -1.751  -7.132  -2.153  0.00  0.00    -0.011 C 
ATOM     31  C   UNL     1      -2.002  -6.464  -0.799  0.00  0.00    -0.036 C 
ATOM     32  H   UNL     1      -1.329  -4.649  -1.440  0.00  0.00    -0.080 HD
BRANCH  31  33
ATOM     33  C   UNL     1      -0.836  -6.734   0.117  0.00  0.00    -0.043 A 
ATOM     34  C   UNL     1      -0.912  -7.735   1.074  0.00  0.00    +0.005 A 
ATOM     35  C   UNL     1       0.184  -7.948   1.895  0.00  0.00    +0.020 A 
ATOM     36  C   UNL     1       1.309  -7.161   1.734  0.00  0.00    +0.111 A 
ATOM     37  N   UNL     1       1.346  -6.218   0.813  0.00  0.00    -0.263 NA
ATOM     38  C   UNL     1       0.324  -5.991   0.011  0.00  0.00    +0.112 A 
ENDBRANCH  31  33
ENDBRANCH  25  26
ENDBRANCH   7  25
TORSDOF 7
