REMARK  Name = ZINC19891331
REMARK  6 active torsions:
REMARK  status: ('A' for Active; 'I' for Inactive)
REMARK    1  A    between atoms: C_1  and  C_2
REMARK    2  A    between atoms: C_5  and  S_8
REMARK    3  A    between atoms: S_8  and  N_11
REMARK    4  A    between atoms: N_11  and  C_12
REMARK    5  A    between atoms: C_14  and  S_29
REMARK    6  A    between atoms: C_15  and  N_28
REMARK                            x       y       z     vdW  Elec       q    Type
REMARK                         _______ _______ _______ _____ _____    ______ ____
ROOT
ATOM      1  C   UNL     1       1.987  -6.365   0.182  0.00  0.00    +0.088 A 
ATOM      2  C   UNL     1       0.967  -7.303  -0.006  0.00  0.00    +0.059 A 
ATOM      3  C   UNL     1       1.262  -8.615  -0.237  0.00  0.00    +0.143 A 
ATOM      4  C   UNL     1       2.591  -9.049  -0.291  0.00  0.00    +0.064 A 
ATOM      5  C   UNL     1       3.628  -8.131  -0.106  0.00  0.00    +0.058 A 
ATOM      6  C   UNL     1       3.323  -6.772   0.127  0.00  0.00    +0.059 A 
ATOM      7  C   UNL     1       4.413  -5.801   0.314  0.00  0.00    +0.196 C 
ATOM      8  O   UNL     1       4.182  -4.694   0.762  0.00  0.00    -0.287 OA
ATOM      9  C   UNL     1       5.794  -6.188  -0.048  0.00  0.00    +0.033 A 
ATOM     10  C   UNL     1       6.794  -5.227  -0.157  0.00  0.00    +0.012 A 
ATOM     11  C   UNL     1       8.079  -5.607  -0.497  0.00  0.00    +0.001 A 
ATOM     12  C   UNL     1       8.379  -6.938  -0.730  0.00  0.00    +0.001 A 
ATOM     13  C   UNL     1       7.397  -7.907  -0.626  0.00  0.00    +0.012 A 
ATOM     14  C   UNL     1       6.098  -7.541  -0.285  0.00  0.00    +0.033 A 
ATOM     15  C   UNL     1       5.034  -8.565  -0.159  0.00  0.00    +0.196 C 
ATOM     16  O   UNL     1       5.316  -9.747  -0.115  0.00  0.00    -0.287 OA
ENDROOT
BRANCH   3  17
ATOM     17  S   UNL     1      -0.044  -9.774  -0.471  0.00  0.00    +0.141 S 
ATOM     18  O   UNL     1      -0.240  -9.906  -1.906  0.00  0.00    -0.140 OA
ATOM     19  O   UNL     1       0.387 -11.024   0.136  0.00  0.00    -0.140 OA
ATOM     20  O   UNL     1      -1.219  -9.226   0.189  0.00  0.00    -0.043 OA
ENDBRANCH   3  17
BRANCH   4  21
ATOM     21  N   UNL     1       2.877 -10.385  -0.526  0.00  0.00    -0.356 N 
ATOM     22  H   UNL     1       2.247 -10.937  -1.015  0.00  0.00    +0.142 HD
ATOM     23  H   UNL     1       3.707 -10.767  -0.201  0.00  0.00    +0.142 HD
ENDBRANCH   4  21
BRANCH   1  24
ATOM     24  N   UNL     1       1.674  -5.035   0.417  0.00  0.00    -0.097 NA
BRANCH  24  25
ATOM     25  S   UNL     1       0.090  -4.556   0.482  0.00  0.00    +0.092 S 
ATOM     26  O   UNL     1      -0.475  -5.177   1.629  0.00  0.00    -0.148 OA
ATOM     27  O   UNL     1      -0.443  -4.736  -0.823  0.00  0.00    -0.148 OA
BRANCH  25  32
ATOM     28  C   UNL     1       0.061   1.382   1.550  0.00  0.00    +0.044 C 
ATOM     29  C   UNL     1       0.068  -0.101   1.284  0.00  0.00    -0.050 A 
ATOM     30  C   UNL     1       0.088  -0.569  -0.017  0.00  0.00    +0.005 A 
ATOM     31  C   UNL     1       0.095  -1.930  -0.262  0.00  0.00    +0.029 A 
ATOM     32  C   UNL     1       0.083  -2.822   0.794  0.00  0.00    +0.110 A 
ATOM     33  C   UNL     1       0.063  -2.354   2.095  0.00  0.00    +0.029 A 
ATOM     34  C   UNL     1       0.061  -0.993   2.340  0.00  0.00    +0.005 A 
ENDBRANCH  25  32
ENDBRANCH  24  25
ENDBRANCH   1  24
TORSDOF 5
