REMARK  Name = ZINC00808935
REMARK  11 active torsions:
REMARK  status: ('A' for Active; 'I' for Inactive)
REMARK    1  A    between atoms: C_1  and  C_2
REMARK    2  A    between atoms: C_2  and  O_3
REMARK    3  A    between atoms: O_3  and  C_4
REMARK    4  A    between atoms: C_4  and  C_6
REMARK    5  A    between atoms: C_7  and  C_27
REMARK    6  A    between atoms: C_9  and  N_26
REMARK    7  A    between atoms: C_10  and  C_24
REMARK    8  A    between atoms: C_11  and  C_13
REMARK    9  A    between atoms: C_16  and  O_19
REMARK   10  A    between atoms: O_19  and  C_20
REMARK   11  A    between atoms: C_20  and  C_21
REMARK                            x       y       z     vdW  Elec       q    Type
REMARK                         _______ _______ _______ _____ _____    ______ ____
ROOT
ATOM      1  C   UNL     1       1.534  -6.625  -1.281  0.00  0.00    +0.087 C 
ATOM      2  C   UNL     1       0.372  -7.287  -1.210  0.00  0.00    +0.115 C 
ATOM      3  O   UNL     1      -0.284  -7.458  -0.054  0.00  0.00    -0.445 OA
ATOM      4  C   UNL     1       0.375  -7.309   1.108  0.00  0.00    +0.198 C 
ATOM      5  C   UNL     1       1.551  -6.640   1.181  0.00  0.00    +0.098 C 
ATOM      6  C   UNL     1       2.169  -6.035  -0.051  0.00  0.00    +0.105 C 
ATOM      7  C   UNL     1      -0.217  -7.858  -2.474  0.00  0.00    +0.087 C 
ENDROOT
BRANCH   6   8
ATOM      8  C   UNL     1       1.952  -4.544  -0.041  0.00  0.00    -0.034 A 
ATOM      9  C   UNL     1       3.037  -3.688  -0.047  0.00  0.00    +0.008 A 
ATOM     10  C   UNL     1       2.840  -2.321  -0.037  0.00  0.00    +0.046 A 
ATOM     11  C   UNL     1       1.552  -1.807  -0.022  0.00  0.00    +0.121 A 
ATOM     12  C   UNL     1       0.464  -2.668  -0.011  0.00  0.00    +0.046 A 
ATOM     13  C   UNL     1       0.666  -4.034  -0.026  0.00  0.00    +0.008 A 
BRANCH  11  14
ATOM     14  O   UNL     1       1.356  -0.462  -0.013  0.00  0.00    -0.483 OA
BRANCH  14  15
ATOM     15  C   UNL     1       0.002  -0.004   0.002  0.00  0.00    +0.324 C 
BRANCH  15  16
ATOM     16  C   UNL     1      -0.018   1.503   0.010  0.00  0.00    +0.248 C 
ATOM     17  O   UNL     1       1.024   2.123   0.004  0.00  0.00    -0.272 OA
ATOM     18  N   UNL     1      -1.195   2.161   0.019  0.00  0.00    -0.327 N 
ATOM     19  H   UNL     1      -2.028   1.664   0.021  0.00  0.00    +0.145 HD
ATOM     20  H   UNL     1      -1.208   3.131   0.025  0.00  0.00    +0.145 HD
ENDBRANCH  15  16
ENDBRANCH  14  15
ENDBRANCH  11  14
ENDBRANCH   6   8
BRANCH   4  21
ATOM     21  N   UNL     1      -0.157  -7.849   2.252  0.00  0.00    -0.328 N 
ATOM     22  H   UNL     1       0.308  -7.749   3.098  0.00  0.00    +0.145 HD
ATOM     23  H   UNL     1      -0.999  -8.330   2.216  0.00  0.00    +0.145 HD
ENDBRANCH   4  21
BRANCH   1  24
ATOM     24  C   UNL     1       2.177  -6.479  -2.535  0.00  0.00    +0.339 C 
ATOM     25  O   UNL     1       1.672  -6.952  -3.536  0.00  0.00    -0.245 OA
BRANCH  24  26
ATOM     26  O   UNL     1       3.348  -5.815  -2.619  0.00  0.00    -0.462 OA
BRANCH  26  28
ATOM     27  C   UNL     1       5.252  -4.925  -3.813  0.00  0.00    +0.048 C 
ATOM     28  C   UNL     1       3.940  -5.705  -3.915  0.00  0.00    +0.229 C 
ENDBRANCH  26  28
ENDBRANCH  24  26
ENDBRANCH   1  24
BRANCH   5  29
ATOM     29  C   UNL     1       2.213  -6.507   2.443  0.00  0.00    +0.101 C 
ATOM     30  N   UNL     1       2.739  -6.401   3.445  0.00  0.00    -0.191 NA
ENDBRANCH   5  29
TORSDOF 9
