REMARK  Name = ZINC39325066
REMARK  8 active torsions:
REMARK  status: ('A' for Active; 'I' for Inactive)
REMARK    1  A    between atoms: C_1  and  C_2
REMARK    2  A    between atoms: C_4  and  C_36
REMARK    3  A    between atoms: C_7  and  C_14
REMARK    4  A    between atoms: C_14  and  N_15
REMARK    5  A    between atoms: N_15  and  C_16
REMARK    6  A    between atoms: N_15  and  S_26
REMARK    7  A    between atoms: C_16  and  C_17
REMARK    8  A    between atoms: S_26  and  C_29
REMARK                            x       y       z     vdW  Elec       q    Type
REMARK                         _______ _______ _______ _____ _____    ______ ____
ROOT
ATOM      1  N   UNL     1      -1.041  -6.678   2.477  0.00  0.00    -0.171 NA
ENDROOT
BRANCH   1   2
ATOM      2  S   UNL     1      -0.202  -8.101   2.358  0.00  0.00    +0.061 S 
ATOM      3  O   UNL     1      -0.750  -8.978   3.333  0.00  0.00    -0.153 OA
ATOM      4  O   UNL     1      -0.156  -8.431   0.977  0.00  0.00    -0.153 OA
BRANCH   2   5
ATOM      5  C   UNL     1       1.456  -7.771   2.853  0.00  0.00    +0.106 A 
ATOM      6  C   UNL     1       2.391  -7.374   1.916  0.00  0.00    +0.030 A 
ATOM      7  C   UNL     1       3.692  -7.115   2.303  0.00  0.00    +0.022 A 
ATOM      8  C   UNL     1       4.059  -7.253   3.630  0.00  0.00    +0.041 A 
ATOM      9  C   UNL     1       3.123  -7.651   4.568  0.00  0.00    +0.022 A 
ATOM     10  C   UNL     1       1.821  -7.904   4.180  0.00  0.00    +0.030 A 
ATOM     11 CL   UNL     1       5.693  -6.929   4.118  0.00  0.00    -0.084 Cl
ENDBRANCH   2   5
ENDBRANCH   1   2
BRANCH   1  12
ATOM     12  C   UNL     1      -1.223  -5.834   1.293  0.00  0.00    +0.126 C 
BRANCH  12  19
ATOM     13  C   UNL     1      -0.140   1.515   0.278  0.00  0.00    +0.044 C 
ATOM     14  C   UNL     1      -0.152   0.011   0.177  0.00  0.00    -0.048 A 
ATOM     15  C   UNL     1      -0.336  -0.575  -1.075  0.00  0.00    +0.007 A 
ATOM     16  C   UNL     1      -0.357  -1.924  -1.229  0.00  0.00    -0.042 A 
ATOM     17  C   UNL     1      -0.180  -2.771  -0.049  0.00  0.00    -0.004 A 
ATOM     18  C   UNL     1      -0.193  -4.130  -0.156  0.00  0.00    -0.003 C 
ATOM     19  C   UNL     1      -0.002  -4.929   1.119  0.00  0.00    +0.114 C 
ATOM     20  C   UNL     1       0.187  -4.154   2.403  0.00  0.00    +0.225 C 
ATOM     21  O   UNL     1       0.345  -4.745   3.455  0.00  0.00    -0.275 OA
ATOM     22  N   UNL     1       0.181  -2.832   2.378  0.00  0.00    -0.284 N 
ATOM     23  C   UNL     1       0.013  -2.126   1.261  0.00  0.00    +0.041 A 
ATOM     24  C   UNL     1       0.022  -0.720   1.309  0.00  0.00    +0.027 A 
ATOM     25  C   UNL     1      -0.558  -2.538  -2.591  0.00  0.00    +0.044 C 
ATOM     26  H   UNL     1       0.304  -2.354   3.213  0.00  0.00    +0.155 HD
ENDBRANCH  12  19
ENDBRANCH   1  12
BRANCH   1  27
ATOM     27  C   UNL     1      -1.601  -6.262   3.765  0.00  0.00    +0.144 C 
BRANCH  27  28
ATOM     28  C   UNL     1      -3.033  -6.721   3.862  0.00  0.00    -0.028 A 
ATOM     29  C   UNL     1      -4.051  -5.903   3.411  0.00  0.00    +0.009 A 
ATOM     30  C   UNL     1      -5.367  -6.319   3.498  0.00  0.00    +0.050 A 
ATOM     31  C   UNL     1      -5.667  -7.559   4.038  0.00  0.00    +0.166 A 
ATOM     32  C   UNL     1      -4.641  -8.384   4.492  0.00  0.00    +0.167 A 
ATOM     33  C   UNL     1      -3.325  -7.962   4.397  0.00  0.00    +0.054 A 
ATOM     34  O   UNL     1      -5.189  -9.538   4.974  0.00  0.00    -0.453 OA
ATOM     35  C   UNL     1      -6.582  -9.242   5.185  0.00  0.00    +0.466 C 
ATOM     36  O   UNL     1      -6.858  -8.197   4.234  0.00  0.00    -0.453 OA
ENDBRANCH  27  28
ENDBRANCH   1  27
TORSDOF 6
