REMARK  Name = ZINC09344299
REMARK  6 active torsions:
REMARK  status: ('A' for Active; 'I' for Inactive)
REMARK    1  A    between atoms: C_3  and  S_8
REMARK    2  A    between atoms: C_6  and  N_7
REMARK    3  A    between atoms: S_8  and  N_11
REMARK    4  A    between atoms: N_11  and  C_12
REMARK    5  A    between atoms: C_12  and  C_26
REMARK    6  A    between atoms: N_15  and  C_19
REMARK                            x       y       z     vdW  Elec       q    Type
REMARK                         _______ _______ _______ _____ _____    ______ ____
ROOT
ATOM      1  C   UNL     1       4.737   1.490   2.455  0.00  0.00    +0.306 C 
ATOM      2  C   UNL     1       4.887   1.861   3.917  0.00  0.00    +0.281 C 
ATOM      3  O   UNL     1       5.686   2.632   4.404  0.00  0.00    -0.270 OA
ATOM      4  N   UNL     1       3.937   1.149   4.559  0.00  0.00    -0.187 N 
ATOM      5  C   UNL     1       3.222   0.384   3.669  0.00  0.00    +0.345 C 
ATOM      6  O   UNL     1       2.208  -0.431   4.032  0.00  0.00    -0.247 OA
ATOM      7  N   UNL     1       3.623   0.528   2.447  0.00  0.00    -0.190 NA
ENDROOT
BRANCH   4   8
ATOM      8  C   UNL     1       3.712   1.183   5.942  0.00  0.00    +0.046 A 
ATOM      9  C   UNL     1       2.635   0.498   6.489  0.00  0.00    +0.027 A 
ATOM     10  C   UNL     1       2.415   0.533   7.852  0.00  0.00    +0.040 A 
ATOM     11  C   UNL     1       3.267   1.252   8.673  0.00  0.00    +0.124 A 
ATOM     12  C   UNL     1       4.341   1.937   8.130  0.00  0.00    +0.040 A 
ATOM     13  C   UNL     1       4.569   1.899   6.768  0.00  0.00    +0.027 A 
ATOM     14  F   UNL     1       3.050   1.286  10.006  0.00  0.00    -0.205 F 
ENDBRANCH   4   8
BRANCH   1  15
ATOM     15  C   UNL     1       6.016   0.835   1.930  0.00  0.00    +0.438 C 
ATOM     16  F   UNL     1       7.060   1.766   1.952  0.00  0.00    -0.166 F 
ATOM     17  F   UNL     1       6.347  -0.256   2.741  0.00  0.00    -0.166 F 
ATOM     18  F   UNL     1       5.811   0.395   0.618  0.00  0.00    -0.166 F 
ENDBRANCH   1  15
BRANCH   1  19
ATOM     19  N   UNL     1       4.401   2.671   1.656  0.00  0.00    -0.147 NA
ATOM     20  H   UNL     1       4.995   2.961   0.946  0.00  0.00    +0.151 HD
BRANCH  19  21
ATOM     21  S   UNL     1       3.008   3.511   1.965  0.00  0.00    +0.061 S 
ATOM     22  O   UNL     1       1.980   2.545   2.137  0.00  0.00    -0.153 OA
ATOM     23  O   UNL     1       2.929   4.540   0.989  0.00  0.00    -0.153 OA
BRANCH  21  26
ATOM     24  C   UNL     1       3.916   6.210   4.798  0.00  0.00    +0.024 A 
ATOM     25  C   UNL     1       3.752   5.582   3.579  0.00  0.00    +0.030 A 
ATOM     26  C   UNL     1       3.215   4.309   3.522  0.00  0.00    +0.105 A 
ATOM     27  C   UNL     1       2.839   3.661   4.685  0.00  0.00    +0.030 A 
ATOM     28  C   UNL     1       3.000   4.284   5.907  0.00  0.00    +0.024 A 
ATOM     29  C   UNL     1       3.539   5.562   5.968  0.00  0.00    +0.025 A 
BRANCH  29  30
ATOM     30  N   UNL     1       3.703   6.195   7.202  0.00  0.00    -0.358 N 
ATOM     31  H   UNL     1       4.080   7.088   7.243  0.00  0.00    +0.142 HD
ATOM     32  H   UNL     1       3.440   5.741   8.018  0.00  0.00    +0.142 HD
ENDBRANCH  29  30
ENDBRANCH  21  26
ENDBRANCH  19  21
ENDBRANCH   1  19
TORSDOF 6
