REMARK  Name = ZINC39677380
REMARK  8 active torsions:
REMARK  status: ('A' for Active; 'I' for Inactive)
REMARK    1  A    between atoms: C_1  and  C_2
REMARK    2  A    between atoms: C_2  and  C_3
REMARK    3  A    between atoms: C_3  and  C_4
REMARK    4  A    between atoms: C_4  and  C_6
REMARK    5  A    between atoms: C_4  and  C_7
REMARK    6  A    between atoms: C_11  and  C_20
REMARK    7  A    between atoms: N_22  and  C_23
REMARK    8  A    between atoms: C_23  and  C_24
REMARK                            x       y       z     vdW  Elec       q    Type
REMARK                         _______ _______ _______ _____ _____    ______ ____
ROOT
ATOM      1  C   UNL     1       1.068  -2.475   2.596  0.00  0.00    +0.218 C 
ATOM      2  O   UNL     1       1.313  -1.758   3.543  0.00  0.00    -0.275 OA
ATOM      3  N   UNL     1       1.344  -3.793   2.660  0.00  0.00    -0.300 N 
ATOM      4  C   UNL     1       1.225  -4.799   1.578  0.00  0.00    +0.121 C 
ATOM      5  C   UNL     1       2.459  -5.712   1.758  0.00  0.00    +0.100 C 
ATOM      6  C   UNL     1       2.852  -5.554   3.236  0.00  0.00    -0.004 C 
ATOM      7  C   UNL     1       1.839  -4.562   3.826  0.00  0.00    +0.115 C 
ATOM      8  C   UNL     1       4.264  -4.988   3.350  0.00  0.00    -0.010 C 
ATOM      9  C   UNL     1       4.653  -4.894   4.828  0.00  0.00    -0.082 C 
ATOM     10  N   UNL     1       4.588  -6.228   5.439  0.00  0.00    +0.379 N 
ATOM     11  C   UNL     1       3.208  -6.726   5.408  0.00  0.00    -0.082 C 
ATOM     12  C   UNL     1       2.757  -6.897   3.955  0.00  0.00    -0.010 C 
ATOM     13  H   UNL     1       5.184  -6.860   4.927  0.00  0.00    -0.086 HD
ATOM     14  H   UNL     1       4.904  -6.173   6.396  0.00  0.00    -0.086 HD
ENDROOT
BRANCH   5  15
ATOM     15  C   UNL     1       3.583  -5.258   0.863  0.00  0.00    +0.218 C 
ATOM     16  O   UNL     1       3.644  -4.100   0.506  0.00  0.00    -0.275 OA
ATOM     17  N   UNL     1       4.519  -6.138   0.458  0.00  0.00    -0.311 N 
ATOM     18  H   UNL     1       4.470  -7.064   0.742  0.00  0.00    +0.149 HD
BRANCH  17  19
ATOM     19  C   UNL     1       5.612  -5.697  -0.413  0.00  0.00    +0.139 C 
BRANCH  19  20
ATOM     20  C   UNL     1       6.515  -6.864  -0.717  0.00  0.00    -0.027 A 
ATOM     21  C   UNL     1       7.587  -7.141   0.111  0.00  0.00    +0.009 A 
ATOM     22  C   UNL     1       8.419  -8.210  -0.166  0.00  0.00    +0.050 A 
ATOM     23  C   UNL     1       8.179  -9.008  -1.274  0.00  0.00    +0.162 A 
ATOM     24  C   UNL     1       7.099  -8.732  -2.105  0.00  0.00    +0.162 A 
ATOM     25  C   UNL     1       6.266  -7.660  -1.819  0.00  0.00    +0.054 A 
ATOM     26  O   UNL     1       6.841  -9.507  -3.193  0.00  0.00    -0.485 OA
ATOM     27  C   UNL     1       7.906 -10.346  -3.653  0.00  0.00    +0.270 C 
ATOM     28  C   UNL     1       8.519 -11.054  -2.437  0.00  0.00    +0.270 C 
ATOM     29  O   UNL     1       9.008 -10.055  -1.536  0.00  0.00    -0.485 OA
ENDBRANCH  19  20
ENDBRANCH  17  19
ENDBRANCH   5  15
BRANCH   1  30
ATOM     30  C   UNL     1       0.457  -1.893   1.348  0.00  0.00    +0.072 C 
ATOM     31  C   UNL     1       0.995  -0.477   1.129  0.00  0.00    +0.017 C 
BRANCH  30  32
ATOM     32  C   UNL     1      -1.065  -1.842   1.501  0.00  0.00    +0.012 C 
BRANCH  32  34
ATOM     33  C   UNL     1      -3.215  -1.318   0.343  0.00  0.00    +0.004 C 
ATOM     34  C   UNL     1      -1.694  -1.369   0.189  0.00  0.00    -0.003 C 
ENDBRANCH  32  34
ENDBRANCH  30  32
ENDBRANCH   1  30
TORSDOF 6
