REMARK  Name = ZINC39237550
REMARK  10 active torsions:
REMARK  status: ('A' for Active; 'I' for Inactive)
REMARK    1  A    between atoms: C_1  and  C_2
REMARK    2  A    between atoms: C_2  and  N_3
REMARK    3  A    between atoms: C_4  and  C_30
REMARK    4  A    between atoms: C_8  and  S_10
REMARK    5  A    between atoms: S_10  and  C_11
REMARK    6  A    between atoms: C_13  and  C_24
REMARK    7  A    between atoms: C_32  and  O_38
REMARK    8  A    between atoms: C_34  and  O_36
REMARK    9  A    between atoms: O_36  and  C_37
REMARK   10  A    between atoms: O_38  and  C_39
REMARK                            x       y       z     vdW  Elec       q    Type
REMARK                         _______ _______ _______ _____ _____    ______ ____
ROOT
ATOM      1  C   UNL     1      -2.465  -1.265   1.708  0.00  0.00    +0.167 C 
ATOM      2  C   UNL     1      -3.688  -1.279   0.812  0.00  0.00    -0.010 C 
ATOM      3  C   UNL     1      -4.723  -2.151   1.165  0.00  0.00    +0.003 A 
ATOM      4  C   UNL     1      -5.896  -2.228   0.386  0.00  0.00    +0.030 A 
ATOM      5  C   UNL     1      -6.888  -3.086   0.752  0.00  0.00    +0.042 A 
ATOM      6  C   UNL     1      -6.769  -3.891   1.883  0.00  0.00    +0.022 A 
ATOM      7  C   UNL     1      -5.661  -3.860   2.674  0.00  0.00    +0.025 A 
ATOM      8  C   UNL     1      -4.596  -2.998   2.356  0.00  0.00    +0.041 A 
ATOM      9  N   UNL     1      -3.507  -2.970   3.133  0.00  0.00    -0.284 N 
ATOM     10  C   UNL     1      -2.469  -2.191   2.903  0.00  0.00    +0.235 C 
ATOM     11  O   UNL     1      -1.512  -2.218   3.655  0.00  0.00    -0.274 OA
ATOM     12 CL   UNL     1      -8.331  -3.178  -0.210  0.00  0.00    -0.084 Cl
ATOM     13  H   UNL     1      -3.481  -3.553   3.907  0.00  0.00    +0.155 HD
ENDROOT
BRANCH   2  14
ATOM     14  C   UNL     1      -3.779  -0.447  -0.332  0.00  0.00    -0.020 A 
ATOM     15  C   UNL     1      -4.703   0.610  -0.365  0.00  0.00    +0.008 A 
ATOM     16  C   UNL     1      -4.783   1.413  -1.481  0.00  0.00    +0.001 A 
ATOM     17  C   UNL     1      -3.955   1.182  -2.568  0.00  0.00    +0.000 A 
ATOM     18  C   UNL     1      -3.040   0.142  -2.545  0.00  0.00    +0.001 A 
ATOM     19  C   UNL     1      -2.940  -0.669  -1.436  0.00  0.00    +0.008 A 
ENDBRANCH   2  14
BRANCH   1  20
ATOM     20  S   UNL     1      -2.241   0.429   2.318  0.00  0.00    -0.099 S 
BRANCH  20  25
ATOM     21  N   UNL     1       0.256   0.538   1.259  0.00  0.00    -0.244 NA
ATOM     22  C   UNL     1       0.603  -0.902   1.153  0.00  0.00    +0.231 C 
ATOM     23  N   UNL     1       0.627  -1.383   2.540  0.00  0.00    -0.166 NA
ATOM     24  N   UNL     1       0.061  -0.590   3.299  0.00  0.00    -0.160 NA
ATOM     25  C   UNL     1      -0.450   0.575   2.564  0.00  0.00    +0.259 C 
BRANCH  22  26
ATOM     26  C   UNL     1       1.957  -1.070   0.513  0.00  0.00    +0.000 A 
ATOM     27  C   UNL     1       2.409  -0.137  -0.400  0.00  0.00    +0.053 A 
ATOM     28  C   UNL     1       3.655  -0.289  -0.991  0.00  0.00    +0.124 A 
ATOM     29  C   UNL     1       4.447  -1.379  -0.664  0.00  0.00    +0.091 A 
ATOM     30  C   UNL     1       3.991  -2.314   0.252  0.00  0.00    +0.124 A 
ATOM     31  C   UNL     1       2.747  -2.154   0.845  0.00  0.00    +0.053 A 
BRANCH  30  32
ATOM     32  O   UNL     1       4.765  -3.384   0.575  0.00  0.00    -0.495 OA
ATOM     33  C   UNL     1       6.037  -3.482  -0.070  0.00  0.00    +0.277 C 
ENDBRANCH  30  32
BRANCH  28  34
ATOM     34  O   UNL     1       4.099   0.629  -1.890  0.00  0.00    -0.495 OA
ATOM     35  C   UNL     1       5.391   0.408  -2.458  0.00  0.00    +0.277 C 
ENDBRANCH  28  34
ENDBRANCH  22  26
BRANCH  21  37
ATOM     36  C   UNL     1      -0.941   2.441   0.287  0.00  0.00    +0.020 C 
ATOM     37  C   UNL     1      -0.636   0.946   0.166  0.00  0.00    +0.086 C 
ENDBRANCH  21  37
ENDBRANCH  20  25
ENDBRANCH   1  20
TORSDOF 7
