REMARK  Name = ZINC14163501
REMARK  11 active torsions:
REMARK  status: ('A' for Active; 'I' for Inactive)
REMARK    1  A    between atoms: C_1  and  C_2
REMARK    2  A    between atoms: C_2  and  C_3
REMARK    3  A    between atoms: C_3  and  C_4
REMARK    4  A    between atoms: C_4  and  C_34
REMARK    5  A    between atoms: N_7  and  C_11
REMARK    6  A    between atoms: C_11  and  C_12
REMARK    7  A    between atoms: N_14  and  C_15
REMARK    8  A    between atoms: C_18  and  S_21
REMARK    9  A    between atoms: S_21  and  N_24
REMARK   10  A    between atoms: C_26  and  C_33
REMARK   11  A    between atoms: C_29  and  C_32
REMARK                            x       y       z     vdW  Elec       q    Type
REMARK                         _______ _______ _______ _____ _____    ______ ____
ROOT
ATOM      1  C   UNL     1       0.901  -5.387   1.834  0.00  0.00    +0.235 C 
ATOM      2  O   UNL     1      -0.146  -5.779   1.365  0.00  0.00    -0.274 OA
ATOM      3  N   UNL     1       1.655  -6.213   2.585  0.00  0.00    -0.284 N 
ATOM      4  H   UNL     1       2.524  -5.922   2.904  0.00  0.00    +0.155 HD
ENDROOT
BRANCH   3   5
ATOM      5  C   UNL     1       1.185  -7.492   2.905  0.00  0.00    +0.034 A 
ATOM      6  C   UNL     1       1.478  -8.052   4.142  0.00  0.00    +0.025 A 
ATOM      7  C   UNL     1       1.013  -9.314   4.454  0.00  0.00    +0.030 A 
ATOM      8  C   UNL     1       0.256 -10.020   3.537  0.00  0.00    +0.106 A 
ATOM      9  C   UNL     1      -0.037  -9.466   2.305  0.00  0.00    +0.030 A 
ATOM     10  C   UNL     1       0.420  -8.201   1.989  0.00  0.00    +0.025 A 
BRANCH   8  11
ATOM     11  S   UNL     1      -0.335 -11.630   3.940  0.00  0.00    +0.061 S 
ATOM     12  O   UNL     1      -0.558 -12.301   2.707  0.00  0.00    -0.153 OA
ATOM     13  O   UNL     1       0.533 -12.144   4.940  0.00  0.00    -0.153 OA
BRANCH  11  14
ATOM     14  N   UNL     1      -1.819 -11.443   4.652  0.00  0.00    -0.176 NA
ATOM     15  C   UNL     1      -1.935 -11.273   6.106  0.00  0.00    +0.112 C 
ATOM     16  C   UNL     1      -2.745 -10.004   6.391  0.00  0.00    +0.002 C 
ATOM     17  C   UNL     1      -4.087 -10.085   5.659  0.00  0.00    +0.009 C 
ATOM     18  C   UNL     1      -3.842 -10.174   4.151  0.00  0.00    +0.002 C 
ATOM     19  C   UNL     1      -3.043 -11.438   3.840  0.00  0.00    +0.112 C 
ATOM     20  C   UNL     1      -5.184 -10.222   3.417  0.00  0.00    +0.009 C 
ATOM     21  C   UNL     1      -2.991  -9.882   7.896  0.00  0.00    +0.009 C 
ENDBRANCH  11  14
ENDBRANCH   8  11
ENDBRANCH   3   5
BRANCH   1  22
ATOM     22  C   UNL     1       1.359  -3.974   1.576  0.00  0.00    +0.214 C 
BRANCH  22  26
ATOM     23  C   UNL     1      -1.410  -2.059   0.008  0.00  0.00    +0.138 C 
ATOM     24  C   UNL     1      -0.674  -2.589   1.223  0.00  0.00    +0.251 C 
ATOM     25  O   UNL     1      -0.968  -2.420   2.387  0.00  0.00    -0.272 OA
ATOM     26  N   UNL     1       0.373  -3.286   0.740  0.00  0.00    -0.215 N 
ATOM     27  C   UNL     1       0.401  -3.271  -0.597  0.00  0.00    +0.310 C 
ATOM     28  O   UNL     1       1.252  -3.830  -1.262  0.00  0.00    -0.252 OA
ATOM     29  N   UNL     1      -0.617  -2.567  -1.125  0.00  0.00    -0.281 N 
ATOM     30  H   UNL     1      -0.795  -2.423  -2.068  0.00  0.00    +0.152 HD
BRANCH  23  31
ATOM     31  C   UNL     1      -2.815  -2.601  -0.043  0.00  0.00    -0.015 A 
ATOM     32  C   UNL     1      -3.854  -1.881   0.516  0.00  0.00    +0.006 A 
ATOM     33  C   UNL     1      -5.143  -2.378   0.470  0.00  0.00    +0.000 A 
ATOM     34  C   UNL     1      -5.393  -3.595  -0.137  0.00  0.00    +0.000 A 
ATOM     35  C   UNL     1      -4.354  -4.315  -0.697  0.00  0.00    +0.000 A 
ATOM     36  C   UNL     1      -3.066  -3.816  -0.654  0.00  0.00    +0.006 A 
ENDBRANCH  23  31
BRANCH  23  37
ATOM     37  C   UNL     1      -1.424  -0.529   0.012  0.00  0.00    +0.040 C 
BRANCH  37  39
ATOM     38  C   UNL     1      -0.002   1.524  -0.005  0.00  0.00    +0.004 C 
ATOM     39  C   UNL     1       0.013  -0.006  -0.009  0.00  0.00    -0.000 C 
ENDBRANCH  37  39
ENDBRANCH  23  37
ENDBRANCH  22  26
ENDBRANCH   1  22
TORSDOF 8
