REMARK  Name = ZINC33960795
REMARK  8 active torsions:
REMARK  status: ('A' for Active; 'I' for Inactive)
REMARK    1  A    between atoms: C_1  and  C_2
REMARK    2  A    between atoms: C_5  and  C_23
REMARK    3  A    between atoms: C_6  and  C_7
REMARK    4  A    between atoms: C_6  and  C_8
REMARK    5  A    between atoms: N_12  and  N_13
REMARK    6  A    between atoms: N_13  and  C_14
REMARK    7  A    between atoms: C_17  and  N_20
REMARK    8  A    between atoms: N_25  and  C_26
REMARK                            x       y       z     vdW  Elec       q    Type
REMARK                         _______ _______ _______ _____ _____    ______ ____
ROOT
ATOM      1  C   UNL     1      -0.056   1.525   0.037  0.00  0.00    +0.018 C 
ATOM      2  C   UNL     1      -0.027  -0.005   0.022  0.00  0.00    +0.022 C 
ATOM      3  C   UNL     1      -1.414  -0.719   0.081  0.00  0.00    +0.015 C 
ATOM      4  C   UNL     1      -1.076  -2.163   0.522  0.00  0.00    +0.026 C 
ATOM      5  C   UNL     1       0.477  -2.158   0.680  0.00  0.00    +0.117 C 
ATOM      6  C   UNL     1       0.706  -0.702   1.224  0.00  0.00    -0.003 C 
ATOM      7  C   UNL     1      -0.016  -0.478   2.554  0.00  0.00    +0.013 C 
ATOM      8  C   UNL     1       2.185  -0.319   1.304  0.00  0.00    +0.013 C 
ATOM      9  C   UNL     1       1.002  -1.997  -0.753  0.00  0.00    +0.195 C 
ATOM     10  O   UNL     1       1.574  -2.841  -1.414  0.00  0.00    -0.290 OA
ATOM     11  C   UNL     1       0.706  -0.657  -1.157  0.00  0.00    +0.109 C 
ATOM     12  N   UNL     1       0.981  -0.100  -2.308  0.00  0.00    -0.183 NA
ENDROOT
BRANCH   5  13
ATOM     13  C   UNL     1       1.065  -3.280   1.496  0.00  0.00    +0.232 C 
ATOM     14  O   UNL     1       1.689  -3.033   2.506  0.00  0.00    -0.274 OA
ATOM     15  N   UNL     1       0.897  -4.559   1.104  0.00  0.00    -0.283 N 
ATOM     16  H   UNL     1       0.344  -4.761   0.333  0.00  0.00    +0.155 HD
BRANCH  15  17
ATOM     17  C   UNL     1       1.520  -5.595   1.809  0.00  0.00    +0.052 A 
ATOM     18  C   UNL     1       1.680  -5.503   3.185  0.00  0.00    +0.026 A 
ATOM     19  C   UNL     1       2.295  -6.526   3.878  0.00  0.00    +0.022 A 
ATOM     20  C   UNL     1       2.754  -7.644   3.203  0.00  0.00    +0.042 A 
ATOM     21  C   UNL     1       2.598  -7.739   1.831  0.00  0.00    +0.041 A 
ATOM     22  C   UNL     1       1.976  -6.720   1.133  0.00  0.00    +0.064 A 
ATOM     23 CL   UNL     1       1.773  -6.843  -0.586  0.00  0.00    -0.082 Cl
ATOM     24 CL   UNL     1       3.529  -8.928   4.077  0.00  0.00    -0.083 Cl
ENDBRANCH  15  17
ENDBRANCH   5  13
BRANCH  12  25
ATOM     25  N   UNL     1       1.608  -0.769  -3.215  0.00  0.00    -0.237 N 
ATOM     26  H   UNL     1       1.875  -1.686  -3.044  0.00  0.00    +0.174 HD
BRANCH  25  27
ATOM     27  C   UNL     1       1.901  -0.175  -4.443  0.00  0.00    +0.048 A 
ATOM     28  C   UNL     1       1.525   1.141  -4.688  0.00  0.00    +0.027 A 
ATOM     29  C   UNL     1       1.817   1.726  -5.904  0.00  0.00    +0.034 A 
ATOM     30  C   UNL     1       2.484   1.004  -6.878  0.00  0.00    +0.126 A 
ATOM     31  C   UNL     1       2.860  -0.305  -6.638  0.00  0.00    +0.034 A 
ATOM     32  C   UNL     1       2.576  -0.894  -5.422  0.00  0.00    +0.027 A 
BRANCH  30  33
ATOM     33  N   UNL     1       2.796   1.635  -8.180  0.00  0.00    +0.056 N 
ATOM     34  O   UNL     1       2.467   2.779  -8.392  0.00  0.00    -0.126 OA
ATOM     35  O   UNL     1       3.378   1.006  -9.033  0.00  0.00    -0.126 OA
ENDBRANCH  30  33
ENDBRANCH  25  27
ENDBRANCH  12  25
TORSDOF 5
