REMARK  Name = ZINC09521202
REMARK  4 active torsions:
REMARK  status: ('A' for Active; 'I' for Inactive)
REMARK    1  A    between atoms: C_6  and  C_7
REMARK    2  A    between atoms: C_7  and  C_8
REMARK    3  A    between atoms: C_16  and  S_20
REMARK    4  A    between atoms: S_20  and  N_23
REMARK                            x       y       z     vdW  Elec       q    Type
REMARK                         _______ _______ _______ _____ _____    ______ ____
ROOT
ATOM      1  C   UNL     1       1.154   4.090   1.434  0.00  0.00    +0.223 C 
ATOM      2  O   UNL     1       1.175   3.298   2.351  0.00  0.00    -0.275 OA
ATOM      3  N   UNL     1       1.136   5.414   1.687  0.00  0.00    -0.264 N 
ATOM      4  C   UNL     1       1.141   5.869   2.996  0.00  0.00    +0.165 A 
ATOM      5  N   UNL     1       1.163   5.173   4.109  0.00  0.00    -0.225 NA
ATOM      6  C   UNL     1       1.166   5.755   5.328  0.00  0.00    +0.080 A 
ATOM      7  C   UNL     1       1.189   5.127   6.595  0.00  0.00    +0.031 A 
ATOM      8  C   UNL     1       1.189   5.871   7.746  0.00  0.00    +0.030 A 
ATOM      9  C   UNL     1       1.167   7.258   7.712  0.00  0.00    +0.106 A 
ATOM     10  C   UNL     1       1.145   7.905   6.491  0.00  0.00    +0.045 A 
ATOM     11  C   UNL     1       1.145   7.168   5.333  0.00  0.00    +0.043 A 
ATOM     12  S   UNL     1       1.128   7.552   3.598  0.00  0.00    -0.052 S 
ATOM     13  H   UNL     1       1.119   6.048   0.954  0.00  0.00    +0.157 HD
ENDROOT
BRANCH   9  14
ATOM     14  S   UNL     1       1.169   8.184   9.211  0.00  0.00    +0.056 S 
ATOM     15  O   UNL     1       1.743   7.347  10.205  0.00  0.00    -0.153 OA
ATOM     16  O   UNL     1       1.698   9.465   8.896  0.00  0.00    -0.153 OA
BRANCH  14  17
ATOM     17  N   UNL     1      -0.412   8.418   9.644  0.00  0.00    -0.204 NA
ATOM     18  H   UNL     1      -1.124   8.061   9.091  0.00  0.00    +0.144 HD
ATOM     19  H   UNL     1      -0.626   8.912  10.451  0.00  0.00    +0.144 HD
ENDBRANCH  14  17
ENDBRANCH   9  14
BRANCH   1  20
ATOM     20  C   UNL     1       1.148   3.596   0.010  0.00  0.00    +0.131 C 
BRANCH  20  26
ATOM     21  C   UNL     1       2.379   1.418  -0.011  0.00  0.00    +0.008 A 
ATOM     22  C   UNL     1       2.405   0.035  -0.020  0.00  0.00    +0.050 A 
ATOM     23  C   UNL     1       1.220  -0.680  -0.013  0.00  0.00    +0.166 A 
ATOM     24  C   UNL     1       0.002  -0.004   0.002  0.00  0.00    +0.166 A 
ATOM     25  C   UNL     1      -0.017   1.381   0.010  0.00  0.00    +0.053 A 
ATOM     26  C   UNL     1       1.171   2.089   0.002  0.00  0.00    -0.035 A 
ATOM     27  O   UNL     1      -1.007  -0.923   0.006  0.00  0.00    -0.453 OA
ATOM     28  C   UNL     1      -0.403  -2.159  -0.419  0.00  0.00    +0.466 C 
ATOM     29  O   UNL     1       0.973  -2.023  -0.019  0.00  0.00    -0.453 OA
ENDBRANCH  20  26
ENDBRANCH   1  20
TORSDOF 4
