REMARK  Name = ZINC17044358
REMARK  11 active torsions:
REMARK  status: ('A' for Active; 'I' for Inactive)
REMARK    1  A    between atoms: C_1  and  C_2
REMARK    2  A    between atoms: C_2  and  C_5
REMARK    3  A    between atoms: N_3  and  O_4
REMARK    4  A    between atoms: C_5  and  O_39
REMARK    5  A    between atoms: C_6  and  O_38
REMARK    6  A    between atoms: C_11  and  C_37
REMARK    7  A    between atoms: C_21  and  C_36
REMARK    8  A    between atoms: C_24  and  O_27
REMARK    9  A    between atoms: O_27  and  C_28
REMARK   10  A    between atoms: C_28  and  C_30
REMARK   11  A    between atoms: O_39  and  C_40
REMARK                            x       y       z     vdW  Elec       q    Type
REMARK                         _______ _______ _______ _____ _____    ______ ____
ROOT
ATOM      1  C   UNL     1       3.031   3.596  -0.384  0.00  0.00    +0.141 C 
ATOM      2  C   UNL     1       3.297   4.355  -1.705  0.00  0.00    +0.153 C 
ATOM      3  C   UNL     1       4.792   4.128  -2.023  0.00  0.00    +0.039 C 
ATOM      4  C   UNL     1       5.141   2.769  -1.371  0.00  0.00    +0.004 C 
ATOM      5  C   UNL     1       4.208   2.644  -0.179  0.00  0.00    +0.008 C 
ATOM      6  C   UNL     1       3.865   1.259   0.271  0.00  0.00    +0.010 C 
ATOM      7  C   UNL     1       3.746   0.234  -0.850  0.00  0.00    +0.005 C 
ATOM      8  C   UNL     1       5.012   0.283  -1.702  0.00  0.00    +0.003 C 
ATOM      9  C   UNL     1       5.096   1.647  -2.382  0.00  0.00    +0.000 C 
ATOM     10  C   UNL     1       3.916   1.798  -3.341  0.00  0.00    +0.031 C 
ATOM     11  C   UNL     1       3.910   0.647  -4.308  0.00  0.00    -0.027 C 
ATOM     12  C   UNL     1       4.390  -0.524  -4.012  0.00  0.00    -0.064 C 
ATOM     13  C   UNL     1       5.051  -0.853  -2.708  0.00  0.00    -0.008 C 
ATOM     14  C   UNL     1       4.412  -2.111  -2.117  0.00  0.00    +0.015 C 
ATOM     15  C   UNL     1       4.382  -3.244  -3.141  0.00  0.00    +0.046 C 
ATOM     16  C   UNL     1       3.572  -2.825  -4.368  0.00  0.00    +0.181 C 
ATOM     17  C   UNL     1       4.254  -1.631  -5.045  0.00  0.00    +0.075 C 
ATOM     18  C   UNL     1       6.528  -1.158  -2.986  0.00  0.00    +0.016 C 
ATOM     19  C   UNL     1       5.002   3.251   1.001  0.00  0.00    +0.015 C 
ENDROOT
BRANCH   1  21
ATOM     20  C   UNL     1       0.432   3.658  -0.604  0.00  0.00    +0.067 C 
ATOM     21  C   UNL     1       1.713   2.874  -0.483  0.00  0.00    +0.089 C 
ATOM     22  N   UNL     1       1.681   1.595  -0.465  0.00  0.00    -0.094 NA
BRANCH  22  23
ATOM     23  O   UNL     1       0.442   0.916  -0.558  0.00  0.00    -0.409 OA
ATOM     24  H   UNL     1       0.519  -0.047  -0.536  0.00  0.00    +0.328 HD
ENDBRANCH  22  23
ENDBRANCH   1  21
BRANCH   2  25
ATOM     25  O   UNL     1       2.436   3.914  -2.747  0.00  0.00    -0.389 OA
ATOM     26  H   UNL     1       2.574   4.367  -3.590  0.00  0.00    +0.210 HD
ENDBRANCH   2  25
BRANCH   1  27
ATOM     27  O   UNL     1       2.976   4.536   0.699  0.00  0.00    -0.368 OA
ATOM     28  C   UNL     1       1.999   5.565   0.527  0.00  0.00    +0.195 C 
ENDBRANCH   1  27
BRANCH  16  29
ATOM     29  O   UNL     1       3.496  -3.933  -5.301  0.00  0.00    -0.458 OA
BRANCH  29  30
ATOM     30  C   UNL     1       2.396  -4.006  -6.076  0.00  0.00    +0.339 C 
ATOM     31  O   UNL     1       1.525  -3.166  -5.974  0.00  0.00    -0.245 OA
BRANCH  30  32
ATOM     32  C   UNL     1       2.251  -5.107  -7.050  0.00  0.00    +0.059 A 
ATOM     33  C   UNL     1       3.253  -6.071  -7.174  0.00  0.00    +0.015 A 
ATOM     34  C   UNL     1       3.108  -7.100  -8.081  0.00  0.00    +0.001 A 
ATOM     35  C   UNL     1       1.977  -7.172  -8.875  0.00  0.00    +0.000 A 
ATOM     36  C   UNL     1       0.983  -6.217  -8.762  0.00  0.00    +0.001 A 
ATOM     37  C   UNL     1       1.112  -5.186  -7.854  0.00  0.00    +0.015 A 
ENDBRANCH  30  32
ENDBRANCH  29  30
ENDBRANCH  16  29
TORSDOF 7
