REMARK  Name = ZINC59994157
REMARK  10 active torsions:
REMARK  status: ('A' for Active; 'I' for Inactive)
REMARK    1  A    between atoms: C_1  and  C_2
REMARK    2  A    between atoms: N_4  and  C_5
REMARK    3  A    between atoms: C_5  and  C_12
REMARK    4  A    between atoms: C_14  and  C_17
REMARK    5  A    between atoms: C_17  and  C_18
REMARK    6  A    between atoms: C_18  and  C_19
REMARK    7  A    between atoms: N_21  and  N_22
REMARK    8  A    between atoms: N_22  and  C_23
REMARK    9  A    between atoms: N_22  and  C_30
REMARK   10  A    between atoms: C_23  and  C_24
REMARK                            x       y       z     vdW  Elec       q    Type
REMARK                         _______ _______ _______ _____ _____    ______ ____
ROOT
ATOM      1  C   UNL     1      -4.270  -1.767   2.414  0.00  0.00    +0.107 C 
ENDROOT
BRANCH   1   2
ATOM      2  C   UNL     1      -4.981  -1.643   3.737  0.00  0.00    +0.230 C 
ATOM      3  O   UNL     1      -4.667  -2.360   4.663  0.00  0.00    -0.274 OA
ATOM      4  N   UNL     1      -5.966  -0.736   3.890  0.00  0.00    -0.234 N 
ATOM      5  H   UNL     1      -6.217  -0.163   3.150  0.00  0.00    +0.173 HD
BRANCH   4   6
ATOM      6  N   UNL     1      -6.627  -0.622   5.120  0.00  0.00    -0.247 N 
BRANCH   6   7
ATOM      7  C   UNL     1      -7.562  -1.586   5.503  0.00  0.00    +0.048 A 
ATOM      8  C   UNL     1      -8.298  -1.417   6.669  0.00  0.00    +0.025 A 
ATOM      9  C   UNL     1      -9.222  -2.373   7.045  0.00  0.00    +0.002 A 
ATOM     10  C   UNL     1      -9.414  -3.496   6.262  0.00  0.00    +0.000 A 
ATOM     11  C   UNL     1      -8.682  -3.668   5.101  0.00  0.00    +0.002 A 
ATOM     12  C   UNL     1      -7.761  -2.713   4.717  0.00  0.00    +0.025 A 
ENDBRANCH   6   7
BRANCH   6  13
ATOM     13  C   UNL     1      -6.337   0.510   6.005  0.00  0.00    +0.162 C 
BRANCH  13  14
ATOM     14  C   UNL     1      -5.212   0.143   6.938  0.00  0.00    -0.028 A 
ATOM     15  C   UNL     1      -5.485  -0.497   8.132  0.00  0.00    +0.005 A 
ATOM     16  C   UNL     1      -4.452  -0.834   8.988  0.00  0.00    +0.000 A 
ATOM     17  C   UNL     1      -3.147  -0.530   8.649  0.00  0.00    +0.000 A 
ATOM     18  C   UNL     1      -2.874   0.109   7.454  0.00  0.00    +0.000 A 
ATOM     19  C   UNL     1      -3.906   0.442   6.596  0.00  0.00    +0.005 A 
ENDBRANCH  13  14
ENDBRANCH   6  13
ENDBRANCH   4   6
ENDBRANCH   1   2
BRANCH   1  20
ATOM     20  C   UNL     1      -3.205  -2.861   2.507  0.00  0.00    +0.108 C 
BRANCH  20  23
ATOM     21  C   UNL     1      -1.061  -2.682  -0.411  0.00  0.00    +0.195 A 
ATOM     22  N   UNL     1      -1.424  -2.330   0.827  0.00  0.00    -0.194 NA
ATOM     23  C   UNL     1      -2.494  -2.984   1.184  0.00  0.00    +0.228 A 
ATOM     24  O   UNL     1      -2.852  -3.785   0.172  0.00  0.00    -0.338 OA
ATOM     25  N   UNL     1      -1.904  -3.566  -0.862  0.00  0.00    -0.059 NA
BRANCH  21  26
ATOM     26  C   UNL     1       0.126  -2.139  -1.164  0.00  0.00    +0.097 C 
ATOM     27  C   UNL     1       1.399  -2.561  -0.481  0.00  0.00    +0.034 C 
ATOM     28  C   UNL     1       2.506  -1.495  -0.590  0.00  0.00    +0.003 C 
ATOM     29  C   UNL     1       2.582  -0.853  -1.988  0.00  0.00    +0.000 C 
ATOM     30  C   UNL     1       2.423  -1.861  -3.094  0.00  0.00    +0.000 C 
ATOM     31  C   UNL     1       0.938  -1.902  -3.508  0.00  0.00    +0.003 C 
ATOM     32  C   UNL     1       0.131  -2.704  -2.600  0.00  0.00    +0.034 C 
BRANCH  26  36
ATOM     33  C   UNL     1      -0.039   1.538  -0.113  0.00  0.00    +0.109 C 
ATOM     34  C   UNL     1       0.036   0.033  -0.066  0.00  0.00    +0.211 C 
ATOM     35  O   UNL     1       0.082  -0.538   1.003  0.00  0.00    -0.276 OA
ATOM     36  N   UNL     1       0.053  -0.677  -1.211  0.00  0.00    -0.303 N 
ATOM     37  H   UNL     1       0.016  -0.220  -2.066  0.00  0.00    +0.150 HD
ENDBRANCH  26  36
ENDBRANCH  21  26
ENDBRANCH  20  23
ENDBRANCH   1  20
TORSDOF 9
