REMARK  Name = ZINC31845474
REMARK  4 active torsions:
REMARK  status: ('A' for Active; 'I' for Inactive)
REMARK    1  A    between atoms: C_1  and  C_2
REMARK    2  A    between atoms: N_12  and  C_13
REMARK    3  A    between atoms: C_13  and  C_14
REMARK    4  A    between atoms: N_16  and  C_17
REMARK                            x       y       z     vdW  Elec       q    Type
REMARK                         _______ _______ _______ _____ _____    ______ ____
ROOT
ATOM      1  C   UNL     1      -1.859   0.039   2.173  0.00  0.00    +0.231 C 
ATOM      2  O   UNL     1      -1.749   1.190   2.541  0.00  0.00    -0.274 OA
ATOM      3  N   UNL     1      -1.648  -0.969   3.042  0.00  0.00    -0.308 N 
ATOM      4  H   UNL     1      -1.748  -2.013   2.708  0.00  0.00    +0.149 HD
ENDROOT
BRANCH   3   5
ATOM      5  C   UNL     1      -1.286  -0.676   4.431  0.00  0.00    +0.035 C 
ATOM      6  C   UNL     1       0.022   0.117   4.460  0.00  0.00    +0.029 C 
ATOM      7  C   UNL     1       0.401   0.423   5.911  0.00  0.00    -0.008 C 
ATOM      8  C   UNL     1       0.582  -0.888   6.678  0.00  0.00    +0.007 C 
ATOM      9  C   UNL     1      -0.726  -1.681   6.649  0.00  0.00    -0.008 C 
ATOM     10  C   UNL     1      -1.105  -1.987   5.198  0.00  0.00    +0.029 C 
ATOM     11  C   UNL     1      -1.837  -0.856   7.303  0.00  0.00    +0.007 C 
ATOM     12  C   UNL     1      -2.018   0.455   6.535  0.00  0.00    -0.008 C 
ATOM     13  C   UNL     1      -0.710   1.248   6.564  0.00  0.00    +0.007 C 
ATOM     14  C   UNL     1      -2.397   0.148   5.085  0.00  0.00    +0.029 C 
ENDBRANCH   3   5
BRANCH   1  15
ATOM     15  C   UNL     1      -2.232  -0.262   0.745  0.00  0.00    +0.201 C 
BRANCH  15  27
ATOM     16  C   UNL     1       2.462   3.926  -0.005  0.00  0.00    +0.044 C 
ATOM     17  C   UNL     1       1.163   3.161   0.009  0.00  0.00    -0.047 A 
ATOM     18  C   UNL     1       1.175   1.779   0.000  0.00  0.00    +0.005 A 
ATOM     19  C   UNL     1      -0.013   1.076   0.008  0.00  0.00    +0.027 A 
ATOM     20  C   UNL     1      -1.230   1.752   0.017  0.00  0.00    +0.074 A 
ATOM     21  C   UNL     1      -1.238   3.142   0.039  0.00  0.00    +0.153 A 
ATOM     22  C   UNL     1      -0.039   3.841   0.030  0.00  0.00    +0.051 A 
ATOM     23  O   UNL     1      -2.403   3.849   0.072  0.00  0.00    -0.423 OA
ATOM     24  C   UNL     1      -3.529   3.127  -0.115  0.00  0.00    +0.330 C 
ATOM     25  O   UNL     1      -4.461   3.555  -0.753  0.00  0.00    -0.249 OA
ATOM     26  C   UNL     1      -3.559   1.750   0.518  0.00  0.00    +0.226 C 
ATOM     27  N   UNL     1      -2.406   0.997   0.008  0.00  0.00    -0.308 N 
ENDBRANCH  15  27
ENDBRANCH   1  15
TORSDOF 3
