REMARK  Name = ZINC39682573
REMARK  7 active torsions:
REMARK  status: ('A' for Active; 'I' for Inactive)
REMARK    1  A    between atoms: C_4  and  C_7
REMARK    2  A    between atoms: C_7  and  C_9
REMARK    3  A    between atoms: C_7  and  N_13
REMARK    4  A    between atoms: C_9  and  C_10
REMARK    5  A    between atoms: C_14  and  C_16
REMARK    6  A    between atoms: C_27  and  C_29
REMARK    7  A    between atoms: C_32  and  C_34
REMARK                            x       y       z     vdW  Elec       q    Type
REMARK                         _______ _______ _______ _____ _____    ______ ____
ROOT
ATOM      1  C   UNL     1       4.553  -3.192  -3.009  0.00  0.00    +0.100 C 
ATOM      2  C   UNL     1       4.035  -4.489  -2.347  0.00  0.00    +0.121 C 
ATOM      3  N   UNL     1       4.681  -5.583  -3.110  0.00  0.00    -0.294 N 
ATOM      4  C   UNL     1       6.057  -5.091  -3.365  0.00  0.00    +0.115 C 
ATOM      5  C   UNL     1       5.880  -3.592  -3.675  0.00  0.00    -0.004 C 
ATOM      6  C   UNL     1       7.033  -2.790  -3.079  0.00  0.00    -0.010 C 
ATOM      7  C   UNL     1       8.333  -3.162  -3.797  0.00  0.00    -0.082 C 
ATOM      8  N   UNL     1       8.201  -2.875  -5.231  0.00  0.00    +0.379 N 
ATOM      9  C   UNL     1       7.152  -3.718  -5.816  0.00  0.00    -0.082 C 
ATOM     10  C   UNL     1       5.802  -3.370  -5.183  0.00  0.00    -0.010 C 
ATOM     11  C   UNL     1       4.141  -6.758  -3.487  0.00  0.00    +0.282 C 
ATOM     12  O   UNL     1       4.807  -7.561  -4.115  0.00  0.00    -0.267 OA
ATOM     13  H   UNL     1       7.960  -1.904  -5.357  0.00  0.00    -0.086 HD
ATOM     14  H   UNL     1       9.078  -3.063  -5.692  0.00  0.00    -0.086 HD
ENDROOT
BRANCH  11  15
ATOM     15  C   UNL     1       2.752  -7.070  -3.141  0.00  0.00    +0.190 A 
ATOM     16  C   UNL     1       2.081  -8.231  -3.458  0.00  0.00    +0.055 A 
ATOM     17  C   UNL     1       0.789  -8.105  -2.937  0.00  0.00    +0.050 A 
ATOM     18  C   UNL     1       0.719  -6.886  -2.327  0.00  0.00    +0.136 A 
ATOM     19  O   UNL     1       1.909  -6.273  -2.451  0.00  0.00    -0.450 OA
BRANCH  18  20
ATOM     20  C   UNL     1      -0.466  -6.333  -1.640  0.00  0.00    +0.017 A 
ATOM     21  C   UNL     1      -1.645  -7.077  -1.570  0.00  0.00    +0.014 A 
ATOM     22  C   UNL     1      -2.748  -6.557  -0.927  0.00  0.00    +0.039 A 
ATOM     23  C   UNL     1      -2.688  -5.297  -0.351  0.00  0.00    +0.123 A 
ATOM     24  C   UNL     1      -1.520  -4.554  -0.418  0.00  0.00    +0.039 A 
ATOM     25  C   UNL     1      -0.409  -5.067  -1.054  0.00  0.00    +0.014 A 
ATOM     26  F   UNL     1      -3.772  -4.792   0.278  0.00  0.00    -0.205 F 
ENDBRANCH  18  20
ENDBRANCH  11  15
BRANCH   1  28
ATOM     27  N   UNL     1       4.686  -0.827  -2.299  0.00  0.00    -0.308 N 
ATOM     28  C   UNL     1       4.787  -2.129  -1.967  0.00  0.00    +0.219 C 
ATOM     29  O   UNL     1       5.067  -2.445  -0.830  0.00  0.00    -0.275 OA
ATOM     30  H   UNL     1       4.534  -0.572  -3.223  0.00  0.00    +0.149 HD
BRANCH  27  31
ATOM     31  C   UNL     1       4.806   0.204  -1.265  0.00  0.00    +0.114 C 
BRANCH  31  35
ATOM     32  C   UNL     1       6.170   3.844  -3.036  0.00  0.00    +0.000 A 
ATOM     33  C   UNL     1       6.654   3.452  -1.802  0.00  0.00    +0.000 A 
ATOM     34  C   UNL     1       6.212   2.275  -1.229  0.00  0.00    +0.005 A 
ATOM     35  C   UNL     1       5.287   1.489  -1.889  0.00  0.00    -0.027 A 
ATOM     36  C   UNL     1       4.802   1.881  -3.123  0.00  0.00    +0.005 A 
ATOM     37  C   UNL     1       5.245   3.058  -3.697  0.00  0.00    +0.000 A 
ENDBRANCH  31  35
BRANCH  31  38
ATOM     38  C   UNL     1       3.441   0.434  -0.613  0.00  0.00    +0.152 C 
BRANCH  38  39
ATOM     39  C   UNL     1       3.594   1.372   0.556  0.00  0.00    +0.358 C 
ATOM     40  O   UNL     1       4.705   1.717   0.919  0.00  0.00    -0.246 OA
ATOM     41  O   UNL     1       2.606   1.787   1.138  0.00  0.00    -0.246 OA
ENDBRANCH  38  39
ENDBRANCH  31  38
ENDBRANCH  27  31
ENDBRANCH   1  28
TORSDOF 7
