REMARK  Name = ZINC09329440
REMARK  3 active torsions:
REMARK  status: ('A' for Active; 'I' for Inactive)
REMARK    1  A    between atoms: C_8  and  C_26
REMARK    2  A    between atoms: C_26  and  C_28
REMARK    3  A    between atoms: C_32  and  N_34
REMARK                            x       y       z     vdW  Elec       q    Type
REMARK                         _______ _______ _______ _____ _____    ______ ____
ROOT
ATOM      1  C   UNL     1       6.671   1.491   2.854  0.00  0.00    +0.000 A 
ATOM      2  C   UNL     1       6.733   2.304   3.971  0.00  0.00    +0.002 A 
ATOM      3  C   UNL     1       6.185   3.569   3.941  0.00  0.00    +0.023 A 
ATOM      4  C   UNL     1       5.571   4.040   2.782  0.00  0.00    +0.038 A 
ATOM      5  C   UNL     1       5.557   3.232   1.651  0.00  0.00    -0.011 A 
ATOM      6  C   UNL     1       6.074   1.958   1.697  0.00  0.00    +0.006 A 
ATOM      7  C   UNL     1       4.872   4.036   0.571  0.00  0.00    +0.085 C 
ATOM      8  C   UNL     1       3.726   3.210  -0.017  0.00  0.00    +0.066 C 
ATOM      9  C   UNL     1       4.147   2.875  -1.455  0.00  0.00    -0.055 C 
ATOM     10  C   UNL     1       4.181   1.354  -1.666  0.00  0.00    -0.016 C 
ATOM     11  C   UNL     1       5.588   1.074  -2.246  0.00  0.00    -0.020 C 
ATOM     12  C   UNL     1       6.432   2.226  -1.638  0.00  0.00    -0.076 C 
ATOM     13  C   UNL     1       5.812   4.344  -0.592  0.00  0.00    +0.060 C 
ATOM     14  C   UNL     1       5.598   5.748  -1.109  0.00  0.00    -0.024 A 
ATOM     15  C   UNL     1       4.530   6.378  -1.708  0.00  0.00    +0.043 A 
ATOM     16  C   UNL     1       4.629   7.709  -2.080  0.00  0.00    +0.124 A 
ATOM     17  C   UNL     1       5.809   8.399  -1.856  0.00  0.00    +0.040 A 
ATOM     18  C   UNL     1       6.886   7.765  -1.271  0.00  0.00    +0.026 A 
ATOM     19  C   UNL     1       6.794   6.424  -0.902  0.00  0.00    +0.036 A 
ATOM     20  N   UNL     1       7.736   5.568  -0.331  0.00  0.00    -0.286 N 
ATOM     21  C   UNL     1       7.251   4.321  -0.160  0.00  0.00    +0.212 C 
ATOM     22  O   UNL     1       7.887   3.381   0.271  0.00  0.00    -0.277 OA
ATOM     23  F   UNL     1       3.580   8.330  -2.660  0.00  0.00    -0.205 F 
ATOM     24  C   UNL     1       4.431   5.294   1.260  0.00  0.00    +0.228 C 
ATOM     25  O   UNL     1       3.810   6.232   0.804  0.00  0.00    -0.275 OA
ATOM     26  N   UNL     1       4.896   5.233   2.527  0.00  0.00    -0.285 N 
ATOM     27  H   UNL     1       8.636   5.834  -0.085  0.00  0.00    +0.155 HD
ATOM     28  H   UNL     1       4.774   5.940   3.179  0.00  0.00    +0.155 HD
ATOM     29  N   UNL     1       5.496   3.376  -1.664  0.00  0.00    +0.395 N 
ATOM     30  H   UNL     1       5.558   3.845  -2.575  0.00  0.00    -0.079 HD
ENDROOT
BRANCH   8  31
ATOM     31  C   UNL     1       2.413   3.937  -0.001  0.00  0.00    +0.166 C 
ATOM     32  O   UNL     1       2.064   4.582  -0.967  0.00  0.00    -0.292 OA
BRANCH  31  33
ATOM     33  C   UNL     1       1.548   3.867   1.188  0.00  0.00    +0.020 A 
ATOM     34  C   UNL     1       1.946   3.125   2.304  0.00  0.00    +0.011 A 
ATOM     35  C   UNL     1       1.130   3.064   3.414  0.00  0.00    +0.003 A 
ATOM     36  C   UNL     1      -0.083   3.731   3.423  0.00  0.00    +0.033 A 
ATOM     37  C   UNL     1      -0.481   4.472   2.325  0.00  0.00    +0.127 A 
ATOM     38  C   UNL     1       0.324   4.542   1.207  0.00  0.00    +0.044 A 
BRANCH  37  39
ATOM     39  N   UNL     1      -1.778   5.186   2.347  0.00  0.00    +0.056 N 
ATOM     40  O   UNL     1      -2.132   5.835   1.379  0.00  0.00    -0.126 OA
ATOM     41  O   UNL     1      -2.490   5.124   3.333  0.00  0.00    -0.126 OA
ENDBRANCH  37  39
ENDBRANCH  31  33
ENDBRANCH   8  31
TORSDOF 3
