REMARK  Name = ZINC61979867
REMARK  6 active torsions:
REMARK  status: ('A' for Active; 'I' for Inactive)
REMARK    1  A    between atoms: C_1  and  N_2
REMARK    2  A    between atoms: N_2  and  C_3
REMARK    3  A    between atoms: N_2  and  C_11
REMARK    4  A    between atoms: C_7  and  C_9
REMARK    5  A    between atoms: C_14  and  C_18
REMARK    6  A    between atoms: C_16  and  N_17
REMARK                            x       y       z     vdW  Elec       q    Type
REMARK                         _______ _______ _______ _____ _____    ______ ____
ROOT
ATOM      1  C   UNL     1       0.000  -0.694  -1.209  0.00  0.00    +0.055 A 
ATOM      2  C   UNL     1       1.203  -1.027  -1.820  0.00  0.00    +0.026 A 
ATOM      3  C   UNL     1       1.206  -1.709  -3.017  0.00  0.00    +0.015 A 
ATOM      4  C   UNL     1      -0.002  -2.070  -3.619  0.00  0.00    +0.038 A 
ATOM      5  C   UNL     1      -1.214  -1.737  -3.006  0.00  0.00    +0.037 A 
ATOM      6  C   UNL     1      -1.212  -1.056  -1.804  0.00  0.00    +0.047 A 
ENDROOT
BRANCH   4   7
ATOM      7  C   UNL     1       0.001  -2.800  -4.901  0.00  0.00    +0.242 C 
ATOM      8  O   UNL     1      -1.051  -3.114  -5.425  0.00  0.00    -0.270 OA
ATOM      9  N   UNL     1       1.169  -3.121  -5.491  0.00  0.00    -0.325 N 
ATOM     10  H   UNL     1       2.008  -2.871  -5.074  0.00  0.00    +0.145 HD
ATOM     11  H   UNL     1       1.171  -3.601  -6.334  0.00  0.00    +0.145 HD
ENDBRANCH   4   7
BRANCH   6  12
ATOM     12  N   UNL     1      -2.423  -0.726  -1.183  0.00  0.00    -0.357 N 
ATOM     13  H   UNL     1      -2.421  -0.246  -0.341  0.00  0.00    +0.142 HD
ATOM     14  H   UNL     1      -3.264  -0.978  -1.597  0.00  0.00    +0.142 HD
ENDBRANCH   6  12
BRANCH   1  16
ATOM     15  C   UNL     1      -0.018   1.461   0.010  0.00  0.00    +0.135 C 
ATOM     16  N   UNL     1       0.002  -0.004   0.002  0.00  0.00    -0.302 N 
BRANCH  16  17
ATOM     17  C   UNL     1       0.023  -0.709   1.208  0.00  0.00    +0.035 A 
ATOM     18  C   UNL     1       0.048  -2.099   1.200  0.00  0.00    +0.023 A 
ATOM     19  C   UNL     1       0.069  -2.801   2.391  0.00  0.00    +0.003 A 
ATOM     20  C   UNL     1       0.066  -2.128   3.595  0.00  0.00    +0.019 A 
ATOM     21  C   UNL     1       0.041  -0.732   3.614  0.00  0.00    +0.054 A 
ATOM     22  C   UNL     1       0.025  -0.022   2.413  0.00  0.00    +0.042 A 
BRANCH  21  23
ATOM     23  C   UNL     1       0.037  -0.030   4.863  0.00  0.00    +0.099 C 
ATOM     24  N   UNL     1       0.034   0.526   5.853  0.00  0.00    -0.191 NA
ENDBRANCH  21  23
ENDBRANCH  16  17
ENDBRANCH   1  16
TORSDOF 5
