REMARK  Name = ZINC38831900
REMARK  7 active torsions:
REMARK  status: ('A' for Active; 'I' for Inactive)
REMARK    1  A    between atoms: C_1  and  S_2
REMARK    2  A    between atoms: S_2  and  N_5
REMARK    3  A    between atoms: C_7  and  C_17
REMARK    4  A    between atoms: N_19  and  C_20
REMARK    5  A    between atoms: C_20  and  C_21
REMARK    6  A    between atoms: C_25  and  C_27
REMARK    7  A    between atoms: C_27  and  N_28
REMARK                            x       y       z     vdW  Elec       q    Type
REMARK                         _______ _______ _______ _____ _____    ______ ____
ROOT
ATOM      1  C   UNL     1      -0.664  -2.063  -4.622  0.00  0.00    +0.256 C 
ATOM      2  O   UNL     1      -0.183  -1.959  -5.731  0.00  0.00    -0.272 OA
ATOM      3  N   UNL     1      -1.968  -2.372  -4.480  0.00  0.00    -0.308 N 
ATOM      4  H   UNL     1      -2.353  -2.456  -3.594  0.00  0.00    +0.149 HD
ENDROOT
BRANCH   1   7
ATOM      5  N   UNL     1       0.600  -0.413  -1.487  0.00  0.00    -0.200 N 
ATOM      6  C   UNL     1      -0.296  -0.609  -2.640  0.00  0.00    +0.185 C 
ATOM      7  C   UNL     1       0.196  -1.847  -3.404  0.00  0.00    +0.277 C 
ATOM      8  O   UNL     1       1.552  -1.634  -3.803  0.00  0.00    -0.476 OA
ATOM      9  C   UNL     1       2.429  -1.201  -2.859  0.00  0.00    +0.144 A 
ATOM     10  C   UNL     1       1.978  -0.580  -1.696  0.00  0.00    +0.094 A 
ATOM     11  C   UNL     1       2.883  -0.134  -0.746  0.00  0.00    +0.048 A 
ATOM     12  C   UNL     1       4.241  -0.303  -0.955  0.00  0.00    +0.043 A 
ATOM     13  C   UNL     1       4.692  -0.916  -2.109  0.00  0.00    +0.024 A 
ATOM     14  C   UNL     1       3.791  -1.373  -3.058  0.00  0.00    +0.049 A 
ATOM     15 CL   UNL     1       5.377   0.255   0.233  0.00  0.00    -0.083 Cl
BRANCH   5  17
ATOM     16  C   UNL     1      -0.022   1.810   0.012  0.00  0.00    +0.218 C 
ATOM     17  S   UNL     1       0.002  -0.004   0.002  0.00  0.00    +0.043 S 
ATOM     18  O   UNL     1       0.969  -0.485   0.926  0.00  0.00    -0.155 OA
ATOM     19  O   UNL     1      -1.325  -0.512   0.012  0.00  0.00    -0.155 OA
ENDBRANCH   5  17
ENDBRANCH   1   7
BRANCH   3  20
ATOM     20  C   UNL     1      -2.805  -2.583  -5.665  0.00  0.00    +0.139 C 
BRANCH  20  21
ATOM     21  C   UNL     1      -4.211  -2.913  -5.235  0.00  0.00    -0.030 A 
ATOM     22  C   UNL     1      -4.577  -4.229  -5.021  0.00  0.00    +0.005 A 
ATOM     23  C   UNL     1      -5.866  -4.532  -4.627  0.00  0.00    +0.001 A 
ATOM     24  C   UNL     1      -6.790  -3.520  -4.445  0.00  0.00    +0.002 A 
ATOM     25  C   UNL     1      -6.424  -2.204  -4.658  0.00  0.00    -0.064 A 
ATOM     26  C   UNL     1      -5.133  -1.901  -5.048  0.00  0.00    +0.007 A 
BRANCH  25  27
ATOM     27  C   UNL     1      -7.431  -1.101  -4.461  0.00  0.00    -0.043 C 
BRANCH  27  28
ATOM     28  N   UNL     1      -7.378  -0.633  -3.069  0.00  0.00    +0.385 N 
ATOM     29  C   UNL     1      -8.433   0.368  -2.847  0.00  0.00    -0.073 C 
ATOM     30  C   UNL     1      -8.564   0.612  -1.343  0.00  0.00    +0.017 C 
ATOM     31  C   UNL     1      -7.207   0.904  -0.753  0.00  0.00    -0.048 A 
ATOM     32  C   UNL     1      -7.139   1.485   0.503  0.00  0.00    +0.004 A 
ATOM     33  C   UNL     1      -5.915   1.764   1.076  0.00  0.00    +0.000 A 
ATOM     34  C   UNL     1      -4.751   1.462   0.393  0.00  0.00    +0.000 A 
ATOM     35  C   UNL     1      -4.818   0.884  -0.859  0.00  0.00    +0.002 A 
ATOM     36  C   UNL     1      -6.048   0.605  -1.436  0.00  0.00    -0.061 A 
ATOM     37  C   UNL     1      -6.074  -0.018  -2.807  0.00  0.00    -0.042 C 
ATOM     38  H   UNL     1      -7.515  -1.414  -2.445  0.00  0.00    -0.081 HD
ENDBRANCH  27  28
ENDBRANCH  25  27
ENDBRANCH  20  21
ENDBRANCH   3  20
TORSDOF 6
