REMARK  Name = ZINC36269590
REMARK  3 active torsions:
REMARK  status: ('A' for Active; 'I' for Inactive)
REMARK    1  A    between atoms: C_6  and  C_7
REMARK    2  A    between atoms: N_9  and  C_10
REMARK    3  A    between atoms: C_11  and  C_19
REMARK                            x       y       z     vdW  Elec       q    Type
REMARK                         _______ _______ _______ _____ _____    ______ ____
ROOT
ATOM      1  C   UNL     1      -2.112  -3.059   0.007  0.00  0.00    +0.090 A 
ATOM      2  C   UNL     1      -2.134  -4.446   0.005  0.00  0.00    +0.083 A 
ATOM      3  C   UNL     1      -3.433  -5.086   0.014  0.00  0.00    -0.022 A 
ATOM      4  C   UNL     1      -4.477  -4.225   0.021  0.00  0.00    -0.021 A 
ATOM      5  S   UNL     1      -3.734  -2.622   0.026  0.00  0.00    -0.079 S 
ATOM      6  C   UNL     1      -5.927  -4.595   0.025  0.00  0.00    -0.039 C 
ATOM      7  N   UNL     1      -6.044  -6.013  -0.362  0.00  0.00    +0.382 N 
ATOM      8  C   UNL     1      -5.131  -6.824   0.454  0.00  0.00    -0.077 C 
ATOM      9  C   UNL     1      -3.681  -6.588   0.018  0.00  0.00    +0.018 C 
ATOM     10  H   UNL     1      -6.992  -6.324  -0.214  0.00  0.00    -0.085 HD
ATOM     11  H   UNL     1      -5.804  -6.116  -1.337  0.00  0.00    -0.085 HD
ENDROOT
BRANCH   1  14
ATOM     12  C   UNL     1      -1.169  -0.886   0.009  0.00  0.00    +0.265 C 
ATOM     13  O   UNL     1      -2.289  -0.411   0.023  0.00  0.00    -0.268 OA
ATOM     14  N   UNL     1      -1.004  -2.224   0.000  0.00  0.00    -0.274 N 
ATOM     15  H   UNL     1      -0.111  -2.603  -0.011  0.00  0.00    +0.156 HD
BRANCH  12  21
ATOM     16  C   UNL     1      -0.017   1.375   0.010  0.00  0.00    +0.047 A 
ATOM     17  C   UNL     1       1.315   1.804  -0.001  0.00  0.00    +0.036 A 
ATOM     18  C   UNL     1       2.106   0.704  -0.014  0.00  0.00    +0.098 A 
ATOM     19  N   UNL     1       1.320  -0.401  -0.013  0.00  0.00    -0.356 N 
ATOM     20  H   UNL     1       1.634  -1.319  -0.021  0.00  0.00    +0.165 HD
ATOM     21  C   UNL     1       0.002  -0.004   0.002  0.00  0.00    +0.103 A 
ATOM     22 BR   UNL     1       1.905   3.601   0.003  0.00  0.00    -0.049 Br
ENDBRANCH  12  21
ENDBRANCH   1  14
BRANCH   2  23
ATOM     23  C   UNL     1      -0.924  -5.212  -0.004  0.00  0.00    +0.102 C 
ATOM     24  N   UNL     1       0.036  -5.819  -0.012  0.00  0.00    -0.191 NA
ENDBRANCH   2  23
TORSDOF 3
