REMARK  Name = ZINC39210866
REMARK  12 active torsions:
REMARK  status: ('A' for Active; 'I' for Inactive)
REMARK    1  A    between atoms: C_1  and  C_2
REMARK    2  A    between atoms: C_5  and  S_8
REMARK    3  A    between atoms: S_8  and  N_11
REMARK    4  A    between atoms: N_11  and  C_12
REMARK    5  A    between atoms: C_12  and  C_14
REMARK    6  A    between atoms: C_12  and  C_17
REMARK    7  A    between atoms: C_14  and  C_15
REMARK    8  A    between atoms: C_14  and  C_16
REMARK    9  A    between atoms: C_17  and  O_19
REMARK   10  A    between atoms: O_19  and  C_20
REMARK   11  A    between atoms: C_20  and  C_21
REMARK   12  A    between atoms: C_26  and  C_31
REMARK                            x       y       z     vdW  Elec       q    Type
REMARK                         _______ _______ _______ _____ _____    ______ ____
ROOT
ATOM      1  C   UNL     1       3.652  -5.689   0.898  0.00  0.00    +0.327 C 
ATOM      2  O   UNL     1       3.618  -6.581   0.084  0.00  0.00    -0.249 OA
ENDROOT
BRANCH   1   3
ATOM      3  C   UNL     1       2.559  -4.651   0.924  0.00  0.00    +0.187 C 
BRANCH   3   4
ATOM      4  C   UNL     1       3.165  -3.266   0.686  0.00  0.00    +0.012 C 
ATOM      5  C   UNL     1       2.043  -2.232   0.568  0.00  0.00    +0.009 C 
ATOM      6  C   UNL     1       4.075  -2.899   1.859  0.00  0.00    +0.009 C 
ENDBRANCH   3   4
BRANCH   3   7
ATOM      7  N   UNL     1       1.583  -4.944  -0.128  0.00  0.00    -0.176 NA
ATOM      8  H   UNL     1       1.740  -4.638  -1.035  0.00  0.00    +0.149 HD
BRANCH   7   9
ATOM      9  S   UNL     1       0.210  -5.798   0.232  0.00  0.00    +0.059 S 
ATOM     10  O   UNL     1       0.624  -6.944   0.964  0.00  0.00    -0.153 OA
ATOM     11  O   UNL     1      -0.537  -5.893  -0.974  0.00  0.00    -0.153 OA
BRANCH   9  16
ATOM     12  C   UNL     1      -3.055  -2.421   4.019  0.00  0.00    +0.044 C 
ATOM     13  C   UNL     1      -2.240  -3.265   3.073  0.00  0.00    -0.050 A 
ATOM     14  C   UNL     1      -2.345  -3.071   1.708  0.00  0.00    +0.005 A 
ATOM     15  C   UNL     1      -1.596  -3.844   0.841  0.00  0.00    +0.029 A 
ATOM     16  C   UNL     1      -0.743  -4.811   1.338  0.00  0.00    +0.105 A 
ATOM     17  C   UNL     1      -0.637  -5.005   2.702  0.00  0.00    +0.029 A 
ATOM     18  C   UNL     1      -1.382  -4.228   3.570  0.00  0.00    +0.005 A 
ENDBRANCH   9  16
ENDBRANCH   7   9
ENDBRANCH   3   7
ENDBRANCH   1   3
BRANCH   1  19
ATOM     19  O   UNL     1       4.663  -5.621   1.778  0.00  0.00    -0.454 OA
BRANCH  19  20
ATOM     20  C   UNL     1       5.664  -6.637   1.696  0.00  0.00    +0.328 C 
BRANCH  20  21
ATOM     21  C   UNL     1       6.710  -6.399   2.755  0.00  0.00    +0.256 C 
ATOM     22  O   UNL     1       6.607  -5.453   3.506  0.00  0.00    -0.272 OA
ATOM     23  N   UNL     1       7.758  -7.239   2.867  0.00  0.00    -0.266 N 
ATOM     24  C   UNL     1       8.726  -7.019   3.848  0.00  0.00    +0.144 A 
ATOM     25  C   UNL     1       9.809  -7.886   3.954  0.00  0.00    +0.085 A 
ATOM     26  C   UNL     1      10.762  -7.655   4.931  0.00  0.00    -0.009 A 
ATOM     27  C   UNL     1      10.599  -6.561   5.771  0.00  0.00    +0.063 A 
ATOM     28  C   UNL     1       9.498  -5.742   5.607  0.00  0.00    +0.133 A 
ATOM     29  N   UNL     1       8.608  -5.984   4.664  0.00  0.00    -0.237 NA
ATOM     30 CL   UNL     1      11.765  -6.226   7.013  0.00  0.00    -0.082 Cl
ATOM     31  C   UNL     1      11.950  -8.571   5.080  0.00  0.00    +0.047 C 
ATOM     32 CL   UNL     1       9.962  -9.239   2.877  0.00  0.00    -0.080 Cl
ATOM     33  H   UNL     1       7.840  -7.996   2.267  0.00  0.00    +0.156 HD
ENDBRANCH  20  21
ENDBRANCH  19  20
ENDBRANCH   1  19
TORSDOF 8
