REMARK  Name = ZINC23565100
REMARK  7 active torsions:
REMARK  status: ('A' for Active; 'I' for Inactive)
REMARK    1  A    between atoms: C_1  and  C_2
REMARK    2  A    between atoms: C_2  and  N_3
REMARK    3  A    between atoms: C_13  and  S_14
REMARK    4  A    between atoms: S_14  and  C_15
REMARK    5  A    between atoms: C_15  and  C_16
REMARK    6  A    between atoms: N_22  and  C_23
REMARK    7  A    between atoms: C_28  and  C_29
REMARK                            x       y       z     vdW  Elec       q    Type
REMARK                         _______ _______ _______ _____ _____    ______ ____
ROOT
ATOM      1  C   UNL     1      -3.952  -2.627   1.669  0.00  0.00    +0.146 A 
ATOM      2  N   UNL     1      -4.952  -2.676   0.806  0.00  0.00    -0.199 NA
ATOM      3  C   UNL     1      -5.400  -3.852   0.371  0.00  0.00    +0.217 A 
ATOM      4  N   UNL     1      -4.849  -4.976   0.814  0.00  0.00    -0.181 NA
ATOM      5  C   UNL     1      -3.848  -4.923   1.686  0.00  0.00    +0.224 A 
ATOM      6  N   UNL     1      -3.401  -3.744   2.112  0.00  0.00    -0.198 NA
ATOM      7  N   UNL     1      -3.271  -6.090   2.149  0.00  0.00    -0.283 N 
ATOM      8  N   UNL     1      -6.440  -3.902  -0.534  0.00  0.00    -0.327 N 
ATOM      9  H   UNL     1      -2.381  -6.045   2.794  0.00  0.00    +0.155 HD
ATOM     10  H   UNL     1      -6.811  -4.874  -0.893  0.00  0.00    +0.145 HD
ATOM     11  H   UNL     1      -6.899  -2.970  -0.897  0.00  0.00    +0.145 HD
ENDROOT
BRANCH   7  12
ATOM     12  C   UNL     1      -3.818  -7.327   1.798  0.00  0.00    +0.036 A 
ATOM     13  C   UNL     1      -5.160  -7.422   1.451  0.00  0.00    +0.023 A 
ATOM     14  C   UNL     1      -5.696  -8.645   1.099  0.00  0.00    +0.002 A 
ATOM     15  C   UNL     1      -4.901  -9.777   1.103  0.00  0.00    +0.000 A 
ATOM     16  C   UNL     1      -3.567  -9.687   1.453  0.00  0.00    +0.005 A 
ATOM     17  C   UNL     1      -3.023  -8.466   1.801  0.00  0.00    -0.029 A 
ATOM     18  C   UNL     1      -1.568  -8.369   2.183  0.00  0.00    +0.045 C 
ENDBRANCH   7  12
BRANCH   1  19
ATOM     19  C   UNL     1      -3.443  -1.294   2.155  0.00  0.00    +0.153 C 
BRANCH  19  20
ATOM     20  S   UNL     1      -2.120  -0.719   1.061  0.00  0.00    -0.080 S 
BRANCH  20  31
ATOM     21  N   UNL     1      -0.734   1.580   1.297  0.00  0.00    -0.288 N 
ATOM     22  C   UNL     1      -0.391   2.760   1.864  0.00  0.00    +0.262 A 
ATOM     23  O   UNL     1       0.492   3.453   1.394  0.00  0.00    -0.267 OA
ATOM     24  C   UNL     1      -1.129   3.176   3.064  0.00  0.00    +0.066 A 
ATOM     25  C   UNL     1      -0.853   4.377   3.718  0.00  0.00    +0.030 A 
ATOM     26  C   UNL     1      -1.573   4.715   4.844  0.00  0.00    +0.019 A 
ATOM     27  C   UNL     1      -2.565   3.871   5.329  0.00  0.00    +0.017 A 
ATOM     28  C   UNL     1      -2.851   2.691   4.703  0.00  0.00    +0.029 A 
ATOM     29  C   UNL     1      -2.138   2.320   3.559  0.00  0.00    +0.079 A 
ATOM     30  N   UNL     1      -2.392   1.158   2.912  0.00  0.00    -0.223 NA
ATOM     31  C   UNL     1      -1.723   0.811   1.839  0.00  0.00    +0.173 A 
ATOM     32 BR   UNL     1      -1.207   6.341   5.737  0.00  0.00    -0.050 Br
BRANCH  21  34
ATOM     33  C   UNL     1      -0.762   1.632  -1.148  0.00  0.00    +0.027 C 
ATOM     34  C   UNL     1      -0.032   1.120   0.096  0.00  0.00    +0.124 C 
ENDBRANCH  21  34
ENDBRANCH  20  31
ENDBRANCH  19  20
ENDBRANCH   1  19
TORSDOF 5
