REMARK  Name = ZINC12540128
REMARK  14 active torsions:
REMARK  status: ('A' for Active; 'I' for Inactive)
REMARK    1  A    between atoms: C_1  and  O_2
REMARK    2  A    between atoms: O_2  and  C_3
REMARK    3  A    between atoms: C_7  and  C_11
REMARK    4  A    between atoms: C_8  and  O_9
REMARK    5  A    between atoms: O_9  and  C_10
REMARK    6  A    between atoms: C_11  and  C_13
REMARK    7  A    between atoms: C_11  and  C_31
REMARK    8  A    between atoms: C_13  and  N_72
REMARK    9  A    between atoms: C_14  and  C_15
REMARK   10  A    between atoms: C_14  and  N_72
REMARK   11  A    between atoms: C_15  and  C_17
REMARK   12  A    between atoms: C_15  and  O_30
REMARK   13  A    between atoms: C_17  and  O_18
REMARK   14  A    between atoms: O_18  and  C_19
REMARK                            x       y       z     vdW  Elec       q    Type
REMARK                         _______ _______ _______ _____ _____    ______ ____
ROOT
ATOM      1  C   UNL     1      -1.305  -2.079   0.230  0.00  0.00    +0.038 C 
ENDROOT
BRANCH   1   2
ATOM      2  C   UNL     1      -0.609  -2.559   1.477  0.00  0.00    -0.017 A 
ATOM      3  C   UNL     1      -0.992  -2.333   2.744  0.00  0.00    +0.087 A 
ATOM      4  N   UNL     1      -0.115  -2.926   3.610  0.00  0.00    -0.360 N 
ATOM      5  H   UNL     1      -0.185  -2.903   4.577  0.00  0.00    +0.165 HD
ATOM      6  C   UNL     1       0.884  -3.558   2.905  0.00  0.00    +0.047 A 
ATOM      7  C   UNL     1       0.619  -3.356   1.538  0.00  0.00    +0.003 A 
ATOM      8  C   UNL     1       1.476  -3.892   0.575  0.00  0.00    +0.010 A 
ATOM      9  C   UNL     1       2.571  -4.611   0.966  0.00  0.00    +0.001 A 
ATOM     10  C   UNL     1       2.837  -4.812   2.313  0.00  0.00    +0.002 A 
ATOM     11  C   UNL     1       2.004  -4.293   3.280  0.00  0.00    +0.026 A 
ENDBRANCH   1   2
BRANCH   1  16
ATOM     12  C   UNL     1      -4.390  -3.961  -0.899  0.00  0.00    +0.162 A 
ATOM     13  C   UNL     1      -5.278  -3.662   0.121  0.00  0.00    +0.049 A 
ATOM     14  C   UNL     1      -4.880  -2.855   1.170  0.00  0.00    +0.004 A 
ATOM     15  C   UNL     1      -3.596  -2.344   1.204  0.00  0.00    +0.008 A 
ATOM     16  C   UNL     1      -2.704  -2.638   0.190  0.00  0.00    +0.004 A 
ATOM     17  C   UNL     1      -3.099  -3.442  -0.868  0.00  0.00    +0.165 A 
BRANCH  12  19
ATOM     18  C   UNL     1      -6.121  -5.247  -1.901  0.00  0.00    +0.277 C 
ATOM     19  O   UNL     1      -4.780  -4.755  -1.932  0.00  0.00    -0.491 OA
ENDBRANCH  12  19
BRANCH  17  20
ATOM     20  O   UNL     1      -2.225  -3.728  -1.869  0.00  0.00    -0.491 OA
ATOM     21  C   UNL     1      -1.415  -4.895  -1.710  0.00  0.00    +0.277 C 
ENDBRANCH  17  20
ENDBRANCH   1  16
BRANCH   1  22
ATOM     22  C   UNL     1      -1.367  -0.550   0.237  0.00  0.00    -0.069 C 
BRANCH  22  23
ATOM     23  N   UNL     1       0.004  -0.011   0.155  0.00  0.00    +0.381 N 
ATOM     24  H   UNL     1       0.445  -0.339  -0.712  0.00  0.00    -0.086 HD
ATOM     25  H   UNL     1       0.546  -0.342   0.961  0.00  0.00    -0.086 HD
BRANCH  23  26
ATOM     26  C   UNL     1      -0.025   1.464   0.159  0.00  0.00    -0.049 C 
BRANCH  26  27
ATOM     27  C   UNL     1       1.408   1.993   0.074  0.00  0.00    +0.123 C 
BRANCH  27  28
ATOM     28  O   UNL     1       1.977   1.626  -1.185  0.00  0.00    -0.391 OA
ATOM     29  H   UNL     1       1.498   1.974  -1.949  0.00  0.00    +0.210 HD
ENDBRANCH  27  28
BRANCH  27  30
ATOM     30  C   UNL     1       1.396   3.518   0.203  0.00  0.00    +0.190 C 
BRANCH  30  31
ATOM     31  O   UNL     1       2.740   4.003   0.240  0.00  0.00    -0.369 OA
BRANCH  31  32
ATOM     32  C   UNL     1       2.843   5.428   0.257  0.00  0.00    +0.149 C 
ATOM     33  C   UNL     1       2.866   5.948  -1.179  0.00  0.00    +0.037 C 
ATOM     34  C   UNL     1       3.193   7.446  -1.145  0.00  0.00    +0.007 C 
ATOM     35  C   UNL     1       4.651   7.611  -0.722  0.00  0.00    +0.035 C 
ATOM     36  C   UNL     1       4.929   6.831   0.537  0.00  0.00    -0.042 A 
ATOM     37  C   UNL     1       4.101   5.826   0.984  0.00  0.00    -0.016 A 
ATOM     38  C   UNL     1       4.418   5.141   2.150  0.00  0.00    +0.006 A 
ATOM     39  C   UNL     1       5.555   5.461   2.864  0.00  0.00    +0.000 A 
ATOM     40  C   UNL     1       6.384   6.473   2.417  0.00  0.00    +0.000 A 
ATOM     41  C   UNL     1       6.071   7.154   1.259  0.00  0.00    +0.004 A 
ENDBRANCH  31  32
ENDBRANCH  30  31
ENDBRANCH  27  30
ENDBRANCH  26  27
ENDBRANCH  23  26
ENDBRANCH  22  23
ENDBRANCH   1  22
TORSDOF 12
