REMARK  Name = ZINC09303549
REMARK  5 active torsions:
REMARK  status: ('A' for Active; 'I' for Inactive)
REMARK    1  A    between atoms: C_3  and  C_16
REMARK    2  A    between atoms: C_5  and  S_7
REMARK    3  A    between atoms: S_7  and  N_10
REMARK    4  A    between atoms: N_20  and  N_21
REMARK    5  A    between atoms: C_22  and  C_23
REMARK                            x       y       z     vdW  Elec       q    Type
REMARK                         _______ _______ _______ _____ _____    ______ ____
ROOT
ATOM      1  C   UNL     1       3.657   2.161  -0.022  0.00  0.00    +0.055 A 
ATOM      2  C   UNL     1       4.836   1.502  -0.042  0.00  0.00    +0.075 A 
ATOM      3  S   UNL     1       6.013   2.845  -0.044  0.00  0.00    -0.056 S 
ATOM      4  C   UNL     1       4.846   4.197  -0.018  0.00  0.00    +0.192 A 
ATOM      5  N   UNL     1       5.076   5.501  -0.008  0.00  0.00    -0.124 NA
ATOM      6  N   UNL     1       3.647   3.527  -0.015  0.00  0.00    -0.332 N 
ATOM      7  H   UNL     1       2.808   4.015  -0.004  0.00  0.00    +0.168 HD
ENDROOT
BRANCH   1  10
ATOM      8  C   UNL     1      -0.017   1.379   0.010  0.00  0.00    +0.003 A 
ATOM      9  C   UNL     1       1.167   2.088   0.002  0.00  0.00    +0.010 A 
ATOM     10  C   UNL     1       2.385   1.407  -0.013  0.00  0.00    +0.001 A 
ATOM     11  C   UNL     1       2.397   0.011  -0.021  0.00  0.00    +0.038 A 
ATOM     12  C   UNL     1       1.206  -0.686  -0.013  0.00  0.00    +0.106 A 
ATOM     13  C   UNL     1       0.002  -0.004   0.002  0.00  0.00    +0.028 A 
BRANCH  12  14
ATOM     14  S   UNL     1       1.219  -2.448  -0.023  0.00  0.00    +0.061 S 
ATOM     15  O   UNL     1      -0.029  -2.860  -0.564  0.00  0.00    -0.153 OA
ATOM     16  O   UNL     1       2.462  -2.842  -0.588  0.00  0.00    -0.153 OA
BRANCH  14  17
ATOM     17  N   UNL     1       1.238  -2.946   1.556  0.00  0.00    -0.172 NA
ATOM     18  C   UNL     1       2.508  -3.159   2.269  0.00  0.00    +0.137 C 
ATOM     19  C   UNL     1       2.448  -2.401   3.600  0.00  0.00    +0.177 C 
ATOM     20  O   UNL     1       1.258  -2.772   4.300  0.00  0.00    -0.377 OA
ATOM     21  C   UNL     1       0.048  -2.429   3.619  0.00  0.00    +0.177 C 
ATOM     22  C   UNL     1      -0.015  -3.183   2.291  0.00  0.00    +0.137 C 
ENDBRANCH  14  17
ENDBRANCH  12  14
ENDBRANCH   1  10
BRANCH   5  23
ATOM     23  N   UNL     1       4.088   6.330   0.011  0.00  0.00    -0.155 NA
ATOM     24  C   UNL     1       4.316   7.617   0.020  0.00  0.00    +0.144 C 
BRANCH  24  25
ATOM     25  C   UNL     1       3.189   8.563   0.042  0.00  0.00    +0.013 A 
ATOM     26  C   UNL     1       3.428   9.941   0.046  0.00  0.00    +0.012 A 
ATOM     27  C   UNL     1       2.368  10.822   0.066  0.00  0.00    +0.021 A 
ATOM     28  C   UNL     1       1.067  10.345   0.083  0.00  0.00    +0.042 A 
ATOM     29  C   UNL     1       0.821   8.982   0.079  0.00  0.00    +0.040 A 
ATOM     30  C   UNL     1       1.872   8.088   0.053  0.00  0.00    +0.051 A 
ATOM     31 CL   UNL     1       1.563   6.380   0.042  0.00  0.00    -0.083 Cl
ATOM     32 CL   UNL     1      -0.262  11.461   0.109  0.00  0.00    -0.083 Cl
ENDBRANCH  24  25
ENDBRANCH   5  23
TORSDOF 5
