REMARK  Name = ZINC13063924
REMARK  12 active torsions:
REMARK  status: ('A' for Active; 'I' for Inactive)
REMARK    1  A    between atoms: C_1  and  C_2
REMARK    2  A    between atoms: C_2  and  C_3
REMARK    3  A    between atoms: C_3  and  C_5
REMARK    4  A    between atoms: C_3  and  N_69
REMARK    5  A    between atoms: N_9  and  C_10
REMARK    6  A    between atoms: C_10  and  C_11
REMARK    7  A    between atoms: C_18  and  C_19
REMARK    8  A    between atoms: C_18  and  N_69
REMARK    9  A    between atoms: C_22  and  C_25
REMARK   10  A    between atoms: C_26  and  C_27
REMARK   11  A    between atoms: C_26  and  N_69
REMARK   12  A    between atoms: C_32  and  C_39
REMARK                            x       y       z     vdW  Elec       q    Type
REMARK                         _______ _______ _______ _____ _____    ______ ____
ROOT
ATOM      1  N   UNL     1       0.002   1.738   0.563  0.00  0.00    +0.392 N 
ATOM      2  H   UNL     1      -0.629   2.165   1.252  0.00  0.00    -0.080 HD
ENDROOT
BRANCH   1   3
ATOM      3  C   UNL     1       0.135   0.297   0.864  0.00  0.00    +0.003 C 
BRANCH   3   4
ATOM      4  C   UNL     1       1.191   0.103   1.922  0.00  0.00    +0.138 A 
ATOM      5  N   UNL     1       1.348   0.816   3.011  0.00  0.00    -0.115 NA
ATOM      6  N   UNL     1       2.355   0.338   3.657  0.00  0.00    -0.023 NA
ATOM      7  N   UNL     1       2.849  -0.656   3.005  0.00  0.00    -0.044 NA
ATOM      8  N   UNL     1       2.159  -0.832   1.929  0.00  0.00    -0.226 N 
BRANCH   8   9
ATOM      9  C   UNL     1       2.387  -1.857   0.908  0.00  0.00    +0.182 C 
BRANCH   9  10
ATOM     10  C   UNL     1       3.327  -1.321  -0.141  0.00  0.00    -0.026 A 
ATOM     11  C   UNL     1       2.824  -0.665  -1.249  0.00  0.00    +0.008 A 
ATOM     12  C   UNL     1       3.686  -0.169  -2.209  0.00  0.00    +0.038 A 
ATOM     13  C   UNL     1       5.053  -0.339  -2.065  0.00  0.00    +0.123 A 
ATOM     14  C   UNL     1       5.555  -1.000  -0.958  0.00  0.00    +0.038 A 
ATOM     15  C   UNL     1       4.691  -1.491   0.004  0.00  0.00    +0.008 A 
ATOM     16  F   UNL     1       5.896   0.142  -3.005  0.00  0.00    -0.205 F 
ENDBRANCH   9  10
ENDBRANCH   8   9
ENDBRANCH   3   4
BRANCH   3  18
ATOM     17  C   UNL     1      -1.120  -1.731   1.609  0.00  0.00    +0.002 C 
ATOM     18  C   UNL     1      -1.208  -0.221   1.383  0.00  0.00    -0.011 C 
ENDBRANCH   3  18
ENDBRANCH   1   3
BRANCH   1  19
ATOM     19  C   UNL     1       1.322   2.396   0.649  0.00  0.00    -0.042 C 
BRANCH  19  20
ATOM     20  C   UNL     1       1.120   3.889   0.650  0.00  0.00    -0.064 A 
ATOM     21  C   UNL     1       1.147   4.591  -0.541  0.00  0.00    +0.002 A 
ATOM     22  C   UNL     1       0.957   5.960  -0.540  0.00  0.00    +0.003 A 
ATOM     23  C   UNL     1       0.750   6.629   0.651  0.00  0.00    -0.050 A 
ATOM     24  C   UNL     1       0.728   5.928   1.843  0.00  0.00    +0.003 A 
ATOM     25  C   UNL     1       0.913   4.558   1.842  0.00  0.00    +0.002 A 
ATOM     26  C   UNL     1       0.547   8.123   0.652  0.00  0.00    +0.044 C 
ENDBRANCH  19  20
ENDBRANCH   1  19
BRANCH   1  27
ATOM     27  C   UNL     1      -0.568   1.921  -0.788  0.00  0.00    -0.036 C 
BRANCH  27  28
ATOM     28  C   UNL     1      -2.010   1.485  -0.771  0.00  0.00    +0.001 A 
ATOM     29  C   UNL     1      -2.960   2.313  -0.272  0.00  0.00    +0.017 A 
ATOM     30  C   UNL     1      -4.352   1.860  -0.270  0.00  0.00    -0.001 A 
ATOM     31  C   UNL     1      -5.376   2.671   0.232  0.00  0.00    +0.010 A 
ATOM     32  C   UNL     1      -6.665   2.218   0.219  0.00  0.00    +0.004 A 
ATOM     33  C   UNL     1      -6.968   0.961  -0.286  0.00  0.00    -0.048 A 
ATOM     34  C   UNL     1      -5.976   0.146  -0.785  0.00  0.00    +0.029 A 
ATOM     35  C   UNL     1      -4.655   0.585  -0.783  0.00  0.00    +0.049 A 
ATOM     36  N   UNL     1      -3.643  -0.209  -1.276  0.00  0.00    -0.322 N 
ATOM     37  H   UNL     1      -3.853  -1.088  -1.630  0.00  0.00    +0.169 HD
ATOM     38  C   UNL     1      -2.368   0.218  -1.280  0.00  0.00    +0.251 A 
ATOM     39  O   UNL     1      -1.498  -0.509  -1.728  0.00  0.00    -0.268 OA
ATOM     40  C   UNL     1      -8.397   0.483  -0.289  0.00  0.00    +0.044 C 
ENDBRANCH  27  28
ENDBRANCH   1  27
TORSDOF 9
