REMARK  Name = ZINC56907413
REMARK  9 active torsions:
REMARK  status: ('A' for Active; 'I' for Inactive)
REMARK    1  A    between atoms: C_1  and  C_2
REMARK    2  A    between atoms: C_2  and  C_3
REMARK    3  A    between atoms: C_3  and  C_4
REMARK    4  A    between atoms: C_5  and  C_9
REMARK    5  A    between atoms: N_16  and  C_23
REMARK    6  A    between atoms: C_17  and  N_18
REMARK    7  A    between atoms: C_23  and  C_24
REMARK    8  A    between atoms: C_23  and  C_25
REMARK    9  A    between atoms: C_23  and  C_26
REMARK                            x       y       z     vdW  Elec       q    Type
REMARK                         _______ _______ _______ _____ _____    ______ ____
ROOT
ATOM      1  C   UNL     1      -0.049  -4.524   3.200  0.00  0.00    +0.257 C 
ATOM      2  O   UNL     1       0.493  -3.703   3.915  0.00  0.00    -0.269 OA
ATOM      3  N   UNL     1      -1.299  -4.942   3.481  0.00  0.00    -0.287 N 
ATOM      4  C   UNL     1      -2.133  -4.499   4.602  0.00  0.00    +0.149 C 
ATOM      5  C   UNL     1      -3.447  -5.233   4.515  0.00  0.00    +0.037 A 
ATOM      6  C   UNL     1      -3.415  -6.076   3.403  0.00  0.00    +0.087 A 
ATOM      7  N   UNL     1      -4.561  -6.710   3.335  0.00  0.00    -0.172 NA
ATOM      8  N   UNL     1      -5.361  -6.290   4.405  0.00  0.00    -0.242 N 
ATOM      9  C   UNL     1      -4.658  -5.381   5.118  0.00  0.00    +0.141 A 
ATOM     10  C   UNL     1      -2.081  -5.919   2.718  0.00  0.00    +0.166 C 
ENDROOT
BRANCH   1  12
ATOM     11  C   UNL     1       1.936  -4.780   1.550  0.00  0.00    +0.084 A 
ATOM     12  C   UNL     1       0.661  -5.060   2.028  0.00  0.00    +0.117 A 
ATOM     13  S   UNL     1       0.129  -6.256   0.814  0.00  0.00    +0.041 S 
ATOM     14  N   UNL     1       1.470  -6.275  -0.098  0.00  0.00    -0.110 NA
ATOM     15  N   UNL     1       2.264  -5.436   0.465  0.00  0.00    -0.145 NA
BRANCH  11  16
ATOM     16  C   UNL     1       2.861  -3.798   2.222  0.00  0.00    +0.058 C 
BRANCH  16  18
ATOM     17  C   UNL     1       3.571  -1.405   2.324  0.00  0.00    +0.004 C 
ATOM     18  C   UNL     1       2.632  -2.401   1.642  0.00  0.00    +0.003 C 
ENDBRANCH  16  18
ENDBRANCH  11  16
ENDBRANCH   1  12
BRANCH   9  19
ATOM     19  N   UNL     1      -5.096  -4.716   6.267  0.00  0.00    -0.308 N 
ATOM     20  C   UNL     1      -5.069  -5.218   7.537  0.00  0.00    +0.092 A 
ATOM     21  C   UNL     1      -5.572  -4.285   8.370  0.00  0.00    +0.019 A 
ATOM     22  C   UNL     1      -5.923  -3.166   7.589  0.00  0.00    +0.019 A 
ATOM     23  C   UNL     1      -5.616  -3.454   6.308  0.00  0.00    +0.092 A 
ENDBRANCH   9  19
BRANCH   8  24
ATOM     24  C   UNL     1      -6.720  -6.752   4.698  0.00  0.00    +0.057 C 
ATOM     25  C   UNL     1      -6.734  -7.473   6.047  0.00  0.00    +0.036 C 
ATOM     26  C   UNL     1      -7.667  -5.551   4.752  0.00  0.00    +0.036 C 
ATOM     27  C   UNL     1      -7.179  -7.714   3.600  0.00  0.00    +0.036 C 
ENDBRANCH   8  24
TORSDOF 5
