REMARK  Name = ZINC55238106
REMARK  10 active torsions:
REMARK  status: ('A' for Active; 'I' for Inactive)
REMARK    1  A    between atoms: C_1  and  C_2
REMARK    2  A    between atoms: C_2  and  C_3
REMARK    3  A    between atoms: C_6  and  S_8
REMARK    4  A    between atoms: S_8  and  N_11
REMARK    5  A    between atoms: N_14  and  C_17
REMARK    6  A    between atoms: C_17  and  C_18
REMARK    7  A    between atoms: N_20  and  C_21
REMARK    8  A    between atoms: C_21  and  C_23
REMARK    9  A    between atoms: C_21  and  C_24
REMARK   10  A    between atoms: C_24  and  C_25
REMARK                            x       y       z     vdW  Elec       q    Type
REMARK                         _______ _______ _______ _____ _____    ______ ____
ROOT
ATOM      1  N   UNL     1       3.866  -3.554   3.992  0.00  0.00    -0.174 NA
ATOM      2  C   UNL     1       3.106  -4.469   4.857  0.00  0.00    +0.125 C 
ATOM      3  C   UNL     1       4.075  -5.500   5.446  0.00  0.00    +0.102 C 
ATOM      4  N   UNL     1       4.816  -6.148   4.357  0.00  0.00    -0.291 NA
ATOM      5  C   UNL     1       5.646  -5.180   3.626  0.00  0.00    +0.102 C 
ATOM      6  C   UNL     1       4.736  -4.136   2.958  0.00  0.00    +0.125 C 
ENDROOT
BRANCH   1   7
ATOM      7  S   UNL     1       3.741  -1.913   4.171  0.00  0.00    +0.067 S 
ATOM      8  O   UNL     1       4.931  -1.353   3.634  0.00  0.00    -0.152 OA
ATOM      9  O   UNL     1       3.327  -1.681   5.511  0.00  0.00    -0.152 OA
BRANCH   7  13
ATOM     10  C   UNL     1       0.731  -0.503   1.223  0.00  0.00    -0.009 A 
ATOM     11  C   UNL     1       0.236  -0.806   2.448  0.00  0.00    +0.013 A 
ATOM     12  C   UNL     1       1.102  -1.254   3.429  0.00  0.00    +0.036 A 
ATOM     13  C   UNL     1       2.420  -1.375   3.136  0.00  0.00    +0.143 A 
ATOM     14  S   UNL     1       2.469  -0.856   1.429  0.00  0.00    -0.074 S 
BRANCH  10  16
ATOM     15  C   UNL     1      -0.019   1.526   0.010  0.00  0.00    +0.009 C 
ATOM     16  C   UNL     1       0.002  -0.004   0.002  0.00  0.00    +0.039 C 
ENDBRANCH  10  16
ENDBRANCH   7  13
ENDBRANCH   1   7
BRANCH   4  17
ATOM     17  C   UNL     1       5.630  -7.261   4.864  0.00  0.00    +0.180 C 
BRANCH  17  18
ATOM     18  C   UNL     1       6.179  -8.052   3.704  0.00  0.00    +0.227 C 
ATOM     19  O   UNL     1       5.918  -7.720   2.567  0.00  0.00    -0.274 OA
ATOM     20  N   UNL     1       6.959  -9.127   3.930  0.00  0.00    -0.312 N 
ATOM     21  H   UNL     1       7.168  -9.392   4.839  0.00  0.00    +0.149 HD
BRANCH  20  22
ATOM     22  C   UNL     1       7.492  -9.895   2.802  0.00  0.00    +0.070 C 
ATOM     23  C   UNL     1       6.456 -10.926   2.352  0.00  0.00    +0.028 C 
BRANCH  22  24
ATOM     24  C   UNL     1       8.772 -10.614   3.234  0.00  0.00    +0.018 C 
ATOM     25  C   UNL     1       9.850  -9.581   3.566  0.00  0.00    +0.005 C 
ENDBRANCH  22  24
ENDBRANCH  20  22
ENDBRANCH  17  18
ENDBRANCH   4  17
TORSDOF 7
