REMARK  Name = ZINC18224251
REMARK  8 active torsions:
REMARK  status: ('A' for Active; 'I' for Inactive)
REMARK    1  A    between atoms: C_1  and  C_2
REMARK    2  A    between atoms: C_2  and  O_3
REMARK    3  A    between atoms: O_3  and  C_4
REMARK    4  A    between atoms: C_4  and  C_6
REMARK    5  A    between atoms: C_7  and  C_19
REMARK    6  A    between atoms: C_12  and  C_14
REMARK    7  A    between atoms: C_19  and  O_20
REMARK    8  A    between atoms: O_20  and  C_21
REMARK                            x       y       z     vdW  Elec       q    Type
REMARK                         _______ _______ _______ _____ _____    ______ ____
ROOT
ATOM      1  C   UNL     1      -0.171   2.535  -1.985  0.00  0.00    +0.084 C 
ATOM      2  C   UNL     1      -0.750   1.599  -1.202  0.00  0.00    +0.061 C 
ATOM      3  N   UNL     1      -1.979   1.087  -1.507  0.00  0.00    -0.269 N 
ATOM      4  C   UNL     1      -2.692   1.456  -2.579  0.00  0.00    +0.305 C 
ATOM      5  O   UNL     1      -3.778   0.943  -2.768  0.00  0.00    -0.252 OA
ATOM      6  N   UNL     1      -2.244   2.376  -3.456  0.00  0.00    -0.285 N 
ATOM      7  C   UNL     1      -0.927   2.989  -3.217  0.00  0.00    +0.179 C 
ATOM      8  H   UNL     1      -2.357   0.419  -0.914  0.00  0.00    +0.156 HD
ATOM      9  H   UNL     1      -2.777   2.629  -4.226  0.00  0.00    +0.151 HD
ENDROOT
BRANCH   7  10
ATOM     10  C   UNL     1      -0.064   2.720  -4.423  0.00  0.00    +0.130 A 
ATOM     11  C   UNL     1       0.794   3.590  -4.987  0.00  0.00    +0.047 A 
ATOM     12  C   UNL     1       1.389   2.925  -6.084  0.00  0.00    +0.041 A 
ATOM     13  C   UNL     1       0.859   1.689  -6.125  0.00  0.00    +0.195 A 
ATOM     14  O   UNL     1      -0.015   1.569  -5.113  0.00  0.00    -0.466 OA
ENDBRANCH   7  10
BRANCH   1  15
ATOM     15  C   UNL     1       1.099   3.070  -1.667  0.00  0.00    +0.339 C 
ATOM     16  O   UNL     1       1.737   2.612  -0.738  0.00  0.00    -0.245 OA
BRANCH  15  17
ATOM     17  O   UNL     1       1.603   4.089  -2.395  0.00  0.00    -0.462 OA
BRANCH  17  19
ATOM     18  C   UNL     1       3.294   5.724  -2.950  0.00  0.00    +0.048 C 
ATOM     19  C   UNL     1       2.891   4.580  -2.018  0.00  0.00    +0.229 C 
ENDBRANCH  17  19
ENDBRANCH  15  17
ENDBRANCH   1  15
BRANCH   2  20
ATOM     20  C   UNL     1      -0.031   1.115   0.030  0.00  0.00    +0.280 C 
BRANCH  20  21
ATOM     21  O   UNL     1      -0.876   0.218   0.754  0.00  0.00    -0.485 OA
BRANCH  21  22
ATOM     22  C   UNL     1      -0.374  -0.313   1.900  0.00  0.00    +0.139 A 
ATOM     23  C   UNL     1       0.905   0.023   2.320  0.00  0.00    +0.048 A 
ATOM     24  C   UNL     1       1.413  -0.518   3.485  0.00  0.00    +0.019 A 
ATOM     25  C   UNL     1       0.647  -1.394   4.234  0.00  0.00    +0.019 A 
ATOM     26  C   UNL     1      -0.628  -1.730   3.818  0.00  0.00    +0.039 A 
ATOM     27  C   UNL     1      -1.143  -1.187   2.656  0.00  0.00    +0.084 A 
ATOM     28 CL   UNL     1      -2.747  -1.604   2.138  0.00  0.00    -0.080 Cl
ATOM     29 BR   UNL     1       1.346  -2.132   5.829  0.00  0.00    -0.050 Br
ENDBRANCH  21  22
ENDBRANCH  20  21
ENDBRANCH   2  20
TORSDOF 7
