REMARK  Name = ZINC21672220
REMARK  12 active torsions:
REMARK  status: ('A' for Active; 'I' for Inactive)
REMARK    1  A    between atoms: C_1  and  C_2
REMARK    2  A    between atoms: C_2  and  C_3
REMARK    3  A    between atoms: C_3  and  C_4
REMARK    4  A    between atoms: C_4  and  N_5
REMARK    5  A    between atoms: C_6  and  C_29
REMARK    6  A    between atoms: C_9  and  S_10
REMARK    7  A    between atoms: S_10  and  C_11
REMARK    8  A    between atoms: C_11  and  C_13
REMARK    9  A    between atoms: C_11  and  C_14
REMARK   10  A    between atoms: N_16  and  C_17
REMARK   11  A    between atoms: C_32  and  O_35
REMARK   12  A    between atoms: O_35  and  C_36
REMARK                            x       y       z     vdW  Elec       q    Type
REMARK                         _______ _______ _______ _____ _____    ______ ____
ROOT
ATOM      1  S   UNL     1       4.516   5.892  -0.919  0.00  0.00    -0.074 S 
ENDROOT
BRANCH   1   6
ATOM      2  N   UNL     1       6.534   7.715  -1.576  0.00  0.00    -0.302 N 
ATOM      3  C   UNL     1       7.909   7.736  -1.520  0.00  0.00    +0.165 A 
ATOM      4  N   UNL     1       8.291   6.578  -1.034  0.00  0.00    -0.128 NA
ATOM      5  N   UNL     1       7.265   5.846  -0.782  0.00  0.00    -0.122 NA
ATOM      6  C   UNL     1       6.164   6.492  -1.091  0.00  0.00    +0.193 A 
BRANCH   3   7
ATOM      7  C   UNL     1       8.788   8.849  -1.934  0.00  0.00    +0.020 A 
ATOM      8  C   UNL     1      10.134   8.610  -2.216  0.00  0.00    +0.015 A 
ATOM      9  C   UNL     1      10.950   9.650  -2.607  0.00  0.00    +0.046 A 
ATOM     10  C   UNL     1      10.438  10.936  -2.709  0.00  0.00    +0.120 A 
ATOM     11  C   UNL     1       9.100  11.180  -2.423  0.00  0.00    +0.046 A 
ATOM     12  C   UNL     1       8.277  10.144  -2.037  0.00  0.00    +0.015 A 
BRANCH  10  13
ATOM     13  O   UNL     1      11.246  11.960  -3.088  0.00  0.00    -0.495 OA
ATOM     14  C   UNL     1      12.611  11.640  -3.367  0.00  0.00    +0.277 C 
ENDBRANCH  10  13
ENDBRANCH   3   7
BRANCH   2  15
ATOM     15  C   UNL     1       5.651   8.782  -2.054  0.00  0.00    +0.126 C 
BRANCH  15  16
ATOM     16  C   UNL     1       5.186   9.628  -0.868  0.00  0.00    +0.021 C 
BRANCH  16  18
ATOM     17  C   UNL     1       3.798  11.589  -0.180  0.00  0.00    +0.004 C 
ATOM     18  C   UNL     1       4.264  10.743  -1.367  0.00  0.00    -0.002 C 
ENDBRANCH  16  18
ENDBRANCH  15  16
ENDBRANCH   2  15
ENDBRANCH   1   6
BRANCH   1  19
ATOM     19  C   UNL     1       4.851   4.248  -0.239  0.00  0.00    +0.137 C 
ATOM     20  C   UNL     1       5.491   4.389   1.144  0.00  0.00    +0.029 C 
BRANCH  19  21
ATOM     21  C   UNL     1       3.558   3.482  -0.118  0.00  0.00    +0.230 C 
ATOM     22  O   UNL     1       2.501   4.075  -0.103  0.00  0.00    -0.274 OA
ATOM     23  N   UNL     1       3.578   2.137  -0.027  0.00  0.00    -0.285 N 
ATOM     24  H   UNL     1       4.538   1.606   0.056  0.00  0.00    +0.155 HD
BRANCH  23  25
ATOM     25  C   UNL     1       2.377   1.417  -0.038  0.00  0.00    +0.035 A 
ATOM     26  C   UNL     1       2.310   0.170   0.573  0.00  0.00    +0.025 A 
ATOM     27  C   UNL     1       1.130  -0.545   0.565  0.00  0.00    +0.029 A 
ATOM     28  C   UNL     1       0.006  -0.018  -0.054  0.00  0.00    +0.067 A 
ATOM     29  C   UNL     1       0.069   1.234  -0.668  0.00  0.00    +0.069 A 
ATOM     30  C   UNL     1       1.256   1.949  -0.658  0.00  0.00    +0.051 A 
ATOM     31  N   UNL     1      -1.195   1.490  -1.193  0.00  0.00    -0.306 N 
ATOM     32  H   UNL     1      -1.388   2.431  -1.730  0.00  0.00    +0.170 HD
ATOM     33  C   UNL     1      -1.992   0.442  -0.912  0.00  0.00    +0.325 A 
ATOM     34  O   UNL     1      -3.163   0.346  -1.230  0.00  0.00    -0.247 OA
ATOM     35  N   UNL     1      -1.297  -0.485  -0.226  0.00  0.00    -0.306 N 
ATOM     36  H   UNL     1      -1.588  -1.466   0.179  0.00  0.00    +0.170 HD
ENDBRANCH  23  25
ENDBRANCH  19  21
ENDBRANCH   1  19
TORSDOF 9
