REMARK  Name = ZINC13554301
REMARK  4 active torsions:
REMARK  status: ('A' for Active; 'I' for Inactive)
REMARK    1  A    between atoms: C_3  and  O_37
REMARK    2  A    between atoms: C_6  and  C_7
REMARK    3  A    between atoms: C_7  and  C_8
REMARK    4  A    between atoms: N_16  and  C_19
REMARK                            x       y       z     vdW  Elec       q    Type
REMARK                         _______ _______ _______ _____ _____    ______ ____
ROOT
ATOM      1  C   UNL     1      -1.746  -1.027  -1.429  0.00  0.00    +0.072 C 
ATOM      2  C   UNL     1      -3.025  -1.889  -1.445  0.00  0.00    +0.107 C 
ATOM      3  C   UNL     1      -3.880  -1.314  -2.609  0.00  0.00    +0.122 C 
ATOM      4  C   UNL     1      -5.096  -0.757  -1.904  0.00  0.00    +0.228 C 
ATOM      5  O   UNL     1      -6.034  -0.214  -2.448  0.00  0.00    -0.275 OA
ATOM      6  N   UNL     1      -4.977  -0.956  -0.586  0.00  0.00    -0.238 N 
ATOM      7  C   UNL     1      -3.844  -1.593  -0.210  0.00  0.00    +0.227 C 
ATOM      8  O   UNL     1      -3.530  -1.881   0.924  0.00  0.00    -0.275 OA
ATOM      9  C   UNL     1      -3.031  -0.173  -3.182  0.00  0.00    +0.136 C 
ATOM     10  N   UNL     1      -2.136   0.252  -2.081  0.00  0.00    -0.295 NA
ATOM     11  C   UNL     1      -2.269  -0.612  -4.401  0.00  0.00    +0.006 A 
ATOM     12  C   UNL     1      -1.333  -1.595  -4.629  0.00  0.00    +0.046 A 
ATOM     13  C   UNL     1      -0.797  -1.761  -5.896  0.00  0.00    +0.124 A 
ATOM     14  C   UNL     1      -1.208  -0.937  -6.930  0.00  0.00    +0.040 A 
ATOM     15  C   UNL     1      -2.145   0.050  -6.703  0.00  0.00    +0.026 A 
ATOM     16  C   UNL     1      -2.687   0.223  -5.432  0.00  0.00    +0.039 A 
ATOM     17  N   UNL     1      -3.634   1.137  -4.960  0.00  0.00    -0.283 N 
ATOM     18  C   UNL     1      -3.890   0.971  -3.648  0.00  0.00    +0.243 C 
ATOM     19  O   UNL     1      -4.663   1.617  -2.974  0.00  0.00    -0.273 OA
ATOM     20  F   UNL     1       0.121  -2.725  -6.122  0.00  0.00    -0.205 F 
ATOM     21  H   UNL     1      -2.611   0.859  -1.430  0.00  0.00    +0.124 HD
ATOM     22  H   UNL     1      -4.058   1.812  -5.513  0.00  0.00    +0.155 HD
ENDROOT
BRANCH   6  23
ATOM     23  C   UNL     1      -5.995  -0.525   0.375  0.00  0.00    +0.084 C 
ATOM     24  C   UNL     1      -5.375   0.463   1.365  0.00  0.00    +0.023 C 
ATOM     25  C   UNL     1      -6.438   0.913   2.369  0.00  0.00    +0.002 C 
ATOM     26  C   UNL     1      -6.969  -0.304   3.129  0.00  0.00    +0.000 C 
ATOM     27  C   UNL     1      -7.589  -1.293   2.140  0.00  0.00    +0.002 C 
ATOM     28  C   UNL     1      -6.526  -1.742   1.135  0.00  0.00    +0.023 C 
ENDBRANCH   6  23
BRANCH   1  29
ATOM     29  C   UNL     1      -1.293  -0.774   0.011  0.00  0.00    +0.054 C 
BRANCH  29  35
ATOM     30  C   UNL     1      -0.017   1.378   0.010  0.00  0.00    +0.007 A 
ATOM     31  C   UNL     1       1.169   2.087   0.002  0.00  0.00    +0.045 A 
ATOM     32  C   UNL     1       2.380   1.409  -0.013  0.00  0.00    +0.117 A 
ATOM     33  C   UNL     1       2.396   0.022  -0.021  0.00  0.00    +0.045 A 
ATOM     34  C   UNL     1       1.207  -0.681  -0.013  0.00  0.00    +0.007 A 
ATOM     35  C   UNL     1       0.002  -0.004   0.002  0.00  0.00    -0.046 A 
BRANCH  32  36
ATOM     36  O   UNL     1       3.548   2.104  -0.021  0.00  0.00    -0.507 OA
ATOM     37  H   UNL     1       3.895   2.300   0.860  0.00  0.00    +0.292 HD
ENDBRANCH  32  36
ENDBRANCH  29  35
ENDBRANCH   1  29
TORSDOF 4
