REMARK  Name = ZINC39612670
REMARK  7 active torsions:
REMARK  status: ('A' for Active; 'I' for Inactive)
REMARK    1  A    between atoms: C_1  and  C_2
REMARK    2  A    between atoms: C_2  and  C_4
REMARK    3  A    between atoms: C_2  and  S_19
REMARK    4  A    between atoms: C_9  and  C_14
REMARK    5  A    between atoms: S_19  and  C_20
REMARK    6  A    between atoms: C_24  and  C_27
REMARK    7  A    between atoms: N_25  and  N_26
REMARK                            x       y       z     vdW  Elec       q    Type
REMARK                         _______ _______ _______ _____ _____    ______ ____
ROOT
ATOM      1  C   UNL     1      -0.019   1.526   0.010  0.00  0.00    +0.027 C 
ATOM      2  C   UNL     1       0.002  -0.004   0.002  0.00  0.00    +0.112 C 
ENDROOT
BRANCH   2   3
ATOM      3  C   UNL     1      -1.412  -0.526   0.013  0.00  0.00    +0.136 C 
ATOM      4  N   UNL     1      -1.785  -1.363  -0.928  0.00  0.00    -0.160 NA
ATOM      5  C   UNL     1      -3.022  -1.865  -0.979  0.00  0.00    +0.272 C 
ATOM      6  O   UNL     1      -3.346  -2.642  -1.863  0.00  0.00    -0.268 OA
ATOM      7  C   UNL     1      -3.996  -1.452   0.069  0.00  0.00    +0.076 C 
ATOM      8  C   UNL     1      -5.319  -1.856   0.192  0.00  0.00    -0.009 C 
ATOM      9  C   UNL     1      -6.094  -1.282   1.357  0.00  0.00    +0.113 C 
ATOM     10  S   UNL     1      -4.820  -0.219   2.147  0.00  0.00    -0.100 S 
ATOM     11  C   UNL     1      -3.478  -0.545   1.030  0.00  0.00    +0.112 C 
ATOM     12  N   UNL     1      -2.230  -0.128   0.971  0.00  0.00    -0.226 NA
BRANCH   8  13
ATOM     13  C   UNL     1      -5.904  -2.747  -0.714  0.00  0.00    +0.017 A 
ATOM     14  C   UNL     1      -6.391  -4.042  -0.490  0.00  0.00    +0.016 A 
ATOM     15  C   UNL     1      -6.913  -4.672  -1.585  0.00  0.00    +0.008 A 
ATOM     16  C   UNL     1      -6.925  -4.023  -2.783  0.00  0.00    +0.046 A 
ATOM     17  S   UNL     1      -6.233  -2.528  -2.452  0.00  0.00    -0.097 S 
ENDBRANCH   8  13
ENDBRANCH   2   3
BRANCH   2  18
ATOM     18  S   UNL     1       0.851  -0.589  -1.490  0.00  0.00    -0.106 S 
BRANCH  18  19
ATOM     19  C   UNL     1       2.558  -0.012  -1.279  0.00  0.00    +0.251 C 
ATOM     20  N   UNL     1       3.122  -0.517  -0.015  0.00  0.00    -0.237 N 
ATOM     21  N   UNL     1       3.430   0.613   0.751  0.00  0.00    -0.172 NA
ATOM     22  C   UNL     1       3.135   1.698   0.134  0.00  0.00    +0.134 C 
ATOM     23  N   UNL     1       2.593   1.452  -1.122  0.00  0.00    -0.224 N 
ATOM     24  H   UNL     1       3.254  -1.445   0.235  0.00  0.00    +0.171 HD
BRANCH  22  25
ATOM     25  C   UNL     1       3.349   3.076   0.703  0.00  0.00    +0.055 C 
ATOM     26  C   UNL     1       4.691   3.626   0.216  0.00  0.00    +0.011 C 
ATOM     27  C   UNL     1       4.909   5.026   0.794  0.00  0.00    +0.001 C 
ATOM     28  C   UNL     1       4.913   4.952   2.322  0.00  0.00    +0.000 C 
ATOM     29  C   UNL     1       3.571   4.402   2.809  0.00  0.00    +0.001 C 
ATOM     30  C   UNL     1       3.353   3.002   2.232  0.00  0.00    +0.011 C 
ENDBRANCH  22  25
BRANCH  23  31
ATOM     31  N   UNL     1       2.176   2.382  -2.031  0.00  0.00    -0.250 NA
ATOM     32  H   UNL     1       1.822   1.938  -2.866  0.00  0.00    +0.141 HD
ATOM     33  H   UNL     1       1.486   2.998  -1.628  0.00  0.00    +0.141 HD
ENDBRANCH  23  31
ENDBRANCH  18  19
ENDBRANCH   2  18
TORSDOF 6
