REMARK  Name = ZINC08817792
REMARK  5 active torsions:
REMARK  status: ('A' for Active; 'I' for Inactive)
REMARK    1  A    between atoms: C_3  and  C_6
REMARK    2  A    between atoms: N_7  and  N_8
REMARK    3  A    between atoms: C_9  and  C_11
REMARK    4  A    between atoms: C_11  and  N_65
REMARK    5  A    between atoms: C_18  and  C_28
REMARK                            x       y       z     vdW  Elec       q    Type
REMARK                         _______ _______ _______ _____ _____    ______ ____
ROOT
ATOM      1  C   UNL     1      -4.003   3.864   7.007  0.00  0.00    -0.055 C 
ATOM      2  C   UNL     1      -2.589   3.376   6.671  0.00  0.00    +0.103 C 
ATOM      3  N   UNL     1      -2.501   3.199   5.213  0.00  0.00    -0.347 N 
ATOM      4  C   UNL     1      -1.578   2.533   4.463  0.00  0.00    +0.049 A 
ATOM      5  C   UNL     1      -0.454   1.790   4.815  0.00  0.00    +0.027 A 
ATOM      6  C   UNL     1       0.283   1.232   3.786  0.00  0.00    +0.006 A 
ATOM      7  C   UNL     1      -0.061   1.403   2.455  0.00  0.00    -0.044 A 
ATOM      8  C   UNL     1      -1.161   2.129   2.075  0.00  0.00    +0.014 A 
ATOM      9  C   UNL     1      -1.933   2.701   3.091  0.00  0.00    +0.003 A 
ATOM     10  C   UNL     1      -3.124   3.506   3.085  0.00  0.00    -0.020 A 
ATOM     11  C   UNL     1      -3.431   3.747   4.375  0.00  0.00    +0.009 A 
ATOM     12  C   UNL     1      -4.642   4.560   4.772  0.00  0.00    -0.020 C 
ATOM     13  C   UNL     1      -4.737   5.756   3.839  0.00  0.00    -0.009 C 
ATOM     14  C   UNL     1      -4.395   5.504   2.391  0.00  0.00    +0.003 C 
ATOM     15  C   UNL     1      -4.002   4.084   2.009  0.00  0.00    +0.037 C 
ATOM     16  N   UNL     1      -4.369   5.019   6.159  0.00  0.00    +0.392 N 
ATOM     17  H   UNL     1      -3.586   5.683   6.143  0.00  0.00    -0.080 HD
ENDROOT
BRANCH   7  18
ATOM     18  C   UNL     1       0.797   0.768   1.391  0.00  0.00    +0.019 C 
ATOM     19  C   UNL     1       2.221   1.320   1.489  0.00  0.00    +0.008 C 
ATOM     20  C   UNL     1       3.093   0.675   0.409  0.00  0.00    +0.001 C 
ATOM     21  C   UNL     1       3.118  -0.841   0.612  0.00  0.00    +0.000 C 
ATOM     22  C   UNL     1       1.694  -1.393   0.515  0.00  0.00    +0.001 C 
ATOM     23  C   UNL     1       0.823  -0.748   1.594  0.00  0.00    +0.008 C 
ENDBRANCH   7  18
BRANCH  16  24
ATOM     24  C   UNL     1      -5.561   5.695   6.712  0.00  0.00    +0.021 C 
BRANCH  24  26
ATOM     25  N   UNL     1      -7.854   5.109   7.433  0.00  0.00    -0.208 N 
ATOM     26  C   UNL     1      -6.707   4.725   6.837  0.00  0.00    +0.216 C 
ATOM     27  O   UNL     1      -6.598   3.598   6.401  0.00  0.00    -0.276 OA
ATOM     28  H   UNL     1      -7.941   6.010   7.781  0.00  0.00    +0.177 HD
BRANCH  25  30
ATOM     29  C   UNL     1     -10.026   4.577   8.124  0.00  0.00    +0.176 C 
ATOM     30  N   UNL     1      -8.919   4.207   7.549  0.00  0.00    -0.185 NA
BRANCH  29  33
ATOM     31  C   UNL     1     -13.108   2.710   8.719  0.00  0.00    +0.042 A 
ATOM     32  C   UNL     1     -12.348   3.889   8.828  0.00  0.00    +0.051 A 
ATOM     33  C   UNL     1     -11.140   3.633   8.246  0.00  0.00    +0.147 A 
ATOM     34  O   UNL     1     -11.150   2.359   7.807  0.00  0.00    -0.462 OA
ATOM     35  C   UNL     1     -12.337   1.798   8.092  0.00  0.00    +0.196 A 
ENDBRANCH  29  33
ENDBRANCH  25  30
ENDBRANCH  24  26
ENDBRANCH  16  24
TORSDOF 5
