REMARK  Name = ZINC29195206
REMARK  10 active torsions:
REMARK  status: ('A' for Active; 'I' for Inactive)
REMARK    1  A    between atoms: C_1  and  C_2
REMARK    2  A    between atoms: C_2  and  N_3
REMARK    3  A    between atoms: N_3  and  C_4
REMARK    4  A    between atoms: N_3  and  S_6
REMARK    5  A    between atoms: C_4  and  C_5
REMARK    6  A    between atoms: S_6  and  C_9
REMARK    7  A    between atoms: C_13  and  N_15
REMARK    8  A    between atoms: C_16  and  C_18
REMARK    9  A    between atoms: C_18  and  N_19
REMARK   10  A    between atoms: C_27  and  C_29
REMARK                            x       y       z     vdW  Elec       q    Type
REMARK                         _______ _______ _______ _____ _____    ______ ____
ROOT
ATOM      1  N   UNL     1      -2.344  -1.404   4.356  0.00  0.00    -0.287 N 
ATOM      2  C   UNL     1      -2.325  -1.906   5.607  0.00  0.00    +0.201 C 
ATOM      3  O   UNL     1      -1.268  -2.074   6.177  0.00  0.00    -0.278 OA
ATOM      4  H   UNL     1      -3.304  -1.179   3.868  0.00  0.00    +0.155 HD
ENDROOT
BRANCH   1   9
ATOM      5  C   UNL     1       0.119  -1.133   1.640  0.00  0.00    +0.107 A 
ATOM      6  C   UNL     1       1.235  -0.709   2.340  0.00  0.00    +0.028 A 
ATOM      7  C   UNL     1       1.162  -0.507   3.705  0.00  0.00    +0.004 A 
ATOM      8  C   UNL     1      -0.022  -0.738   4.377  0.00  0.00    +0.023 A 
ATOM      9  C   UNL     1      -1.143  -1.169   3.679  0.00  0.00    +0.035 A 
ATOM     10  C   UNL     1      -1.068  -1.365   2.306  0.00  0.00    +0.051 A 
BRANCH   5  11
ATOM     11  S   UNL     1       0.215  -1.383  -0.102  0.00  0.00    +0.061 S 
ATOM     12  O   UNL     1      -0.810  -2.308  -0.436  0.00  0.00    -0.153 OA
ATOM     13  O   UNL     1       1.584  -1.620  -0.403  0.00  0.00    -0.153 OA
BRANCH  11  14
ATOM     14  N   UNL     1      -0.187   0.051  -0.825  0.00  0.00    -0.177 NA
BRANCH  14  16
ATOM     15  C   UNL     1       1.320   0.858  -2.575  0.00  0.00    +0.022 C 
ATOM     16  C   UNL     1       0.854   1.037  -1.128  0.00  0.00    +0.106 C 
ENDBRANCH  14  16
BRANCH  14  17
ATOM     17  C   UNL     1      -1.583   0.333  -1.167  0.00  0.00    +0.106 C 
ATOM     18  C   UNL     1      -2.232   1.139  -0.041  0.00  0.00    +0.022 C 
ENDBRANCH  14  17
ENDBRANCH  11  14
ENDBRANCH   5  11
ENDBRANCH   1   9
BRANCH   2  19
ATOM     19  C   UNL     1      -3.618  -2.257   6.298  0.00  0.00    +0.020 C 
BRANCH  19  20
ATOM     20  N   UNL     1      -3.329  -2.780   7.640  0.00  0.00    +0.393 N 
ATOM     21  C   UNL     1      -2.747  -1.738   8.497  0.00  0.00    -0.072 C 
ATOM     22  C   UNL     1      -2.846  -2.190   9.964  0.00  0.00    +0.024 C 
ATOM     23  C   UNL     1      -2.379  -3.607  10.036  0.00  0.00    -0.010 A 
ATOM     24  C   UNL     1      -2.194  -4.457   8.987  0.00  0.00    -0.046 A 
ATOM     25  C   UNL     1      -1.747  -5.739   9.296  0.00  0.00    +0.010 A 
ATOM     26  C   UNL     1      -1.522  -6.085  10.586  0.00  0.00    +0.045 A 
ATOM     27  S   UNL     1      -1.940  -4.578  11.450  0.00  0.00    -0.101 S 
ATOM     28  C   UNL     1      -2.478  -3.974   7.568  0.00  0.00    +0.002 C 
ATOM     29  H   UNL     1      -4.279  -3.087   8.102  0.00  0.00    -0.080 HD
BRANCH  28  30
ATOM     30  C   UNL     1      -3.191  -5.057   6.799  0.00  0.00    -0.019 A 
ATOM     31  C   UNL     1      -2.690  -5.931   5.892  0.00  0.00    +0.010 A 
ATOM     32  C   UNL     1      -3.540  -6.850   5.306  0.00  0.00    +0.008 A 
ATOM     33  C   UNL     1      -4.850  -6.850   5.655  0.00  0.00    +0.045 A 
ATOM     34  S   UNL     1      -4.913  -5.526   6.851  0.00  0.00    -0.103 S 
ENDBRANCH  28  30
ENDBRANCH  19  20
ENDBRANCH   2  19
TORSDOF 8
