REMARK  Name = ZINC14275239
REMARK  7 active torsions:
REMARK  status: ('A' for Active; 'I' for Inactive)
REMARK    1  A    between atoms: C_1  and  O_2
REMARK    2  A    between atoms: O_2  and  C_3
REMARK    3  A    between atoms: C_6  and  C_10
REMARK    4  A    between atoms: N_12  and  C_13
REMARK    5  A    between atoms: C_13  and  N_15
REMARK    6  A    between atoms: N_15  and  C_16
REMARK    7  A    between atoms: C_19  and  N_23
REMARK                            x       y       z     vdW  Elec       q    Type
REMARK                         _______ _______ _______ _____ _____    ______ ____
ROOT
ATOM      1  C   UNL     1       2.495   1.173   0.465  0.00  0.00    +0.250 C 
ATOM      2  O   UNL     1       2.510  -0.020   0.698  0.00  0.00    -0.270 OA
ATOM      3  N   UNL     1       3.647   1.824   0.209  0.00  0.00    -0.264 N 
ATOM      4  H   UNL     1       3.635   2.776   0.024  0.00  0.00    +0.157 HD
ENDROOT
BRANCH   1   8
ATOM      5  C   UNL     1      -1.188   3.290   0.459  0.00  0.00    +0.157 A 
ATOM      6  C   UNL     1      -1.173   1.924   0.720  0.00  0.00    +0.085 A 
ATOM      7  C   UNL     1       0.020   1.235   0.728  0.00  0.00    +0.036 A 
ATOM      8  C   UNL     1       1.216   1.909   0.463  0.00  0.00    +0.040 A 
ATOM      9  C   UNL     1       1.196   3.280   0.196  0.00  0.00    +0.036 A 
ATOM     10  C   UNL     1      -0.000   3.963   0.194  0.00  0.00    +0.085 A 
ATOM     11 CL   UNL     1      -0.025   5.667  -0.137  0.00  0.00    -0.080 Cl
ATOM     12 CL   UNL     1      -2.660   1.087   1.042  0.00  0.00    -0.080 Cl
BRANCH   5  14
ATOM     13  C   UNL     1      -3.065   4.046  -0.786  0.00  0.00    +0.277 C 
ATOM     14  O   UNL     1      -2.365   3.966   0.457  0.00  0.00    -0.492 OA
ENDBRANCH   5  14
ENDBRANCH   1   8
BRANCH   3  15
ATOM     15  C   UNL     1       4.815   1.153   0.211  0.00  0.00    +0.141 C 
ATOM     16  S   UNL     1       4.836  -0.528   0.538  0.00  0.00    -0.018 S 
BRANCH  15  17
ATOM     17  N   UNL     1       5.967   1.804  -0.045  0.00  0.00    -0.296 N 
ATOM     18  H   UNL     1       5.949   2.742  -0.292  0.00  0.00    +0.154 HD
BRANCH  17  19
ATOM     19  C   UNL     1       7.188   1.127   0.045  0.00  0.00    +0.047 A 
ATOM     20  C   UNL     1       7.341  -0.117  -0.554  0.00  0.00    +0.026 A 
ATOM     21  C   UNL     1       8.547  -0.782  -0.463  0.00  0.00    +0.034 A 
ATOM     22  C   UNL     1       9.604  -0.212   0.223  0.00  0.00    +0.127 A 
ATOM     23  C   UNL     1       9.456   1.026   0.821  0.00  0.00    +0.049 A 
ATOM     24  C   UNL     1       8.253   1.700   0.730  0.00  0.00    +0.041 A 
ATOM     25 BR   UNL     1       8.054   3.396   1.541  0.00  0.00    -0.048 Br
BRANCH  22  26
ATOM     26  N   UNL     1      10.896  -0.928   0.318  0.00  0.00    +0.056 N 
ATOM     27  O   UNL     1      11.027  -2.019  -0.208  0.00  0.00    -0.126 OA
ATOM     28  O   UNL     1      11.827  -0.428   0.923  0.00  0.00    -0.126 OA
ENDBRANCH  22  26
ENDBRANCH  17  19
ENDBRANCH  15  17
ENDBRANCH   3  15
TORSDOF 6
