REMARK  Name = ZINC63867175
REMARK  9 active torsions:
REMARK  status: ('A' for Active; 'I' for Inactive)
REMARK    1  A    between atoms: C_1  and  C_2
REMARK    2  A    between atoms: C_2  and  C_3
REMARK    3  A    between atoms: C_6  and  N_9
REMARK    4  A    between atoms: C_13  and  N_17
REMARK    5  A    between atoms: N_17  and  C_18
REMARK    6  A    between atoms: C_18  and  C_19
REMARK    7  A    between atoms: C_19  and  C_20
REMARK    8  A    between atoms: C_23  and  O_29
REMARK    9  A    between atoms: O_29  and  C_30
REMARK                            x       y       z     vdW  Elec       q    Type
REMARK                         _______ _______ _______ _____ _____    ______ ____
ROOT
ATOM      1  N   UNL     1       5.228  -1.512  -6.803  0.00  0.00    +0.387 N 
ATOM      2  H   UNL     1       5.323  -1.777  -7.772  0.00  0.00    -0.085 HD
ATOM      3  H   UNL     1       4.817  -0.592  -6.744  0.00  0.00    -0.085 HD
ENDROOT
BRANCH   1   8
ATOM      4  N   UNL     1       2.659  -1.835  -4.668  0.00  0.00    -0.212 N 
ATOM      5  C   UNL     1       2.007  -2.162  -5.791  0.00  0.00    +0.225 C 
ATOM      6  O   UNL     1       0.806  -2.109  -5.946  0.00  0.00    -0.275 OA
ATOM      7  C   UNL     1       3.008  -2.607  -6.835  0.00  0.00    +0.090 C 
ATOM      8  C   UNL     1       4.365  -2.479  -6.113  0.00  0.00    +0.026 C 
ATOM      9  C   UNL     1       3.989  -1.970  -4.739  0.00  0.00    +0.213 C 
ATOM     10  O   UNL     1       4.768  -1.725  -3.843  0.00  0.00    -0.277 OA
BRANCH   4  14
ATOM     11  C   UNL     1       0.707  -0.488  -1.239  0.00  0.00    -0.048 A 
ATOM     12  C   UNL     1       1.525   0.371  -1.950  0.00  0.00    +0.005 A 
ATOM     13  C   UNL     1       2.173  -0.072  -3.086  0.00  0.00    +0.024 A 
ATOM     14  C   UNL     1       2.002  -1.382  -3.514  0.00  0.00    +0.044 A 
ATOM     15  C   UNL     1       1.181  -2.242  -2.799  0.00  0.00    +0.024 A 
ATOM     16  C   UNL     1       0.539  -1.795  -1.660  0.00  0.00    +0.005 A 
BRANCH  11  18
ATOM     17  C   UNL     1       0.892  -0.240   1.221  0.00  0.00    +0.009 C 
ATOM     18  C   UNL     1       0.001  -0.002   0.000  0.00  0.00    +0.032 C 
ENDBRANCH  11  18
ENDBRANCH   4  14
ENDBRANCH   1   8
BRANCH   1  19
ATOM     19  C   UNL     1       6.553  -1.498  -6.168  0.00  0.00    -0.077 C 
BRANCH  19  20
ATOM     20  C   UNL     1       7.452  -0.491  -6.887  0.00  0.00    +0.014 C 
BRANCH  20  21
ATOM     21  C   UNL     1       8.811  -0.476  -6.235  0.00  0.00    -0.043 C 
ATOM     22  C   UNL     1       9.905  -1.173  -6.620  0.00  0.00    +0.002 A 
ATOM     23  C   UNL     1      10.149  -2.116  -7.716  0.00  0.00    +0.055 A 
ATOM     24  C   UNL     1      11.376  -2.672  -7.856  0.00  0.00    +0.121 A 
ATOM     25  C   UNL     1      12.438  -2.378  -6.984  0.00  0.00    +0.047 A 
ATOM     26  C   UNL     1      12.311  -1.523  -5.946  0.00  0.00    +0.029 A 
ATOM     27  C   UNL     1      11.024  -0.863  -5.701  0.00  0.00    +0.043 A 
ATOM     28  N   UNL     1      10.638  -0.010  -4.785  0.00  0.00    -0.380 N 
ATOM     29  C   UNL     1       9.230   0.325  -5.023  0.00  0.00    +0.144 C 
ATOM     30  H   UNL     1      11.192   0.344  -4.072  0.00  0.00    +0.160 HD
BRANCH  24  31
ATOM     31  O   UNL     1      11.588  -3.546  -8.876  0.00  0.00    -0.495 OA
ATOM     32  C   UNL     1      12.897  -4.108  -8.987  0.00  0.00    +0.277 C 
ENDBRANCH  24  31
ENDBRANCH  20  21
ENDBRANCH  19  20
ENDBRANCH   1  19
TORSDOF 7
