REMARK  Name = ZINC11872587
REMARK  14 active torsions:
REMARK  status: ('A' for Active; 'I' for Inactive)
REMARK    1  A    between atoms: C_1  and  C_2
REMARK    2  A    between atoms: C_2  and  C_3
REMARK    3  A    between atoms: C_2  and  C_4
REMARK    4  A    between atoms: C_4  and  C_5
REMARK    5  A    between atoms: C_5  and  C_6
REMARK    6  A    between atoms: C_6  and  C_17
REMARK    7  A    between atoms: N_9  and  C_13
REMARK    8  A    between atoms: C_13  and  C_14
REMARK    9  A    between atoms: C_14  and  N_73
REMARK   10  A    between atoms: C_15  and  N_73
REMARK   11  A    between atoms: C_16  and  N_73
REMARK   12  A    between atoms: C_23  and  C_25
REMARK   13  A    between atoms: C_25  and  C_26
REMARK   14  A    between atoms: C_26  and  C_27
REMARK                            x       y       z     vdW  Elec       q    Type
REMARK                         _______ _______ _______ _____ _____    ______ ____
ROOT
ATOM      1  C   UNL     1      -2.929   1.626   2.464  0.00  0.00    +0.115 C 
ATOM      2  C   UNL     1      -4.403   1.280   2.396  0.00  0.00    +0.247 C 
ATOM      3  O   UNL     1      -4.893   0.175   2.312  0.00  0.00    -0.273 OA
ATOM      4  N   UNL     1      -5.054   2.463   2.448  0.00  0.00    -0.226 N 
ATOM      5  C   UNL     1      -4.203   3.492   2.540  0.00  0.00    +0.309 C 
ATOM      6  O   UNL     1      -4.553   4.654   2.602  0.00  0.00    -0.252 OA
ATOM      7  N   UNL     1      -2.918   3.096   2.557  0.00  0.00    -0.285 N 
ATOM      8  H   UNL     1      -2.136   3.667   2.619  0.00  0.00    +0.151 HD
ENDROOT
BRANCH   1   9
ATOM      9  C   UNL     1      -2.208   1.161   1.197  0.00  0.00    +0.024 C 
ATOM     10  C   UNL     1      -0.736   1.583   1.264  0.00  0.00    +0.025 C 
ATOM     11  C   UNL     1      -0.013   1.086   0.008  0.00  0.00    +0.108 C 
ATOM     12  N   UNL     1      -0.729   1.575  -1.178  0.00  0.00    -0.301 N 
ATOM     13  C   UNL     1      -2.168   1.303  -1.297  0.00  0.00    +0.108 C 
ATOM     14  C   UNL     1      -2.869   1.797  -0.028  0.00  0.00    +0.025 C 
ATOM     15  C   UNL     1      -0.078   2.261  -2.138  0.00  0.00    +0.216 C 
ATOM     16  O   UNL     1       1.110   2.480  -2.029  0.00  0.00    -0.276 OA
BRANCH  15  17
ATOM     17  C   UNL     1      -0.827   2.757  -3.349  0.00  0.00    +0.100 C 
BRANCH  17  18
ATOM     18  C   UNL     1       0.138   3.498  -4.277  0.00  0.00    +0.044 C 
BRANCH  18  19
ATOM     19  C   UNL     1      -0.611   3.994  -5.487  0.00  0.00    -0.047 A 
ATOM     20  C   UNL     1      -0.708   3.198  -6.613  0.00  0.00    +0.003 A 
ATOM     21  C   UNL     1      -1.398   3.651  -7.722  0.00  0.00    +0.000 A 
ATOM     22  C   UNL     1      -1.983   4.903  -7.708  0.00  0.00    +0.000 A 
ATOM     23  C   UNL     1      -1.881   5.701  -6.584  0.00  0.00    +0.000 A 
ATOM     24  C   UNL     1      -1.195   5.246  -5.473  0.00  0.00    +0.003 A 
ENDBRANCH  18  19
ENDBRANCH  17  18
ENDBRANCH  15  17
ENDBRANCH   1   9
BRANCH   1  25
ATOM     25  C   UNL     1      -2.287   1.003   3.705  0.00  0.00    +0.036 C 
BRANCH  25  26
ATOM     26  C   UNL     1      -3.025   1.483   4.957  0.00  0.00    +0.005 C 
BRANCH  26  28
ATOM     27  C   UNL     1      -3.039   1.436   7.455  0.00  0.00    +0.007 C 
ATOM     28  C   UNL     1      -2.383   0.860   6.198  0.00  0.00    -0.017 C 
ATOM     29  C   UNL     1      -2.581  -0.656   6.168  0.00  0.00    +0.007 C 
ENDBRANCH  26  28
ENDBRANCH  25  26
ENDBRANCH   1  25
BRANCH   4  30
ATOM     30  C   UNL     1      -6.512   2.602   2.408  0.00  0.00    +0.099 C 
BRANCH  30  31
ATOM     31  C   UNL     1      -6.972   2.741   0.956  0.00  0.00    -0.060 C 
BRANCH  31  34
ATOM     32  C   UNL     1      -8.860   4.141   1.539  0.00  0.00    -0.097 C 
ATOM     33  C   UNL     1      -8.935   2.779  -0.461  0.00  0.00    -0.097 C 
ATOM     34  N   UNL     1      -8.445   2.859   0.931  0.00  0.00    +0.377 N 
ATOM     35  H   UNL     1      -8.850   2.086   1.472  0.00  0.00    -0.083 HD
ENDBRANCH  31  34
ENDBRANCH  30  31
ENDBRANCH   4  30
TORSDOF 10
