REMARK  Name = ZINC10037396
REMARK  6 active torsions:
REMARK  status: ('A' for Active; 'I' for Inactive)
REMARK    1  A    between atoms: C_1  and  C_2
REMARK    2  A    between atoms: C_2  and  C_4
REMARK    3  A    between atoms: C_2  and  S_17
REMARK    4  A    between atoms: S_17  and  C_18
REMARK    5  A    between atoms: C_21  and  C_29
REMARK    6  A    between atoms: N_22  and  C_23
REMARK                            x       y       z     vdW  Elec       q    Type
REMARK                         _______ _______ _______ _____ _____    ______ ____
ROOT
ATOM      1  S   UNL     1       0.043  -2.419  -2.532  0.00  0.00    -0.073 S 
ENDROOT
BRANCH   1   2
ATOM      2  C   UNL     1       0.780  -2.913  -1.009  0.00  0.00    +0.197 A 
ATOM      3  N   UNL     1       0.993  -4.146  -0.610  0.00  0.00    -0.122 NA
ATOM      4  N   UNL     1       1.547  -4.148   0.549  0.00  0.00    -0.127 NA
ATOM      5  C   UNL     1       1.729  -2.914   0.964  0.00  0.00    +0.176 A 
ATOM      6  N   UNL     1       1.237  -2.082  -0.021  0.00  0.00    -0.270 N 
BRANCH   6   7
ATOM      7  C   UNL     1       1.214  -0.680  -0.013  0.00  0.00    +0.051 A 
ATOM      8  C   UNL     1       0.002  -0.004   0.002  0.00  0.00    +0.026 A 
ATOM      9  C   UNL     1      -0.017   1.377   0.010  0.00  0.00    +0.002 A 
ATOM     10  C   UNL     1       1.171   2.086   0.002  0.00  0.00    +0.000 A 
ATOM     11  C   UNL     1       2.380   1.415  -0.013  0.00  0.00    +0.002 A 
ATOM     12  C   UNL     1       2.405   0.034  -0.021  0.00  0.00    +0.026 A 
ENDBRANCH   6   7
BRANCH   5  13
ATOM     13  C   UNL     1       2.338  -2.498   2.237  0.00  0.00    +0.057 A 
ATOM     14  C   UNL     1       2.589  -3.246   3.360  0.00  0.00    +0.019 A 
ATOM     15  C   UNL     1       3.176  -2.633   4.444  0.00  0.00    +0.008 A 
ATOM     16  C   UNL     1       3.486  -1.313   4.371  0.00  0.00    +0.046 A 
ATOM     17  S   UNL     1       2.950  -0.892   2.721  0.00  0.00    -0.094 S 
ENDBRANCH   5  13
ENDBRANCH   1   2
BRANCH   1  19
ATOM     18  C   UNL     1       1.051  -4.747  -3.545  0.00  0.00    +0.029 C 
ATOM     19  C   UNL     1      -0.278  -4.042  -3.266  0.00  0.00    +0.137 C 
BRANCH  19  20
ATOM     20  C   UNL     1      -1.035  -3.868  -4.557  0.00  0.00    +0.233 C 
ATOM     21  O   UNL     1      -0.946  -2.829  -5.178  0.00  0.00    -0.274 OA
ATOM     22  N   UNL     1      -1.811  -4.866  -5.023  0.00  0.00    -0.260 N 
ATOM     23  C   UNL     1      -1.936  -6.135  -4.291  0.00  0.00    +0.209 C 
ATOM     24  C   UNL     1      -1.894  -7.277  -5.274  0.00  0.00    +0.235 C 
ATOM     25  O   UNL     1      -1.461  -8.354  -4.923  0.00  0.00    -0.274 OA
ATOM     26  N   UNL     1      -2.332  -7.116  -6.537  0.00  0.00    -0.283 N 
ATOM     27  C   UNL     1      -2.790  -5.871  -6.982  0.00  0.00    +0.055 A 
ATOM     28  C   UNL     1      -2.531  -4.726  -6.220  0.00  0.00    +0.058 A 
ATOM     29  C   UNL     1      -2.968  -3.491  -6.654  0.00  0.00    +0.025 A 
ATOM     30  C   UNL     1      -3.675  -3.388  -7.839  0.00  0.00    +0.002 A 
ATOM     31  C   UNL     1      -3.940  -4.518  -8.590  0.00  0.00    +0.002 A 
ATOM     32  C   UNL     1      -3.500  -5.759  -8.166  0.00  0.00    +0.025 A 
ATOM     33  H   UNL     1      -2.330  -7.871  -7.145  0.00  0.00    +0.155 HD
ENDBRANCH  19  20
ENDBRANCH   1  19
TORSDOF 5
