REMARK  Name = ZINC00921806
REMARK  5 active torsions:
REMARK  status: ('A' for Active; 'I' for Inactive)
REMARK    1  A    between atoms: C_11  and  N_22
REMARK    2  A    between atoms: C_13  and  S_15
REMARK    3  A    between atoms: S_15  and  C_16
REMARK    4  A    between atoms: N_22  and  S_23
REMARK    5  A    between atoms: S_23  and  C_26
REMARK                            x       y       z     vdW  Elec       q    Type
REMARK                         _______ _______ _______ _____ _____    ______ ____
ROOT
ATOM      1  C   UNL     1      -0.111   1.306   0.018  0.00  0.00    +0.001 A 
ATOM      2  C   UNL     1       1.015   2.078   0.007  0.00  0.00    +0.008 A 
ATOM      3  C   UNL     1       2.269   1.446  -0.011  0.00  0.00    -0.017 A 
ATOM      4  C   UNL     1       3.498   2.125  -0.022  0.00  0.00    +0.008 A 
ATOM      5  C   UNL     1       4.652   1.396  -0.040  0.00  0.00    +0.001 A 
ATOM      6  C   UNL     1       4.654  -0.001  -0.048  0.00  0.00    +0.005 A 
ATOM      7  C   UNL     1       3.480  -0.690  -0.037  0.00  0.00    -0.024 A 
ATOM      8  C   UNL     1       2.295   0.040  -0.018  0.00  0.00    -0.009 A 
ATOM      9  C   UNL     1       1.139  -0.734  -0.007  0.00  0.00    -0.019 A 
ATOM     10  C   UNL     1      -0.060  -0.089   0.011  0.00  0.00    +0.006 A 
ATOM     11  C   UNL     1       1.565  -2.182  -0.019  0.00  0.00    +0.125 C 
ATOM     12  C   UNL     1       3.109  -2.153  -0.041  0.00  0.00    +0.108 C 
ENDROOT
BRANCH  11  13
ATOM     13  N   UNL     1       1.084  -2.863   1.185  0.00  0.00    -0.181 NA
ATOM     14  H   UNL     1       1.590  -2.804   2.010  0.00  0.00    +0.149 HD
BRANCH  13  15
ATOM     15  S   UNL     1      -0.325  -3.733   1.138  0.00  0.00    +0.059 S 
ATOM     16  O   UNL     1      -0.504  -4.287   2.434  0.00  0.00    -0.153 OA
ATOM     17  O   UNL     1      -1.297  -2.898   0.524  0.00  0.00    -0.153 OA
BRANCH  15  18
ATOM     18  C   UNL     1      -0.062  -5.089   0.043  0.00  0.00    +0.105 A 
ATOM     19  C   UNL     1      -0.336  -4.952  -1.305  0.00  0.00    +0.030 A 
ATOM     20  C   UNL     1      -0.130  -6.015  -2.164  0.00  0.00    +0.022 A 
ATOM     21  C   UNL     1       0.349  -7.217  -1.674  0.00  0.00    +0.041 A 
ATOM     22  C   UNL     1       0.622  -7.354  -0.325  0.00  0.00    +0.022 A 
ATOM     23  C   UNL     1       0.422  -6.288   0.532  0.00  0.00    +0.030 A 
ATOM     24 CL   UNL     1       0.607  -8.553  -2.752  0.00  0.00    -0.084 Cl
ENDBRANCH  15  18
ENDBRANCH  13  15
ENDBRANCH  11  13
BRANCH  12  25
ATOM     25  S   UNL     1       3.733  -2.955  -1.543  0.00  0.00    -0.076 S 
BRANCH  25  26
ATOM     26  C   UNL     1       2.860  -2.157  -2.849  0.00  0.00    +0.189 A 
ATOM     27  N   UNL     1       2.075  -1.127  -2.566  0.00  0.00    -0.230 NA
ATOM     28  C   UNL     1       1.405  -0.505  -3.522  0.00  0.00    +0.115 A 
ATOM     29  C   UNL     1       1.533  -0.942  -4.832  0.00  0.00    +0.039 A 
ATOM     30  C   UNL     1       2.363  -2.022  -5.092  0.00  0.00    +0.115 A 
ATOM     31  N   UNL     1       3.008  -2.596  -4.090  0.00  0.00    -0.230 NA
ENDBRANCH  25  26
ENDBRANCH  12  25
TORSDOF 5
