REMARK  Name = ZINC25144613
REMARK  10 active torsions:
REMARK  status: ('A' for Active; 'I' for Inactive)
REMARK    1  A    between atoms: C_1  and  C_2
REMARK    2  A    between atoms: C_10  and  C_11
REMARK    3  A    between atoms: N_16  and  C_19
REMARK    4  A    between atoms: C_19  and  C_20
REMARK    5  A    between atoms: C_20  and  C_22
REMARK    6  A    between atoms: C_20  and  O_29
REMARK    7  A    between atoms: O_29  and  C_30
REMARK    8  A    between atoms: C_30  and  C_31
REMARK    9  A    between atoms: C_35  and  O_37
REMARK   10  A    between atoms: O_37  and  C_38
REMARK                            x       y       z     vdW  Elec       q    Type
REMARK                         _______ _______ _______ _____ _____    ______ ____
ROOT
ATOM      1  C   UNL     1      -9.971  -3.189   5.172  0.00  0.00    +0.282 C 
ATOM      2  O   UNL     1     -10.940  -2.617   4.709  0.00  0.00    -0.267 OA
ATOM      3  N   UNL     1      -8.822  -2.514   5.372  0.00  0.00    -0.299 N 
ATOM      4  C   UNL     1      -7.691  -3.141   6.074  0.00  0.00    +0.089 C 
ATOM      5  C   UNL     1      -7.229  -2.200   7.191  0.00  0.00    -0.059 C 
ATOM      6  N   UNL     1      -6.950  -0.873   6.625  0.00  0.00    +0.384 N 
ATOM      7  C   UNL     1      -8.164  -0.270   6.059  0.00  0.00    -0.059 C 
ATOM      8  C   UNL     1      -8.665  -1.132   4.896  0.00  0.00    +0.089 C 
ATOM      9  H   UNL     1      -6.229  -1.004   5.805  0.00  0.00    -0.082 HD
ENDROOT
BRANCH   1  19
ATOM     10  C   UNL     1     -12.580  -4.883   5.153  0.00  0.00    +0.048 C 
ATOM     11  C   UNL     1     -11.193  -5.357   5.504  0.00  0.00    +0.008 A 
ATOM     12  C   UNL     1     -10.800  -6.708   5.902  0.00  0.00    +0.024 A 
ATOM     13  C   UNL     1     -11.490  -7.910   6.080  0.00  0.00    +0.012 A 
ATOM     14  C   UNL     1     -10.812  -9.028   6.476  0.00  0.00    +0.001 A 
ATOM     15  C   UNL     1      -9.443  -8.977   6.701  0.00  0.00    +0.004 A 
ATOM     16  C   UNL     1      -8.744  -7.801   6.531  0.00  0.00    +0.047 A 
ATOM     17  C   UNL     1      -9.413  -6.651   6.129  0.00  0.00    +0.136 A 
ATOM     18  O   UNL     1      -9.012  -5.388   5.885  0.00  0.00    -0.450 OA
ATOM     19  C   UNL     1     -10.054  -4.617   5.512  0.00  0.00    +0.194 A 
ENDBRANCH   1  19
BRANCH   6  20
ATOM     20  C   UNL     1      -6.342   0.010   7.628  0.00  0.00    -0.042 C 
BRANCH  20  21
ATOM     21  C   UNL     1      -5.840   1.286   6.948  0.00  0.00    +0.132 C 
BRANCH  21  22
ATOM     22  C   UNL     1      -5.216   2.192   7.978  0.00  0.00    -0.021 A 
ATOM     23  C   UNL     1      -3.894   2.017   8.341  0.00  0.00    +0.007 A 
ATOM     24  C   UNL     1      -3.319   2.852   9.281  0.00  0.00    +0.020 A 
ATOM     25  C   UNL     1      -4.071   3.855   9.867  0.00  0.00    +0.041 A 
ATOM     26  C   UNL     1      -5.396   4.025   9.507  0.00  0.00    +0.020 A 
ATOM     27  C   UNL     1      -5.968   3.194   8.563  0.00  0.00    +0.007 A 
ATOM     28 CL   UNL     1      -3.352   4.899  11.053  0.00  0.00    -0.084 Cl
ENDBRANCH  21  22
BRANCH  21  29
ATOM     29  O   UNL     1      -4.866   0.947   5.959  0.00  0.00    -0.369 OA
BRANCH  29  30
ATOM     30  C   UNL     1      -4.822   1.851   4.853  0.00  0.00    +0.196 C 
BRANCH  30  31
ATOM     31  C   UNL     1      -3.766   1.399   3.877  0.00  0.00    -0.018 A 
ATOM     32  C   UNL     1      -4.097   0.528   2.855  0.00  0.00    +0.006 A 
ATOM     33  C   UNL     1      -3.131   0.112   1.958  0.00  0.00    +0.004 A 
ATOM     34  C   UNL     1      -1.831   0.566   2.082  0.00  0.00    +0.045 A 
ATOM     35  C   UNL     1      -1.497   1.439   3.106  0.00  0.00    +0.120 A 
ATOM     36  C   UNL     1      -2.468   1.851   4.008  0.00  0.00    +0.051 A 
BRANCH  35  37
ATOM     37  O   UNL     1      -0.220   1.887   3.229  0.00  0.00    -0.495 OA
ATOM     38  C   UNL     1       0.728   1.416   2.269  0.00  0.00    +0.277 C 
ENDBRANCH  35  37
ENDBRANCH  30  31
ENDBRANCH  29  30
ENDBRANCH  21  29
ENDBRANCH  20  21
ENDBRANCH   6  20
TORSDOF 8
