REMARK  Name = ZINC42909380
REMARK  9 active torsions:
REMARK  status: ('A' for Active; 'I' for Inactive)
REMARK    1  A    between atoms: C_1  and  C_2
REMARK    2  A    between atoms: C_5  and  C_8
REMARK    3  A    between atoms: C_8  and  C_10
REMARK    4  A    between atoms: C_8  and  N_14
REMARK    5  A    between atoms: C_10  and  C_12
REMARK    6  A    between atoms: C_10  and  N_13
REMARK    7  A    between atoms: N_14  and  C_15
REMARK    8  A    between atoms: N_14  and  C_16
REMARK    9  A    between atoms: C_16  and  C_17
REMARK                            x       y       z     vdW  Elec       q    Type
REMARK                         _______ _______ _______ _____ _____    ______ ____
ROOT
ATOM      1  C   UNL     1       0.069  -4.332   0.100  0.00  0.00    +0.072 C 
ENDROOT
BRANCH   1   6
ATOM      2  C   UNL     1       1.198   1.327   0.404  0.00  0.00    +0.044 C 
ATOM      3  C   UNL     1       0.904  -0.148   0.325  0.00  0.00    -0.050 A 
ATOM      4  C   UNL     1       0.437  -0.698  -0.855  0.00  0.00    +0.003 A 
ATOM      5  C   UNL     1       0.167  -2.051  -0.927  0.00  0.00    +0.005 A 
ATOM      6  C   UNL     1       0.364  -2.856   0.179  0.00  0.00    -0.032 A 
ATOM      7  C   UNL     1       0.832  -2.307   1.359  0.00  0.00    +0.005 A 
ATOM      8  C   UNL     1       1.106  -0.954   1.430  0.00  0.00    +0.003 A 
ENDBRANCH   1   6
BRANCH   1   9
ATOM      9  C   UNL     1      -1.298  -4.613   0.729  0.00  0.00    -0.056 C 
ATOM     10  C   UNL     1      -1.244  -4.301   2.226  0.00  0.00    -0.012 C 
BRANCH   9  11
ATOM     11  N   UNL     1      -2.314  -3.768   0.089  0.00  0.00    +0.381 N 
ATOM     12  H   UNL     1      -2.284  -3.904  -0.911  0.00  0.00    -0.090 HD
ATOM     13  H   UNL     1      -3.228  -4.020   0.434  0.00  0.00    -0.090 HD
ATOM     14  H   UNL     1      -2.130  -2.799   0.302  0.00  0.00    -0.090 HD
ENDBRANCH   9  11
ENDBRANCH   1   9
BRANCH   1  15
ATOM     15  N   UNL     1       1.105  -5.078   0.826  0.00  0.00    -0.296 NA
ATOM     16  C   UNL     1       2.440  -4.780   0.292  0.00  0.00    +0.105 C 
BRANCH  15  17
ATOM     17  C   UNL     1       0.835  -6.521   0.793  0.00  0.00    +0.120 C 
BRANCH  17  18
ATOM     18  C   UNL     1       1.675  -7.214   1.835  0.00  0.00    -0.025 A 
ATOM     19  C   UNL     1       2.939  -7.676   1.523  0.00  0.00    +0.028 A 
ATOM     20  C   UNL     1       3.669  -8.295   2.484  0.00  0.00    +0.055 A 
ATOM     21  S   UNL     1       2.561  -8.237   3.883  0.00  0.00    -0.090 S 
ATOM     22  C   UNL     1       1.204  -7.388   3.094  0.00  0.00    +0.051 A 
ATOM     23 BR   UNL     1       5.408  -9.030   2.372  0.00  0.00    -0.043 Br
ENDBRANCH  17  18
ENDBRANCH  15  17
ENDBRANCH   1  15
TORSDOF 6
