REMARK  Name = ZINC36502201
REMARK  14 active torsions:
REMARK  status: ('A' for Active; 'I' for Inactive)
REMARK    1  A    between atoms: C_1  and  C_2
REMARK    2  A    between atoms: C_2  and  C_3
REMARK    3  A    between atoms: C_2  and  C_4
REMARK    4  A    between atoms: C_2  and  N_5
REMARK    5  A    between atoms: C_6  and  C_8
REMARK    6  A    between atoms: C_8  and  C_10
REMARK    7  A    between atoms: C_8  and  N_17
REMARK    8  A    between atoms: C_14  and  O_16
REMARK    9  A    between atoms: N_17  and  C_18
REMARK   10  A    between atoms: C_18  and  C_19
REMARK   11  A    between atoms: C_24  and  C_26
REMARK   12  A    between atoms: C_26  and  C_27
REMARK   13  A    between atoms: C_26  and  C_33
REMARK   14  A    between atoms: C_26  and  O_39
REMARK                            x       y       z     vdW  Elec       q    Type
REMARK                         _______ _______ _______ _____ _____    ______ ____
ROOT
ATOM      1  N   UNL     1       4.538  -0.503  -3.000  0.00  0.00    -0.276 N 
ATOM      2  C   UNL     1       5.240   0.155  -3.943  0.00  0.00    +0.258 C 
ATOM      3  O   UNL     1       4.736   0.388  -5.022  0.00  0.00    -0.272 OA
ENDROOT
BRANCH   1   4
ATOM      4  C   UNL     1       3.180  -0.969  -3.289  0.00  0.00    +0.193 C 
BRANCH   4   5
ATOM      5  C   UNL     1       3.237  -2.094  -4.290  0.00  0.00    -0.015 A 
ATOM      6  C   UNL     1       4.150  -3.120  -4.125  0.00  0.00    +0.006 A 
ATOM      7  C   UNL     1       4.205  -4.153  -5.042  0.00  0.00    +0.004 A 
ATOM      8  C   UNL     1       3.348  -4.163  -6.125  0.00  0.00    +0.045 A 
ATOM      9  C   UNL     1       2.431  -3.136  -6.293  0.00  0.00    +0.117 A 
ATOM     10  C   UNL     1       2.374  -2.103  -5.368  0.00  0.00    +0.051 A 
BRANCH   9  11
ATOM     11  O   UNL     1       1.587  -3.144  -7.358  0.00  0.00    -0.507 OA
ATOM     12  H   UNL     1       0.750  -3.598  -7.192  0.00  0.00    +0.292 HD
ENDBRANCH   9  11
ENDBRANCH   4   5
BRANCH   4  14
ATOM     13  N   UNL     1       1.204  -1.660  -1.971  0.00  0.00    -0.309 N 
ATOM     14  C   UNL     1       2.536  -1.460  -2.018  0.00  0.00    +0.239 C 
ATOM     15  O   UNL     1       3.216  -1.675  -1.037  0.00  0.00    -0.273 OA
ATOM     16  H   UNL     1       0.672  -1.576  -2.777  0.00  0.00    +0.149 HD
BRANCH  13  18
ATOM     17  C   UNL     1       0.938  -0.970   0.360  0.00  0.00    +0.031 C 
ATOM     18  C   UNL     1       0.559  -2.005  -0.701  0.00  0.00    +0.026 C 
ATOM     19  C   UNL     1       1.026  -3.391  -0.251  0.00  0.00    +0.031 C 
ATOM     20  C   UNL     1      -0.959  -2.013  -0.886  0.00  0.00    +0.031 C 
ENDBRANCH  13  18
ENDBRANCH   4  14
ENDBRANCH   1   4
BRANCH   1  21
ATOM     21  C   UNL     1       5.134  -0.753  -1.685  0.00  0.00    +0.183 C 
BRANCH  21  22
ATOM     22  C   UNL     1       4.600   0.249  -0.693  0.00  0.00    +0.122 A 
ATOM     23  C   UNL     1       3.948  -0.044   0.446  0.00  0.00    +0.046 A 
ATOM     24  C   UNL     1       3.631   1.187   1.065  0.00  0.00    +0.041 A 
ATOM     25  C   UNL     1       4.108   2.159   0.266  0.00  0.00    +0.195 A 
ATOM     26  O   UNL     1       4.699   1.584  -0.794  0.00  0.00    -0.466 OA
ENDBRANCH  21  22
ENDBRANCH   1  21
BRANCH   2  27
ATOM     27  C   UNL     1       6.651   0.603  -3.659  0.00  0.00    +0.192 C 
BRANCH  27  28
ATOM     28  C   UNL     1       7.352   0.909  -4.957  0.00  0.00    -0.003 A 
ATOM     29  C   UNL     1       6.933   1.972  -5.734  0.00  0.00    +0.007 A 
ATOM     30  C   UNL     1       7.576   2.254  -6.925  0.00  0.00    +0.000 A 
ATOM     31  C   UNL     1       8.639   1.472  -7.338  0.00  0.00    +0.000 A 
ATOM     32  C   UNL     1       9.059   0.410  -6.560  0.00  0.00    +0.000 A 
ATOM     33  C   UNL     1       8.418   0.131  -5.367  0.00  0.00    +0.007 A 
ENDBRANCH  27  28
BRANCH  27  34
ATOM     34  C   UNL     1       6.622   1.840  -2.799  0.00  0.00    -0.003 A 
ATOM     35  C   UNL     1       5.560   2.720  -2.890  0.00  0.00    +0.007 A 
ATOM     36  C   UNL     1       5.534   3.855  -2.102  0.00  0.00    +0.000 A 
ATOM     37  C   UNL     1       6.568   4.109  -1.221  0.00  0.00    +0.000 A 
ATOM     38  C   UNL     1       7.629   3.228  -1.129  0.00  0.00    +0.000 A 
ATOM     39  C   UNL     1       7.654   2.091  -1.914  0.00  0.00    +0.007 A 
ENDBRANCH  27  34
BRANCH  27  40
ATOM     40  O   UNL     1       7.351  -0.438  -2.973  0.00  0.00    -0.371 OA
ATOM     41  H   UNL     1       7.345  -1.287  -3.436  0.00  0.00    +0.212 HD
ENDBRANCH  27  40
ENDBRANCH   2  27
TORSDOF 11
