REMARK  Name = ZINC12463750
REMARK  10 active torsions:
REMARK  status: ('A' for Active; 'I' for Inactive)
REMARK    1  A    between atoms: C_1  and  C_2
REMARK    2  A    between atoms: C_2  and  C_3
REMARK    3  A    between atoms: C_2  and  C_4
REMARK    4  A    between atoms: C_4  and  C_5
REMARK    5  A    between atoms: C_8  and  C_10
REMARK    6  A    between atoms: C_10  and  N_55
REMARK    7  A    between atoms: C_11  and  C_12
REMARK    8  A    between atoms: C_11  and  N_55
REMARK    9  A    between atoms: C_16  and  N_17
REMARK   10  A    between atoms: C_23  and  C_25
REMARK                            x       y       z     vdW  Elec       q    Type
REMARK                         _______ _______ _______ _____ _____    ______ ____
ROOT
ATOM      1  C   UNL     1       3.313  -8.428  -3.179  0.00  0.00    -0.026 A 
ATOM      2  C   UNL     1       2.788  -9.219  -4.184  0.00  0.00    +0.006 A 
ATOM      3  C   UNL     1       3.611  -9.578  -5.244  0.00  0.00    +0.018 A 
ATOM      4  C   UNL     1       4.919  -9.137  -5.263  0.00  0.00    +0.084 A 
ATOM      5  C   UNL     1       4.639  -8.017  -3.265  0.00  0.00    +0.100 A 
ATOM      6  N   UNL     1       5.469  -8.360  -4.293  0.00  0.00    -0.349 N 
ATOM      7  H   UNL     1       6.447  -8.050  -4.331  0.00  0.00    +0.167 HD
ENDROOT
BRANCH   5   8
ATOM      8  N   UNL     1       5.179  -7.217  -2.264  0.00  0.00    -0.314 N 
ATOM      9  C   UNL     1       5.442  -5.859  -2.759  0.00  0.00    +0.125 C 
ATOM     10  C   UNL     1       5.863  -4.965  -1.588  0.00  0.00    +0.126 C 
ATOM     11  N   UNL     1       6.991  -5.604  -0.894  0.00  0.00    -0.299 N 
ATOM     12  C   UNL     1       6.852  -7.010  -0.488  0.00  0.00    +0.126 C 
ATOM     13  C   UNL     1       6.393  -7.824  -1.702  0.00  0.00    +0.125 C 
ATOM     14  C   UNL     1       8.123  -4.918  -0.637  0.00  0.00    +0.213 C 
ATOM     15  O   UNL     1       8.189  -3.736  -0.901  0.00  0.00    -0.276 OA
ATOM     16  C   UNL     1       9.306  -5.620  -0.023  0.00  0.00    +0.109 C 
ENDBRANCH   5   8
BRANCH   1  17
ATOM     17  C   UNL     1       2.459  -8.013  -2.008  0.00  0.00    -0.043 C 
BRANCH  17  18
ATOM     18  N   UNL     1       2.083  -6.596  -2.163  0.00  0.00    +0.385 N 
ATOM     19  H   UNL     1       2.933  -6.021  -2.196  0.00  0.00    -0.085 HD
ATOM     20  H   UNL     1       1.557  -6.478  -3.038  0.00  0.00    -0.085 HD
BRANCH  18  21
ATOM     21  C   UNL     1       1.245  -6.161  -1.030  0.00  0.00    -0.039 C 
BRANCH  21  25
ATOM     22  C   UNL     1       0.612  -2.029  -1.306  0.00  0.00    -0.010 A 
ATOM     23  C   UNL     1      -0.332  -2.803  -1.895  0.00  0.00    +0.011 A 
ATOM     24  C   UNL     1      -0.197  -4.178  -1.849  0.00  0.00    +0.009 A 
ATOM     25  C   UNL     1       0.876  -4.712  -1.215  0.00  0.00    -0.027 A 
ATOM     26  S   UNL     1       1.743  -3.252  -0.663  0.00  0.00    -0.100 S 
BRANCH  22  27
ATOM     27  C   UNL     1       0.690  -0.527  -1.221  0.00  0.00    +0.045 C 
BRANCH  27  29
ATOM     28  C   UNL     1      -0.059   1.480   0.065  0.00  0.00    +0.007 C 
ATOM     29  C   UNL     1      -0.029  -0.049   0.042  0.00  0.00    -0.012 C 
ATOM     30  C   UNL     1       0.714  -0.563   1.277  0.00  0.00    +0.007 C 
ENDBRANCH  27  29
ENDBRANCH  22  27
ENDBRANCH  21  25
ENDBRANCH  18  21
ENDBRANCH  17  18
ENDBRANCH   1  17
TORSDOF 7
