REMARK  Name = ZINC39029917
REMARK  9 active torsions:
REMARK  status: ('A' for Active; 'I' for Inactive)
REMARK    1  A    between atoms: C_1  and  C_2
REMARK    2  A    between atoms: C_4  and  C_34
REMARK    3  A    between atoms: C_6  and  C_8
REMARK    4  A    between atoms: N_10  and  C_11
REMARK    5  A    between atoms: C_11  and  C_13
REMARK    6  A    between atoms: C_11  and  C_17
REMARK    7  A    between atoms: C_13  and  C_14
REMARK    8  A    between atoms: C_14  and  S_15
REMARK    9  A    between atoms: S_15  and  C_16
REMARK                            x       y       z     vdW  Elec       q    Type
REMARK                         _______ _______ _______ _____ _____    ______ ____
ROOT
ATOM      1  C   UNL     1       0.610  -2.193   6.108  0.00  0.00    +0.236 C 
ATOM      2  O   UNL     1       0.453  -0.992   6.171  0.00  0.00    -0.274 OA
ATOM      3  N   UNL     1       1.252  -2.841   7.100  0.00  0.00    -0.300 N 
ATOM      4  C   UNL     1       1.550  -4.275   6.987  0.00  0.00    +0.106 C 
ATOM      5  C   UNL     1       3.049  -4.486   7.223  0.00  0.00    +0.009 C 
ATOM      6  C   UNL     1       3.445  -3.864   8.563  0.00  0.00    -0.037 C 
ATOM      7  C   UNL     1       3.165  -2.361   8.538  0.00  0.00    +0.009 C 
ATOM      8  C   UNL     1       1.672  -2.125   8.313  0.00  0.00    +0.106 C 
ATOM      9  C   UNL     1       4.932  -4.107   8.823  0.00  0.00    +0.140 C 
ATOM     10  C   UNL     1       5.084  -5.619   8.963  0.00  0.00    +0.042 C 
ATOM     11  N   UNL     1       5.955  -5.968   8.099  0.00  0.00    -0.243 NA
ATOM     12  C   UNL     1       6.347  -4.922   7.331  0.00  0.00    +0.216 C 
ATOM     13  N   UNL     1       5.776  -3.786   7.671  0.00  0.00    -0.264 NA
ATOM     14  C   UNL     1       4.203  -6.415   9.893  0.00  0.00    +0.034 C 
ATOM     15  C   UNL     1       2.761  -5.955   9.608  0.00  0.00    -0.076 C 
ATOM     16  N   UNL     1       2.675  -4.493   9.645  0.00  0.00    +0.385 N 
ATOM     17  H   UNL     1       3.029  -4.166  10.532  0.00  0.00    -0.085 HD
ATOM     18  H   UNL     1       1.707  -4.220   9.560  0.00  0.00    -0.085 HD
ENDROOT
BRANCH   1  19
ATOM     19  C   UNL     1       0.088  -2.960   4.921  0.00  0.00    +0.160 C 
BRANCH  19  22
ATOM     20  C   UNL     1      -0.019  -2.538   2.524  0.00  0.00    +0.245 C 
ATOM     21  O   UNL     1       0.144  -3.728   2.337  0.00  0.00    -0.270 OA
ATOM     22  N   UNL     1      -0.062  -2.053   3.781  0.00  0.00    -0.300 N 
ATOM     23  H   UNL     1      -0.193  -1.104   3.930  0.00  0.00    +0.150 HD
BRANCH  20  29
ATOM     24  C   UNL     1      -0.705   2.069   0.733  0.00  0.00    +0.044 C 
ATOM     25  C   UNL     1      -0.501   0.593   0.506  0.00  0.00    -0.049 A 
ATOM     26  C   UNL     1      -0.457   0.093  -0.783  0.00  0.00    +0.006 A 
ATOM     27  C   UNL     1      -0.270  -1.261  -0.999  0.00  0.00    -0.049 A 
ATOM     28  C   UNL     1      -0.127  -2.121   0.070  0.00  0.00    +0.016 A 
ATOM     29  C   UNL     1      -0.171  -1.622   1.373  0.00  0.00    +0.037 A 
ATOM     30  C   UNL     1      -0.354  -0.255   1.585  0.00  0.00    +0.016 A 
ATOM     31  C   UNL     1      -0.222  -1.798  -2.407  0.00  0.00    +0.044 C 
ENDBRANCH  20  29
ENDBRANCH  19  22
BRANCH  19  32
ATOM     32  C   UNL     1      -1.271  -3.573   5.268  0.00  0.00    +0.042 C 
BRANCH  32  33
ATOM     33  C   UNL     1      -1.730  -4.476   4.121  0.00  0.00    +0.071 C 
BRANCH  33  34
ATOM     34  S   UNL     1      -3.341  -5.202   4.532  0.00  0.00    -0.164 S 
ATOM     35  C   UNL     1      -3.739  -6.230   3.091  0.00  0.00    +0.084 C 
ENDBRANCH  33  34
ENDBRANCH  32  33
ENDBRANCH  19  32
ENDBRANCH   1  19
TORSDOF 6
