REMARK  Name = ZINC15959834
REMARK  4 active torsions:
REMARK  status: ('A' for Active; 'I' for Inactive)
REMARK    1  A    between atoms: C_4  and  C_7
REMARK    2  A    between atoms: C_7  and  N_8
REMARK    3  A    between atoms: C_13  and  C_31
REMARK    4  A    between atoms: C_31  and  C_32
REMARK                            x       y       z     vdW  Elec       q    Type
REMARK                         _______ _______ _______ _____ _____    ______ ____
ROOT
ATOM      1  N   UNL     1       4.152  -0.952   1.338  0.00  0.00    -0.237 N 
ATOM      2  C   UNL     1       4.914  -0.089   2.018  0.00  0.00    +0.227 C 
ATOM      3  O   UNL     1       5.324   0.970   1.593  0.00  0.00    -0.275 OA
ATOM      4  C   UNL     1       5.185  -0.638   3.400  0.00  0.00    +0.107 C 
ATOM      5  C   UNL     1       6.683  -0.987   3.526  0.00  0.00    +0.072 C 
ATOM      6  N   UNL     1       6.796  -2.376   3.007  0.00  0.00    -0.295 NA
ATOM      7  C   UNL     1       5.580  -3.046   3.503  0.00  0.00    +0.136 C 
ATOM      8  C   UNL     1       4.440  -2.002   3.397  0.00  0.00    +0.122 C 
ATOM      9  C   UNL     1       3.820  -2.056   2.018  0.00  0.00    +0.229 C 
ATOM     10  O   UNL     1       3.132  -2.959   1.594  0.00  0.00    -0.275 OA
ATOM     11  C   UNL     1       5.271  -4.286   2.713  0.00  0.00    +0.005 A 
ATOM     12  C   UNL     1       5.009  -4.522   1.382  0.00  0.00    +0.027 A 
ATOM     13  C   UNL     1       4.754  -5.811   0.944  0.00  0.00    +0.041 A 
ATOM     14  C   UNL     1       4.762  -6.859   1.848  0.00  0.00    +0.022 A 
ATOM     15  C   UNL     1       5.023  -6.626   3.182  0.00  0.00    +0.025 A 
ATOM     16  C   UNL     1       5.280  -5.333   3.631  0.00  0.00    +0.039 A 
ATOM     17  N   UNL     1       5.565  -4.851   4.911  0.00  0.00    -0.283 N 
ATOM     18  C   UNL     1       5.752  -3.517   4.921  0.00  0.00    +0.243 C 
ATOM     19  O   UNL     1       6.010  -2.830   5.887  0.00  0.00    -0.273 OA
ATOM     20 CL   UNL     1       4.424  -6.110  -0.734  0.00  0.00    -0.084 Cl
ATOM     21  H   UNL     1       6.828  -2.384   1.999  0.00  0.00    +0.124 HD
ATOM     22  H   UNL     1       5.621  -5.412   5.700  0.00  0.00    +0.155 HD
ENDROOT
BRANCH   1  23
ATOM     23  C   UNL     1       3.711  -0.707  -0.038  0.00  0.00    +0.151 C 
BRANCH  23  27
ATOM     24  C   UNL     1      -0.017   1.378   0.010  0.00  0.00    +0.000 A 
ATOM     25  C   UNL     1       1.171   2.086   0.002  0.00  0.00    +0.000 A 
ATOM     26  C   UNL     1       2.377   1.411  -0.013  0.00  0.00    +0.005 A 
ATOM     27  C   UNL     1       2.396   0.029  -0.020  0.00  0.00    -0.030 A 
ATOM     28  C   UNL     1       1.208  -0.679  -0.012  0.00  0.00    +0.005 A 
ATOM     29  C   UNL     1       0.002  -0.004   0.002  0.00  0.00    +0.000 A 
ENDBRANCH  23  27
ENDBRANCH   1  23
BRANCH   5  30
ATOM     30  C   UNL     1       7.525  -0.030   2.681  0.00  0.00    +0.056 C 
BRANCH  30  31
ATOM     31  C   UNL     1       8.988  -0.309   2.914  0.00  0.00    -0.021 A 
ATOM     32  C   UNL     1       9.791   0.316   3.789  0.00  0.00    +0.087 A 
ATOM     33  N   UNL     1      11.053  -0.206   3.720  0.00  0.00    -0.360 N 
ATOM     34  H   UNL     1      11.807   0.085   4.257  0.00  0.00    +0.165 HD
ATOM     35  C   UNL     1      11.095  -1.206   2.774  0.00  0.00    +0.047 A 
ATOM     36  C   UNL     1       9.802  -1.318   2.232  0.00  0.00    +0.003 A 
ATOM     37  C   UNL     1       9.542  -2.267   1.242  0.00  0.00    +0.010 A 
ATOM     38  C   UNL     1      10.546  -3.085   0.806  0.00  0.00    +0.001 A 
ATOM     39  C   UNL     1      11.823  -2.981   1.340  0.00  0.00    +0.002 A 
ATOM     40  C   UNL     1      12.104  -2.045   2.312  0.00  0.00    +0.026 A 
ENDBRANCH  30  31
ENDBRANCH   5  30
TORSDOF 4
