REMARK  Name = ZINC10997734
REMARK  10 active torsions:
REMARK  status: ('A' for Active; 'I' for Inactive)
REMARK    1  A    between atoms: C_1  and  C_2
REMARK    2  A    between atoms: C_5  and  O_33
REMARK    3  A    between atoms: C_6  and  N_8
REMARK    4  A    between atoms: C_18  and  S_19
REMARK    5  A    between atoms: S_19  and  C_20
REMARK    6  A    between atoms: C_20  and  C_22
REMARK    7  A    between atoms: C_20  and  C_23
REMARK    8  A    between atoms: N_25  and  C_26
REMARK    9  A    between atoms: C_28  and  C_31
REMARK   10  A    between atoms: O_33  and  C_34
REMARK                            x       y       z     vdW  Elec       q    Type
REMARK                         _______ _______ _______ _____ _____    ______ ____
ROOT
ATOM      1  N   UNL     1       6.940   6.737  -1.255  0.00  0.00    -0.252 N 
ATOM      2  C   UNL     1       7.254   8.053  -1.282  0.00  0.00    +0.267 A 
ATOM      3  O   UNL     1       8.321   8.438  -1.724  0.00  0.00    -0.267 OA
ATOM      4  C   UNL     1       6.260   9.000  -0.759  0.00  0.00    +0.065 A 
ATOM      5  C   UNL     1       6.492  10.375  -0.745  0.00  0.00    +0.017 A 
ATOM      6  C   UNL     1       5.537  11.217  -0.248  0.00  0.00    +0.021 A 
ATOM      7  C   UNL     1       4.336  10.718   0.244  0.00  0.00    +0.043 A 
ATOM      8  C   UNL     1       4.081   9.364   0.241  0.00  0.00    +0.048 A 
ATOM      9  C   UNL     1       5.042   8.483  -0.262  0.00  0.00    +0.080 A 
ATOM     10  N   UNL     1       4.833   7.146  -0.289  0.00  0.00    -0.223 NA
ATOM     11  C   UNL     1       5.737   6.320  -0.755  0.00  0.00    +0.178 A 
ATOM     12 CL   UNL     1       3.143  11.814   0.869  0.00  0.00    -0.083 Cl
ENDROOT
BRANCH   1  18
ATOM     13  C   UNL     1       8.688   4.084  -5.008  0.00  0.00    +0.044 C 
ATOM     14  C   UNL     1       8.726   4.490  -3.557  0.00  0.00    -0.048 A 
ATOM     15  C   UNL     1       9.663   3.930  -2.708  0.00  0.00    +0.007 A 
ATOM     16  C   UNL     1       9.701   4.298  -1.377  0.00  0.00    +0.048 A 
ATOM     17  C   UNL     1       8.799   5.229  -0.888  0.00  0.00    +0.144 A 
ATOM     18  C   UNL     1       7.855   5.794  -1.743  0.00  0.00    +0.094 A 
ATOM     19  C   UNL     1       7.819   5.415  -3.077  0.00  0.00    +0.033 A 
BRANCH  17  20
ATOM     20  O   UNL     1       8.836   5.592   0.421  0.00  0.00    -0.493 OA
ATOM     21  C   UNL     1       9.831   4.972   1.238  0.00  0.00    +0.277 C 
ENDBRANCH  17  20
ENDBRANCH   1  18
BRANCH  11  22
ATOM     22  S   UNL     1       5.384   4.594  -0.746  0.00  0.00    -0.075 S 
BRANCH  22  23
ATOM     23  C   UNL     1       3.731   4.615  -0.009  0.00  0.00    +0.137 C 
ATOM     24  C   UNL     1       3.821   5.127   1.430  0.00  0.00    +0.029 C 
BRANCH  23  25
ATOM     25  C   UNL     1       3.162   3.220  -0.011  0.00  0.00    +0.233 C 
ATOM     26  O   UNL     1       3.906   2.262  -0.023  0.00  0.00    -0.274 OA
ATOM     27  N   UNL     1       1.827   3.036   0.001  0.00  0.00    -0.253 N 
ATOM     28  H   UNL     1       1.232   3.803   0.011  0.00  0.00    +0.158 HD
BRANCH  27  29
ATOM     29  C   UNL     1       1.304   1.752  -0.001  0.00  0.00    +0.224 A 
ATOM     30  C   UNL     1      -0.017   1.405   0.010  0.00  0.00    +0.092 A 
ATOM     31  C   UNL     1       0.002  -0.004   0.002  0.00  0.00    +0.082 A 
ATOM     32  N   UNL     1       1.256  -0.358  -0.012  0.00  0.00    -0.081 NA
ATOM     33  O   UNL     1       1.994   0.600  -0.014  0.00  0.00    -0.339 OA
ATOM     34  C   UNL     1      -1.193  -0.922   0.008  0.00  0.00    +0.069 C 
ENDBRANCH  27  29
ENDBRANCH  23  25
ENDBRANCH  22  23
ENDBRANCH  11  22
TORSDOF 6
