REMARK  Name = ZINC23256843
REMARK  7 active torsions:
REMARK  status: ('A' for Active; 'I' for Inactive)
REMARK    1  A    between atoms: C_1  and  C_2
REMARK    2  A    between atoms: C_2  and  C_24
REMARK    3  A    between atoms: N_5  and  C_9
REMARK    4  A    between atoms: C_9  and  N_10
REMARK    5  A    between atoms: N_13  and  C_16
REMARK    6  A    between atoms: C_16  and  C_17
REMARK    7  A    between atoms: C_17  and  C_18
REMARK                            x       y       z     vdW  Elec       q    Type
REMARK                         _______ _______ _______ _____ _____    ______ ____
ROOT
ATOM      1  C   UNL     1      -3.073   4.070  -1.379  0.00  0.00    +0.047 C 
ATOM      2  C   UNL     1      -2.569   3.842   0.047  0.00  0.00    +0.135 C 
ATOM      3  C   UNL     1      -3.580   3.053   0.854  0.00  0.00    +0.252 C 
ATOM      4  O   UNL     1      -3.981   1.931   0.630  0.00  0.00    -0.272 OA
ATOM      5  N   UNL     1      -3.943   3.858   1.872  0.00  0.00    -0.210 N 
ATOM      6  C   UNL     1      -3.307   5.035   1.821  0.00  0.00    +0.311 C 
ATOM      7  O   UNL     1      -3.469   5.926   2.631  0.00  0.00    -0.252 OA
ATOM      8  N   UNL     1      -2.469   5.121   0.772  0.00  0.00    -0.281 N 
ATOM      9  H   UNL     1      -1.793   5.909   0.408  0.00  0.00    +0.152 HD
ENDROOT
BRANCH   2  10
ATOM     10  C   UNL     1      -1.237   3.137   0.031  0.00  0.00    -0.015 A 
ATOM     11  C   UNL     1      -1.198   1.744   0.017  0.00  0.00    +0.007 A 
ATOM     12  C   UNL     1      -0.013   1.076   0.008  0.00  0.00    +0.009 A 
ATOM     13  C   UNL     1       1.193   1.799   0.000  0.00  0.00    -0.018 A 
ATOM     14  C   UNL     1       2.436   1.144  -0.015  0.00  0.00    +0.008 A 
ATOM     15  C   UNL     1       3.583   1.877  -0.022  0.00  0.00    +0.001 A 
ATOM     16  C   UNL     1       3.544   3.270  -0.015  0.00  0.00    +0.001 A 
ATOM     17  C   UNL     1       2.358   3.938   0.000  0.00  0.00    +0.008 A 
ATOM     18  C   UNL     1       1.153   3.215   0.008  0.00  0.00    -0.018 A 
ATOM     19  C   UNL     1      -0.090   3.870   0.023  0.00  0.00    +0.014 A 
ENDBRANCH   2  10
BRANCH   5  20
ATOM     20  C   UNL     1      -4.913   3.492   2.906  0.00  0.00    +0.205 C 
BRANCH  20  21
ATOM     21  N   UNL     1      -6.261   3.889   2.476  0.00  0.00    -0.290 NA
ATOM     22  C   UNL     1      -6.495   5.317   2.731  0.00  0.00    +0.067 C 
ATOM     23  C   UNL     1      -7.876   5.707   2.198  0.00  0.00    -0.063 C 
ATOM     24  N   UNL     1      -8.902   4.883   2.853  0.00  0.00    +0.382 N 
ATOM     25  C   UNL     1      -8.667   3.455   2.598  0.00  0.00    -0.063 C 
ATOM     26  C   UNL     1      -7.286   3.064   3.131  0.00  0.00    +0.067 C 
ATOM     27  H   UNL     1      -8.831   5.051   3.938  0.00  0.00    -0.082 HD
BRANCH  24  28
ATOM     28  C   UNL     1     -10.249   5.280   2.423  0.00  0.00    -0.074 C 
BRANCH  28  29
ATOM     29  C   UNL     1     -10.371   6.805   2.469  0.00  0.00    +0.016 C 
BRANCH  29  30
ATOM     30  C   UNL     1     -11.753   7.212   2.028  0.00  0.00    -0.049 A 
ATOM     31  C   UNL     1     -12.005   7.469   0.694  0.00  0.00    +0.003 A 
ATOM     32  C   UNL     1     -13.274   7.838   0.288  0.00  0.00    +0.000 A 
ATOM     33  C   UNL     1     -14.289   7.960   1.219  0.00  0.00    +0.000 A 
ATOM     34  C   UNL     1     -14.035   7.708   2.554  0.00  0.00    +0.000 A 
ATOM     35  C   UNL     1     -12.768   7.334   2.959  0.00  0.00    +0.003 A 
ENDBRANCH  29  30
ENDBRANCH  28  29
ENDBRANCH  24  28
ENDBRANCH  20  21
ENDBRANCH   5  20
TORSDOF 6
