REMARK  Name = ZINC00959859
REMARK  4 active torsions:
REMARK  status: ('A' for Active; 'I' for Inactive)
REMARK    1  A    between atoms: C_5  and  C_7
REMARK    2  A    between atoms: C_7  and  S_8
REMARK    3  A    between atoms: S_8  and  C_9
REMARK    4  A    between atoms: C_20  and  C_22
REMARK                            x       y       z     vdW  Elec       q    Type
REMARK                         _______ _______ _______ _____ _____    ______ ____
ROOT
ATOM      1  C   UNL     1       1.140  -0.669  -0.018  0.00  0.00    +0.171 A 
ATOM      2  N   UNL     1       2.338  -0.021  -0.031  0.00  0.00    -0.302 N 
ATOM      3  H   UNL     1       3.189  -0.547  -0.048  0.00  0.00    +0.171 HD
ATOM      4  C   UNL     1       2.380   1.327  -0.020  0.00  0.00    +0.258 A 
ATOM      5  O   UNL     1       3.450   1.917  -0.031  0.00  0.00    -0.267 OA
ATOM      6  C   UNL     1       1.175   2.038   0.002  0.00  0.00    +0.069 A 
ATOM      7  C   UNL     1      -0.016   1.333   0.009  0.00  0.00    +0.135 A 
ATOM      8  N   UNL     1       0.002  -0.004   0.002  0.00  0.00    -0.208 NA
ATOM      9  N   UNL     1      -1.216   2.017   0.019  0.00  0.00    -0.302 N 
ATOM     10  C   UNL     1      -1.273   3.330  -0.362  0.00  0.00    +0.017 C 
ATOM     11  C   UNL     1      -0.162   4.096  -0.379  0.00  0.00    +0.024 C 
ATOM     12  C   UNL     1       1.179   3.538   0.023  0.00  0.00    +0.093 C 
ATOM     13  C   UNL     1      -0.221   5.446  -0.770  0.00  0.00    +0.162 C 
ATOM     14  O   UNL     1       0.801   6.104  -0.793  0.00  0.00    -0.292 OA
ATOM     15  C   UNL     1      -1.522   6.091  -1.161  0.00  0.00    +0.080 C 
ATOM     16  C   UNL     1      -2.667   5.385  -0.427  0.00  0.00    +0.014 C 
ATOM     17  C   UNL     1      -2.613   3.894  -0.768  0.00  0.00    +0.051 C 
ATOM     18  H   UNL     1      -2.026   1.563   0.299  0.00  0.00    +0.153 HD
ENDROOT
BRANCH  12  19
ATOM     19  C   UNL     1       1.514   4.011   1.414  0.00  0.00    -0.032 A 
ATOM     20  C   UNL     1       0.703   3.658   2.476  0.00  0.00    +0.008 A 
ATOM     21  C   UNL     1       1.006   4.089   3.754  0.00  0.00    +0.050 A 
ATOM     22  C   UNL     1       2.124   4.876   3.973  0.00  0.00    +0.166 A 
ATOM     23  C   UNL     1       2.942   5.232   2.903  0.00  0.00    +0.167 A 
ATOM     24  C   UNL     1       2.635   4.791   1.626  0.00  0.00    +0.054 A 
ATOM     25  O   UNL     1       3.966   6.001   3.374  0.00  0.00    -0.453 OA
ATOM     26  C   UNL     1       3.543   6.452   4.674  0.00  0.00    +0.466 C 
ATOM     27  O   UNL     1       2.637   5.423   5.114  0.00  0.00    -0.453 OA
ENDBRANCH  12  19
BRANCH   1  28
ATOM     28  S   UNL     1       1.110  -2.430  -0.026  0.00  0.00    -0.083 S 
BRANCH  28  29
ATOM     29  C   UNL     1      -0.677  -2.715  -0.003  0.00  0.00    +0.114 C 
BRANCH  29  34
ATOM     30  C   UNL     1      -1.345  -6.229  -1.209  0.00  0.00    +0.000 A 
ATOM     31  C   UNL     1      -1.453  -6.916  -0.014  0.00  0.00    +0.001 A 
ATOM     32  C   UNL     1      -1.310  -6.244   1.185  0.00  0.00    +0.020 A 
ATOM     33  C   UNL     1      -1.059  -4.883   1.189  0.00  0.00    +0.045 A 
ATOM     34  C   UNL     1      -0.951  -4.197  -0.007  0.00  0.00    -0.019 A 
ATOM     35  C   UNL     1      -1.098  -4.869  -1.205  0.00  0.00    +0.006 A 
ATOM     36 CL   UNL     1      -0.881  -4.038   2.695  0.00  0.00    -0.083 Cl
ENDBRANCH  29  34
ENDBRANCH  28  29
ENDBRANCH   1  28
TORSDOF 4
