REMARK  Name = ZINC03024503
REMARK  8 active torsions:
REMARK  status: ('A' for Active; 'I' for Inactive)
REMARK    1  A    between atoms: C_1  and  C_2
REMARK    2  A    between atoms: C_2  and  C_3
REMARK    3  A    between atoms: C_8  and  N_9
REMARK    4  A    between atoms: C_10  and  C_12
REMARK    5  A    between atoms: C_14  and  S_19
REMARK    6  A    between atoms: S_19  and  N_22
REMARK    7  A    between atoms: N_22  and  C_23
REMARK    8  A    between atoms: C_29  and  C_31
REMARK                            x       y       z     vdW  Elec       q    Type
REMARK                         _______ _______ _______ _____ _____    ______ ____
ROOT
ATOM      1  C   UNL     1       0.885  -1.405   7.082  0.00  0.00    +0.074 A 
ATOM      2  C   UNL     1       0.813  -1.685   5.716  0.00  0.00    +0.044 A 
ATOM      3  C   UNL     1       1.473  -0.879   4.814  0.00  0.00    +0.106 A 
ATOM      4  C   UNL     1       2.211   0.205   5.258  0.00  0.00    +0.031 A 
ATOM      5  C   UNL     1       2.285   0.494   6.608  0.00  0.00    +0.041 A 
ATOM      6  C   UNL     1       1.628  -0.306   7.525  0.00  0.00    +0.136 A 
ATOM      7  F   UNL     1       1.704  -0.026   8.845  0.00  0.00    -0.205 F 
ENDROOT
BRANCH   1   9
ATOM      8  N   UNL     1      -0.533  -3.324   7.624  0.00  0.00    -0.281 N 
ATOM      9  C   UNL     1       0.181  -2.265   8.055  0.00  0.00    +0.251 C 
ATOM     10  O   UNL     1       0.246  -2.019   9.243  0.00  0.00    -0.270 OA
ATOM     11  H   UNL     1      -0.651  -3.475   6.673  0.00  0.00    +0.155 HD
BRANCH   8  17
ATOM     12  C   UNL     1      -2.221  -4.951   8.200  0.00  0.00    -0.026 A 
ATOM     13  C   UNL     1      -2.780  -5.824   9.113  0.00  0.00    +0.005 A 
ATOM     14  C   UNL     1      -2.233  -5.947  10.377  0.00  0.00    +0.000 A 
ATOM     15  C   UNL     1      -1.123  -5.202  10.729  0.00  0.00    +0.002 A 
ATOM     16  C   UNL     1      -0.557  -4.331   9.819  0.00  0.00    +0.023 A 
ATOM     17  C   UNL     1      -1.104  -4.205   8.548  0.00  0.00    +0.037 A 
BRANCH  12  19
ATOM     18  C   UNL     1      -2.084  -5.736   5.851  0.00  0.00    +0.009 C 
ATOM     19  C   UNL     1      -2.821  -4.814   6.824  0.00  0.00    +0.033 C 
ENDBRANCH  12  19
ENDBRANCH   8  17
ENDBRANCH   1   9
BRANCH   3  20
ATOM     20  S   UNL     1       1.383  -1.232   3.090  0.00  0.00    +0.059 S 
ATOM     21  O   UNL     1       1.085  -2.617   2.974  0.00  0.00    -0.153 OA
ATOM     22  O   UNL     1       2.534  -0.648   2.495  0.00  0.00    -0.153 OA
BRANCH  20  23
ATOM     23  N   UNL     1       0.073  -0.415   2.490  0.00  0.00    -0.187 NA
ATOM     24  H   UNL     1      -0.685  -0.906   2.138  0.00  0.00    +0.148 HD
BRANCH  23  25
ATOM     25  C   UNL     1       0.061   1.050   2.493  0.00  0.00    +0.079 C 
ATOM     26  C   UNL     1      -0.660   1.552   3.746  0.00  0.00    +0.020 C 
ATOM     27  C   UNL     1      -0.674   3.082   3.748  0.00  0.00    +0.002 C 
ATOM     28  C   UNL     1      -1.404   3.587   2.503  0.00  0.00    +0.000 C 
ATOM     29  C   UNL     1      -0.684   3.086   1.250  0.00  0.00    +0.005 C 
ATOM     30  C   UNL     1      -0.670   1.556   1.247  0.00  0.00    +0.005 C 
ATOM     31  C   UNL     1       0.051   1.054  -0.005  0.00  0.00    +0.009 C 
ENDBRANCH  23  25
ENDBRANCH  20  23
ENDBRANCH   3  20
TORSDOF 6
