REMARK  Name = ZINC46767669
REMARK  9 active torsions:
REMARK  status: ('A' for Active; 'I' for Inactive)
REMARK    1  A    between atoms: C_1  and  C_2
REMARK    2  A    between atoms: C_3  and  C_33
REMARK    3  A    between atoms: N_4  and  C_27
REMARK    4  A    between atoms: C_5  and  N_9
REMARK    5  A    between atoms: C_6  and  C_7
REMARK    6  A    between atoms: C_10  and  C_12
REMARK    7  A    between atoms: C_12  and  O_13
REMARK    8  A    between atoms: O_13  and  C_14
REMARK    9  A    between atoms: C_14  and  C_16
REMARK                            x       y       z     vdW  Elec       q    Type
REMARK                         _______ _______ _______ _____ _____    ______ ____
ROOT
ATOM      1  N   UNL     1       0.146  -3.337   1.459  0.00  0.00    -0.268 N 
ATOM      2  C   UNL     1      -0.324  -4.501   0.968  0.00  0.00    +0.256 C 
ATOM      3  O   UNL     1      -0.724  -4.559  -0.176  0.00  0.00    -0.272 OA
ATOM      4  H   UNL     1       0.547  -3.310   2.342  0.00  0.00    +0.156 HD
ENDROOT
BRANCH   1   9
ATOM      5  C   UNL     1      -0.751   1.399  -0.061  0.00  0.00    +0.047 C 
ATOM      6  C   UNL     1      -0.333  -0.049  -0.017  0.00  0.00    -0.010 A 
ATOM      7  C   UNL     1       0.221  -0.753  -1.017  0.00  0.00    +0.027 A 
ATOM      8  N   UNL     1       0.458  -2.035  -0.591  0.00  0.00    -0.300 N 
ATOM      9  C   UNL     1       0.059  -2.179   0.702  0.00  0.00    +0.128 A 
ATOM     10  C   UNL     1      -0.446  -0.959   1.130  0.00  0.00    +0.095 A 
ATOM     11  C   UNL     1       0.531  -0.220  -2.392  0.00  0.00    +0.064 C 
BRANCH   8  12
ATOM     12  C   UNL     1       1.029  -3.049  -1.373  0.00  0.00    +0.048 A 
ATOM     13  C   UNL     1       0.335  -3.562  -2.460  0.00  0.00    +0.026 A 
ATOM     14  C   UNL     1       0.899  -4.560  -3.229  0.00  0.00    +0.002 A 
ATOM     15  C   UNL     1       2.154  -5.049  -2.917  0.00  0.00    +0.000 A 
ATOM     16  C   UNL     1       2.848  -4.540  -1.835  0.00  0.00    +0.002 A 
ATOM     17  C   UNL     1       2.291  -3.538  -1.065  0.00  0.00    +0.026 A 
ENDBRANCH   8  12
BRANCH  10  18
ATOM     18  C   UNL     1      -0.973  -0.651   2.425  0.00  0.00    +0.103 C 
ATOM     19  N   UNL     1      -1.391  -0.407   3.453  0.00  0.00    -0.191 NA
ENDBRANCH  10  18
ENDBRANCH   1   9
BRANCH   2  20
ATOM     20  C   UNL     1      -0.355  -5.729   1.840  0.00  0.00    +0.328 C 
BRANCH  20  21
ATOM     21  O   UNL     1      -0.892  -6.827   1.099  0.00  0.00    -0.451 OA
BRANCH  21  22
ATOM     22  C   UNL     1      -0.988  -8.010   1.739  0.00  0.00    +0.358 C 
ATOM     23  O   UNL     1      -0.625  -8.106   2.895  0.00  0.00    -0.243 OA
BRANCH  22  24
ATOM     24  C   UNL     1      -1.530  -9.180   1.040  0.00  0.00    +0.144 A 
ATOM     25  C   UNL     1      -1.683 -10.421   1.578  0.00  0.00    +0.080 A 
ATOM     26  C   UNL     1      -2.236 -11.259   0.579  0.00  0.00    +0.019 A 
ATOM     27  C   UNL     1      -2.603 -12.610   0.553  0.00  0.00    +0.011 A 
ATOM     28  C   UNL     1      -3.123 -13.151  -0.587  0.00  0.00    +0.001 A 
ATOM     29  C   UNL     1      -3.293 -12.373  -1.726  0.00  0.00    +0.002 A 
ATOM     30  C   UNL     1      -2.939 -11.042  -1.725  0.00  0.00    +0.026 A 
ATOM     31  C   UNL     1      -2.406 -10.468  -0.574  0.00  0.00    +0.048 A 
ATOM     32  N   UNL     1      -1.975  -9.198  -0.270  0.00  0.00    -0.348 N 
ATOM     33  H   UNL     1      -1.979  -8.440  -0.876  0.00  0.00    +0.166 HD
ATOM     34 CL   UNL     1      -1.272 -10.892   3.198  0.00  0.00    -0.080 Cl
ENDBRANCH  22  24
ENDBRANCH  21  22
ENDBRANCH  20  21
ENDBRANCH   2  20
TORSDOF 7
