REMARK  Name = ZINC40845722
REMARK  9 active torsions:
REMARK  status: ('A' for Active; 'I' for Inactive)
REMARK    1  A    between atoms: C_1  and  C_2
REMARK    2  A    between atoms: C_4  and  C_24
REMARK    3  A    between atoms: C_6  and  O_8
REMARK    4  A    between atoms: O_8  and  C_9
REMARK    5  A    between atoms: C_9  and  C_11
REMARK    6  A    between atoms: C_9  and  C_12
REMARK    7  A    between atoms: N_14  and  N_15
REMARK    8  A    between atoms: C_16  and  C_17
REMARK    9  A    between atoms: C_20  and  O_23
REMARK                            x       y       z     vdW  Elec       q    Type
REMARK                         _______ _______ _______ _____ _____    ______ ____
ROOT
ATOM      1  C   UNL     1      -0.437  -2.785   4.706  0.00  0.00    +0.273 C 
ATOM      2  O   UNL     1      -0.823  -3.922   4.533  0.00  0.00    -0.270 OA
ATOM      3  N   UNL     1      -0.540  -2.216   5.924  0.00  0.00    -0.204 N 
ATOM      4  H   UNL     1      -0.231  -1.307   6.062  0.00  0.00    +0.177 HD
ENDROOT
BRANCH   1   5
ATOM      5  C   UNL     1       0.157  -2.008   3.560  0.00  0.00    +0.257 C 
ATOM      6  C   UNL     1       1.631  -1.717   3.850  0.00  0.00    +0.062 C 
BRANCH   5   7
ATOM      7  O   UNL     1       0.051  -2.775   2.359  0.00  0.00    -0.480 OA
BRANCH   7  13
ATOM      8  C   UNL     1      -0.422  -2.783  -2.499  0.00  0.00    +0.044 C 
ATOM      9  C   UNL     1      -0.189  -2.057  -1.200  0.00  0.00    -0.047 A 
ATOM     10  C   UNL     1       0.012  -0.689  -1.200  0.00  0.00    +0.007 A 
ATOM     11  C   UNL     1       0.226  -0.019  -0.009  0.00  0.00    -0.047 A 
ATOM     12  C   UNL     1       0.240  -0.715   1.184  0.00  0.00    +0.049 A 
ATOM     13  C   UNL     1       0.038  -2.088   1.187  0.00  0.00    +0.122 A 
ATOM     14  C   UNL     1      -0.182  -2.757  -0.009  0.00  0.00    +0.049 A 
ATOM     15  C   UNL     1       0.445   1.472  -0.013  0.00  0.00    +0.044 C 
ENDBRANCH   7  13
ENDBRANCH   5   7
ENDBRANCH   1   5
BRANCH   3  16
ATOM     16  N   UNL     1      -1.092  -2.938   6.990  0.00  0.00    -0.188 NA
ATOM     17  C   UNL     1      -1.191  -2.391   8.162  0.00  0.00    +0.138 C 
BRANCH  17  18
ATOM     18  C   UNL     1      -1.773  -3.151   9.284  0.00  0.00    -0.005 A 
ATOM     19  C   UNL     1      -2.212  -4.463   9.088  0.00  0.00    +0.013 A 
ATOM     20  C   UNL     1      -2.755  -5.169  10.140  0.00  0.00    +0.046 A 
ATOM     21  C   UNL     1      -2.865  -4.579  11.392  0.00  0.00    +0.117 A 
ATOM     22  C   UNL     1      -2.429  -3.275  11.591  0.00  0.00    +0.046 A 
ATOM     23  C   UNL     1      -1.880  -2.563  10.547  0.00  0.00    +0.013 A 
BRANCH  21  24
ATOM     24  O   UNL     1      -3.400  -5.280  12.426  0.00  0.00    -0.507 OA
ATOM     25  H   UNL     1      -2.752  -5.783  12.937  0.00  0.00    +0.292 HD
ENDBRANCH  21  24
ENDBRANCH  17  18
ENDBRANCH   3  16
TORSDOF 6
