REMARK  Name = ZINC19352289
REMARK  15 active torsions:
REMARK  status: ('A' for Active; 'I' for Inactive)
REMARK    1  A    between atoms: C_1  and  C_2
REMARK    2  A    between atoms: C_2  and  C_3
REMARK    3  A    between atoms: C_2  and  C_4
REMARK    4  A    between atoms: C_7  and  C_10
REMARK    5  A    between atoms: C_10  and  C_11
REMARK    6  A    between atoms: C_11  and  N_12
REMARK    7  A    between atoms: C_13  and  C_15
REMARK    8  A    between atoms: C_15  and  O_16
REMARK    9  A    between atoms: O_16  and  C_17
REMARK   10  A    between atoms: C_17  and  C_19
REMARK   11  A    between atoms: C_19  and  N_20
REMARK   12  A    between atoms: C_26  and  C_29
REMARK   13  A    between atoms: C_29  and  C_30
REMARK   14  A    between atoms: C_29  and  C_31
REMARK   15  A    between atoms: C_29  and  C_32
REMARK                            x       y       z     vdW  Elec       q    Type
REMARK                         _______ _______ _______ _____ _____    ______ ____
ROOT
ATOM      1  C   UNL     1       2.800   7.843  -2.209  0.00  0.00    +0.326 C 
ATOM      2  O   UNL     1       3.481   7.109  -1.532  0.00  0.00    -0.249 OA
ENDROOT
BRANCH   1   3
ATOM      3  O   UNL     1       3.214   9.094  -2.467  0.00  0.00    -0.454 OA
BRANCH   3   4
ATOM      4  C   UNL     1       4.489   9.495  -1.901  0.00  0.00    +0.327 C 
BRANCH   4   6
ATOM      5  N   UNL     1       5.926  11.509  -1.878  0.00  0.00    -0.312 N 
ATOM      6  C   UNL     1       4.787  10.920  -2.293  0.00  0.00    +0.251 C 
ATOM      7  O   UNL     1       4.002  11.535  -2.983  0.00  0.00    -0.272 OA
ATOM      8  H   UNL     1       6.638  10.951  -1.253  0.00  0.00    +0.149 HD
BRANCH   5   9
ATOM      9  C   UNL     1       6.215  12.894  -2.260  0.00  0.00    +0.109 C 
BRANCH   9  10
ATOM     10  C   UNL     1       7.559  13.317  -1.663  0.00  0.00    +0.054 C 
BRANCH  10  14
ATOM     11  C   UNL     1       8.402  17.354  -2.776  0.00  0.00    -0.045 A 
ATOM     12  C   UNL     1       7.706  17.089  -1.612  0.00  0.00    +0.004 A 
ATOM     13  C   UNL     1       7.433  15.783  -1.252  0.00  0.00    +0.004 A 
ATOM     14  C   UNL     1       7.856  14.742  -2.056  0.00  0.00    -0.046 A 
ATOM     15  C   UNL     1       8.557  15.006  -3.218  0.00  0.00    +0.004 A 
ATOM     16  C   UNL     1       8.826  16.312  -3.580  0.00  0.00    +0.004 A 
BRANCH  11  18
ATOM     17  C   UNL     1      10.213  18.977  -3.263  0.00  0.00    +0.012 C 
ATOM     18  C   UNL     1       8.699  18.778  -3.170  0.00  0.00    +0.013 C 
ATOM     19  C   UNL     1       8.061  19.076  -4.528  0.00  0.00    +0.012 C 
ENDBRANCH  11  18
ENDBRANCH  10  14
ENDBRANCH   9  10
ENDBRANCH   5   9
ENDBRANCH   4   6
ENDBRANCH   3   4
ENDBRANCH   1   3
BRANCH   1  20
ATOM     20  C   UNL     1       1.487   7.355  -2.764  0.00  0.00    +0.238 C 
BRANCH  20  21
ATOM     21  N   UNL     1       1.264   5.969  -2.344  0.00  0.00    -0.213 N 
ATOM     22  C   UNL     1       0.627   5.614  -1.209  0.00  0.00    +0.247 C 
ATOM     23  O   UNL     1       0.148   6.352  -0.374  0.00  0.00    -0.273 OA
ATOM     24  C   UNL     1       0.636   4.103  -1.197  0.00  0.00    +0.113 C 
ATOM     25  C   UNL     1       1.395   3.586   0.020  0.00  0.00    +0.035 C 
ATOM     26  C   UNL     1       1.417   2.055  -0.000  0.00  0.00    +0.006 C 
ATOM     27  C   UNL     1      -0.019   1.526   0.010  0.00  0.00    -0.005 C 
ATOM     28  C   UNL     1      -0.759   2.033  -1.229  0.00  0.00    +0.006 C 
ATOM     29  C   UNL     1      -0.790   3.563  -1.213  0.00  0.00    +0.035 C 
ATOM     30  N   UNL     1       1.338   3.740  -2.434  0.00  0.00    -0.285 N 
ATOM     31  C   UNL     1       1.667   4.899  -3.038  0.00  0.00    +0.310 C 
ATOM     32  O   UNL     1       2.264   4.964  -4.095  0.00  0.00    -0.252 OA
ATOM     33  H   UNL     1       1.493   2.682  -2.689  0.00  0.00    +0.151 HD
BRANCH  27  34
ATOM     34  C   UNL     1       0.002  -0.004   0.002  0.00  0.00    -0.035 C 
ATOM     35  C   UNL     1       0.742  -0.511   1.242  0.00  0.00    +0.011 C 
ATOM     36  C   UNL     1      -1.433  -0.534   0.013  0.00  0.00    +0.011 C 
ATOM     37  C   UNL     1       0.718  -0.497  -1.257  0.00  0.00    +0.011 C 
ENDBRANCH  27  34
ENDBRANCH  20  21
ENDBRANCH   1  20
TORSDOF 10
