REMARK  Name = ZINC04821028
REMARK  7 active torsions:
REMARK  status: ('A' for Active; 'I' for Inactive)
REMARK    1  A    between atoms: C_1  and  C_2
REMARK    2  A    between atoms: C_2  and  C_3
REMARK    3  A    between atoms: C_2  and  C_4
REMARK    4  A    between atoms: C_2  and  C_5
REMARK    5  A    between atoms: C_12  and  N_17
REMARK    6  A    between atoms: C_13  and  C_14
REMARK    7  A    between atoms: C_18  and  C_20
REMARK                            x       y       z     vdW  Elec       q    Type
REMARK                         _______ _______ _______ _____ _____    ______ ____
ROOT
ATOM      1  C   UNL     1       9.253  -5.203   0.234  0.00  0.00    -0.000 C 
ATOM      2  C   UNL     1       8.362  -6.130  -0.597  0.00  0.00    +0.009 C 
ATOM      3  C   UNL     1       6.912  -6.022  -0.122  0.00  0.00    +0.037 C 
ATOM      4  C   UNL     1       6.509  -4.553  -0.107  0.00  0.00    -0.023 A 
ATOM      5  C   UNL     1       7.442  -3.576  -0.112  0.00  0.00    -0.004 A 
ATOM      6  S   UNL     1       6.516  -2.067  -0.099  0.00  0.00    -0.077 S 
ATOM      7  C   UNL     1       4.912  -2.722  -0.075  0.00  0.00    +0.085 A 
ATOM      8  C   UNL     1       5.131  -4.093  -0.086  0.00  0.00    +0.068 A 
ATOM      9  C   UNL     1       8.929  -3.747  -0.131  0.00  0.00    +0.046 C 
ENDROOT
BRANCH   8  10
ATOM     10  C   UNL     1       4.013  -5.041  -0.078  0.00  0.00    +0.244 C 
ATOM     11  O   UNL     1       3.535  -5.428  -1.129  0.00  0.00    -0.270 OA
ATOM     12  N   UNL     1       3.514  -5.484   1.093  0.00  0.00    -0.325 N 
ATOM     13  H   UNL     1       3.894  -5.176   1.930  0.00  0.00    +0.145 HD
ATOM     14  H   UNL     1       2.774  -6.112   1.098  0.00  0.00    +0.145 HD
ENDBRANCH   8  10
BRANCH   1  16
ATOM     15  C   UNL     1      11.611  -4.555   0.747  0.00  0.00    +0.011 C 
ATOM     16  C   UNL     1      10.723  -5.494  -0.072  0.00  0.00    -0.035 C 
ATOM     17  C   UNL     1      11.043  -6.945   0.293  0.00  0.00    +0.011 C 
ATOM     18  C   UNL     1      10.987  -5.274  -1.563  0.00  0.00    +0.011 C 
ENDBRANCH   1  16
BRANCH   7  19
ATOM     19  N   UNL     1       3.705  -2.043  -0.056  0.00  0.00    -0.275 N 
ATOM     20  C   UNL     1       3.690  -0.695  -0.047  0.00  0.00    +0.249 C 
ATOM     21  O   UNL     1       4.736  -0.075  -0.057  0.00  0.00    -0.270 OA
ATOM     22  H   UNL     1       2.870  -2.537  -0.049  0.00  0.00    +0.156 HD
BRANCH  20  23
ATOM     23  C   UNL     1       2.404   0.028  -0.027  0.00  0.00    +0.041 A 
ATOM     24  C   UNL     1       1.201  -0.682  -0.016  0.00  0.00    +0.017 A 
ATOM     25  C   UNL     1       0.002  -0.004   0.002  0.00  0.00    +0.050 A 
ATOM     26  C   UNL     1      -0.017   1.386   0.010  0.00  0.00    +0.162 A 
ATOM     27  C   UNL     1       1.179   2.100   0.002  0.00  0.00    +0.163 A 
ATOM     28  C   UNL     1       2.386   1.425  -0.018  0.00  0.00    +0.062 A 
ATOM     29  O   UNL     1       1.177   3.461   0.018  0.00  0.00    -0.485 OA
ATOM     30  C   UNL     1      -0.049   4.107  -0.339  0.00  0.00    +0.270 C 
ATOM     31  C   UNL     1      -1.194   3.412   0.409  0.00  0.00    +0.270 C 
ATOM     32  O   UNL     1      -1.212   2.034   0.019  0.00  0.00    -0.485 OA
ENDBRANCH  20  23
ENDBRANCH   7  19
TORSDOF 4
