REMARK  Name = ZINC11966821
REMARK  8 active torsions:
REMARK  status: ('A' for Active; 'I' for Inactive)
REMARK    1  A    between atoms: C_1  and  O_2
REMARK    2  A    between atoms: O_2  and  C_3
REMARK    3  A    between atoms: C_8  and  C_9
REMARK    4  A    between atoms: C_10  and  C_11
REMARK    5  A    between atoms: C_11  and  N_69
REMARK    6  A    between atoms: C_14  and  C_17
REMARK    7  A    between atoms: C_14  and  O_34
REMARK    8  A    between atoms: C_24  and  C_26
REMARK                            x       y       z     vdW  Elec       q    Type
REMARK                         _______ _______ _______ _____ _____    ______ ____
ROOT
ATOM      1  C   UNL     1       1.438  -1.972  -0.627  0.00  0.00    -0.075 C 
ATOM      2  C   UNL     1       1.392  -0.444  -0.562  0.00  0.00    +0.021 C 
ATOM      3  C   UNL     1       0.011   0.000  -0.070  0.00  0.00    +0.088 C 
ATOM      4  C   UNL     1      -0.263  -0.632   1.297  0.00  0.00    +0.021 C 
ATOM      5  C   UNL     1      -0.168  -2.155   1.178  0.00  0.00    -0.075 C 
ATOM      6  N   UNL     1       1.192  -2.518   0.724  0.00  0.00    +0.382 N 
ATOM      7  H   UNL     1       1.878  -2.118   1.375  0.00  0.00    -0.081 HD
ENDROOT
BRANCH   3   8
ATOM      8  C   UNL     1      -0.021   1.502   0.054  0.00  0.00    -0.015 A 
ATOM      9  C   UNL     1       1.145   2.194   0.353  0.00  0.00    +0.010 A 
ATOM     10  C   UNL     1       1.139   3.567   0.472  0.00  0.00    +0.047 A 
ATOM     11  C   UNL     1      -0.046   4.271   0.290  0.00  0.00    +0.136 A 
ATOM     12  C   UNL     1      -1.225   3.565  -0.013  0.00  0.00    +0.021 A 
ATOM     13  C   UNL     1      -1.195   2.173  -0.134  0.00  0.00    +0.018 A 
ATOM     14  C   UNL     1      -2.272   4.577  -0.140  0.00  0.00    +0.063 A 
ATOM     15  C   UNL     1      -1.670   5.772   0.088  0.00  0.00    +0.191 A 
ATOM     16  O   UNL     1      -0.358   5.581   0.340  0.00  0.00    -0.450 OA
BRANCH  15  17
ATOM     17  C   UNL     1      -2.345   7.078   0.064  0.00  0.00    +0.282 C 
ATOM     18  O   UNL     1      -3.555   7.135  -0.047  0.00  0.00    -0.267 OA
ATOM     19  N   UNL     1      -1.623   8.212   0.166  0.00  0.00    -0.295 N 
ATOM     20  C   UNL     1      -2.289   9.515   0.285  0.00  0.00    +0.108 C 
ATOM     21  C   UNL     1      -1.740  10.233   1.527  0.00  0.00    +0.019 C 
ATOM     22  C   UNL     1      -0.214  10.314   1.429  0.00  0.00    +0.003 C 
ATOM     23  C   UNL     1       0.372   8.901   1.391  0.00  0.00    +0.019 C 
ATOM     24  C   UNL     1      -0.154   8.168   0.153  0.00  0.00    +0.108 C 
ENDBRANCH  15  17
ENDBRANCH   3   8
BRANCH   3  25
ATOM     25  O   UNL     1      -0.986  -0.424  -1.001  0.00  0.00    -0.384 OA
ATOM     26  H   UNL     1      -1.887  -0.178  -0.751  0.00  0.00    +0.211 HD
ENDBRANCH   3  25
BRANCH   6  27
ATOM     27  C   UNL     1       1.344  -3.987   0.710  0.00  0.00    -0.051 C 
BRANCH  27  29
ATOM     28  C   UNL     1      -0.089  -5.506   2.002  0.00  0.00    +0.005 C 
ATOM     29  C   UNL     1       0.830  -4.549   2.010  0.00  0.00    -0.045 C 
BRANCH  28  35
ATOM     30  C   UNL     1      -1.567  -7.062   3.273  0.00  0.00    +0.127 A 
ATOM     31  C   UNL     1      -2.030  -7.576   4.473  0.00  0.00    +0.046 A 
ATOM     32  C   UNL     1      -1.539  -7.089   5.670  0.00  0.00    +0.004 A 
ATOM     33  C   UNL     1      -0.580  -6.091   5.679  0.00  0.00    +0.001 A 
ATOM     34  C   UNL     1      -0.105  -5.573   4.491  0.00  0.00    +0.011 A 
ATOM     35  C   UNL     1      -0.593  -6.057   3.277  0.00  0.00    +0.016 A 
BRANCH  30  37
ATOM     36  C   UNL     1      -3.044  -8.562   2.170  0.00  0.00    +0.277 C 
ATOM     37  O   UNL     1      -2.052  -7.536   2.096  0.00  0.00    -0.495 OA
ENDBRANCH  30  37
ENDBRANCH  28  35
ENDBRANCH  27  29
ENDBRANCH   6  27
TORSDOF 7
