REMARK  Name = ZINC14953734
REMARK  7 active torsions:
REMARK  status: ('A' for Active; 'I' for Inactive)
REMARK    1  A    between atoms: C_1  and  C_2
REMARK    2  A    between atoms: C_7  and  O_8
REMARK    3  A    between atoms: O_8  and  C_9
REMARK    4  A    between atoms: C_9  and  C_11
REMARK    5  A    between atoms: C_9  and  C_12
REMARK    6  A    between atoms: C_21  and  C_23
REMARK    7  A    between atoms: N_28  and  C_31
REMARK                            x       y       z     vdW  Elec       q    Type
REMARK                         _______ _______ _______ _____ _____    ______ ____
ROOT
ATOM      1  C   UNL     1      -9.345  -2.815  -5.819  0.00  0.00    +0.256 C 
ATOM      2  O   UNL     1     -10.203  -2.016  -5.509  0.00  0.00    -0.272 OA
ATOM      3  N   UNL     1      -8.465  -3.250  -4.895  0.00  0.00    -0.298 N 
ATOM      4  C   UNL     1      -8.609  -2.856  -3.488  0.00  0.00    +0.108 C 
ATOM      5  C   UNL     1      -7.316  -2.168  -3.032  0.00  0.00    +0.026 C 
ATOM      6  C   UNL     1      -6.128  -3.068  -3.388  0.00  0.00    -0.015 C 
ATOM      7  C   UNL     1      -6.033  -3.463  -4.865  0.00  0.00    +0.026 C 
ATOM      8  C   UNL     1      -7.351  -4.125  -5.284  0.00  0.00    +0.108 C 
ATOM      9  C   UNL     1      -5.677  -4.094  -2.348  0.00  0.00    +0.021 C 
ATOM     10  C   UNL     1      -4.822  -2.855  -2.624  0.00  0.00    +0.082 C 
ENDROOT
BRANCH  10  11
ATOM     11  C   UNL     1      -4.799  -1.777  -1.571  0.00  0.00    +0.219 C 
ATOM     12  O   UNL     1      -5.181  -2.019  -0.446  0.00  0.00    -0.275 OA
ATOM     13  N   UNL     1      -4.353  -0.543  -1.881  0.00  0.00    -0.298 N 
ATOM     14  C   UNL     1      -4.322   0.524  -0.869  0.00  0.00    +0.126 C 
ATOM     15  C   UNL     1      -5.022   1.760  -1.443  0.00  0.00    +0.125 C 
ATOM     16  N   UNL     1      -4.412   2.109  -2.733  0.00  0.00    -0.314 N 
ATOM     17  C   UNL     1      -4.602   1.038  -3.720  0.00  0.00    +0.125 C 
ATOM     18  C   UNL     1      -3.884  -0.228  -3.239  0.00  0.00    +0.126 C 
BRANCH  16  19
ATOM     19  C   UNL     1      -4.909   3.317  -3.208  0.00  0.00    +0.099 A 
ATOM     20  C   UNL     1      -4.452   3.821  -4.422  0.00  0.00    +0.042 A 
ATOM     21  C   UNL     1      -4.955   5.024  -4.883  0.00  0.00    +0.005 A 
ATOM     22  C   UNL     1      -5.901   5.686  -4.112  0.00  0.00    +0.018 A 
ATOM     23  C   UNL     1      -6.309   5.128  -2.917  0.00  0.00    +0.084 A 
ATOM     24  N   UNL     1      -5.837   3.949  -2.433  0.00  0.00    -0.350 N 
ATOM     25  H   UNL     1      -6.159   3.557  -1.540  0.00  0.00    +0.166 HD
ENDBRANCH  16  19
ENDBRANCH  10  11
BRANCH   1  26
ATOM     26  C   UNL     1      -9.262  -3.321  -7.236  0.00  0.00    +0.256 C 
ATOM     27  C   UNL     1      -9.675  -4.793  -7.277  0.00  0.00    +0.062 C 
BRANCH  26  28
ATOM     28  O   UNL     1     -10.138  -2.556  -8.066  0.00  0.00    -0.480 OA
BRANCH  28  35
ATOM     29  C   UNL     1     -11.730  -0.879  -9.688  0.00  0.00    +0.047 C 
ATOM     30  C   UNL     1     -10.583  -1.688 -10.236  0.00  0.00    -0.007 A 
ATOM     31  C   UNL     1     -10.271  -1.623 -11.581  0.00  0.00    +0.027 A 
ATOM     32  C   UNL     1      -9.222  -2.371 -12.085  0.00  0.00    +0.041 A 
ATOM     33  C   UNL     1      -8.479  -3.180 -11.244  0.00  0.00    +0.023 A 
ATOM     34  C   UNL     1      -8.784  -3.244  -9.898  0.00  0.00    +0.047 A 
ATOM     35  C   UNL     1      -9.836  -2.495  -9.390  0.00  0.00    +0.125 A 
ATOM     36 CL   UNL     1      -8.836  -2.293 -13.776  0.00  0.00    -0.084 Cl
ENDBRANCH  28  35
ENDBRANCH  26  28
ENDBRANCH   1  26
TORSDOF 5
