REMARK  Name = ZINC08799000
REMARK  11 active torsions:
REMARK  status: ('A' for Active; 'I' for Inactive)
REMARK    1  A    between atoms: C_1  and  N_2
REMARK    2  A    between atoms: C_10  and  C_12
REMARK    3  A    between atoms: C_12  and  C_14
REMARK    4  A    between atoms: C_12  and  N_65
REMARK    5  A    between atoms: C_14  and  N_15
REMARK    6  A    between atoms: N_15  and  S_16
REMARK    7  A    between atoms: S_16  and  C_19
REMARK    8  A    between atoms: C_21  and  O_27
REMARK    9  A    between atoms: C_24  and  O_25
REMARK   10  A    between atoms: O_25  and  C_26
REMARK   11  A    between atoms: O_27  and  C_28
REMARK                            x       y       z     vdW  Elec       q    Type
REMARK                         _______ _______ _______ _____ _____    ______ ____
ROOT
ATOM      1  C   UNL     1      -0.594   1.568   2.792  0.00  0.00    -0.022 C 
ENDROOT
BRANCH   1  11
ATOM      2  C   UNL     1       3.950   1.168   7.162  0.00  0.00    +0.129 C 
ATOM      3  N   UNL     1       3.350  -0.024   6.549  0.00  0.00    -0.333 N 
ATOM      4  C   UNL     1       2.892  -0.966   7.572  0.00  0.00    +0.105 C 
ATOM      5  C   UNL     1       2.253  -2.174   6.876  0.00  0.00    +0.024 C 
ATOM      6  C   UNL     1       0.956  -1.704   6.213  0.00  0.00    +0.038 C 
ATOM      7  C   UNL     1       1.211  -0.432   5.446  0.00  0.00    -0.026 A 
ATOM      8  C   UNL     1       2.350   0.329   5.644  0.00  0.00    +0.033 A 
ATOM      9  C   UNL     1       2.526   1.503   4.910  0.00  0.00    +0.023 A 
ATOM     10  C   UNL     1       1.580   1.899   3.989  0.00  0.00    +0.004 A 
ATOM     11  C   UNL     1       0.443   1.136   3.796  0.00  0.00    -0.059 A 
ATOM     12  C   UNL     1       0.263  -0.025   4.521  0.00  0.00    +0.007 A 
ENDBRANCH   1  11
BRANCH   1  17
ATOM     13  C   UNL     1      -1.770   3.491   1.871  0.00  0.00    -0.078 C 
ATOM     14  C   UNL     1      -2.204   4.871   2.426  0.00  0.00    -0.020 C 
ATOM     15  C   UNL     1      -2.218   4.640   3.954  0.00  0.00    -0.020 C 
ATOM     16  C   UNL     1      -1.295   3.429   4.186  0.00  0.00    -0.078 C 
ATOM     17  N   UNL     1      -0.784   3.047   2.869  0.00  0.00    +0.385 N 
ATOM     18  H   UNL     1       0.115   3.512   2.698  0.00  0.00    -0.081 HD
ENDBRANCH   1  17
BRANCH   1  19
ATOM     19  C   UNL     1      -0.135   1.179   1.385  0.00  0.00    +0.095 C 
BRANCH  19  20
ATOM     20  N   UNL     1      -0.056  -0.280   1.282  0.00  0.00    -0.191 NA
ATOM     21  H   UNL     1      -0.050  -0.823   2.086  0.00  0.00    +0.148 HD
BRANCH  20  22
ATOM     22  S   UNL     1       0.021  -1.002  -0.206  0.00  0.00    +0.062 S 
ATOM     23  O   UNL     1       0.114  -2.401   0.026  0.00  0.00    -0.153 OA
ATOM     24  O   UNL     1      -1.015  -0.428  -0.991  0.00  0.00    -0.153 OA
BRANCH  22  25
ATOM     25  C   UNL     1       1.543  -0.512  -0.945  0.00  0.00    +0.150 A 
ATOM     26  C   UNL     1       2.521  -1.453  -1.202  0.00  0.00    +0.077 A 
ATOM     27  C   UNL     1       3.719  -1.067  -1.784  0.00  0.00    +0.122 A 
ATOM     28  C   UNL     1       3.936   0.264  -2.108  0.00  0.00    +0.049 A 
ATOM     29  C   UNL     1       2.958   1.206  -1.851  0.00  0.00    +0.051 A 
ATOM     30  C   UNL     1       1.758   0.818  -1.274  0.00  0.00    +0.147 A 
BRANCH  30  31
ATOM     31  O   UNL     1       0.793   1.744  -1.026  0.00  0.00    -0.493 OA
ATOM     32  C   UNL     1       1.081   3.095  -1.390  0.00  0.00    +0.277 C 
ENDBRANCH  30  31
BRANCH  27  33
ATOM     33  O   UNL     1       4.682  -1.994  -2.037  0.00  0.00    -0.495 OA
ATOM     34  C   UNL     1       5.891  -1.525  -2.638  0.00  0.00    +0.277 C 
ENDBRANCH  27  33
ENDBRANCH  22  25
ENDBRANCH  20  22
ENDBRANCH  19  20
ENDBRANCH   1  19
TORSDOF 8
