REMARK  Name = ZINC09245677
REMARK  9 active torsions:
REMARK  status: ('A' for Active; 'I' for Inactive)
REMARK    1  A    between atoms: C_1  and  C_2
REMARK    2  A    between atoms: C_5  and  S_8
REMARK    3  A    between atoms: S_8  and  N_11
REMARK    4  A    between atoms: N_11  and  C_12
REMARK    5  A    between atoms: C_15  and  N_18
REMARK    6  A    between atoms: N_18  and  C_19
REMARK    7  A    between atoms: C_19  and  C_21
REMARK    8  A    between atoms: C_19  and  C_22
REMARK    9  A    between atoms: N_24  and  C_25
REMARK                            x       y       z     vdW  Elec       q    Type
REMARK                         _______ _______ _______ _____ _____    ______ ____
ROOT
ATOM      1  C   UNL     1       0.622  -0.785   1.103  0.00  0.00    +0.048 A 
ATOM      2  C   UNL     1       1.836  -0.321   1.593  0.00  0.00    +0.026 A 
ATOM      3  C   UNL     1       2.437  -0.955   2.662  0.00  0.00    +0.025 A 
ATOM      4  C   UNL     1       1.832  -2.062   3.242  0.00  0.00    +0.028 A 
ATOM      5  C   UNL     1       0.621  -2.530   2.749  0.00  0.00    +0.025 A 
ATOM      6  C   UNL     1       0.018  -1.893   1.682  0.00  0.00    +0.026 A 
ENDROOT
BRANCH   1   7
ATOM      7  N   UNL     1       0.011  -0.140   0.021  0.00  0.00    -0.216 N 
ATOM      8  H   UNL     1       0.362  -0.258  -0.875  0.00  0.00    +0.174 HD
BRANCH   7   9
ATOM      9  S   UNL     1      -1.311   0.825   0.272  0.00  0.00    +0.072 S 
ATOM     10  O   UNL     1      -1.653   1.382  -0.989  0.00  0.00    -0.150 OA
ATOM     11  O   UNL     1      -2.230   0.062   1.042  0.00  0.00    -0.150 OA
BRANCH   9  16
ATOM     12  C   UNL     1       0.466   5.416   3.761  0.00  0.00    +0.044 C 
ATOM     13  C   UNL     1       0.022   4.269   2.890  0.00  0.00    -0.050 A 
ATOM     14  C   UNL     1       0.003   4.413   1.515  0.00  0.00    +0.005 A 
ATOM     15  C   UNL     1      -0.404   3.361   0.716  0.00  0.00    +0.029 A 
ATOM     16  C   UNL     1      -0.792   2.165   1.291  0.00  0.00    +0.109 A 
ATOM     17  C   UNL     1      -0.778   2.023   2.666  0.00  0.00    +0.029 A 
ATOM     18  C   UNL     1      -0.366   3.074   3.465  0.00  0.00    +0.005 A 
ENDBRANCH   9  16
ENDBRANCH   7   9
ENDBRANCH   1   7
BRANCH   4  19
ATOM     19  N   UNL     1       2.443  -2.708   4.324  0.00  0.00    -0.333 N 
ATOM     20  H   UNL     1       2.021  -3.481   4.729  0.00  0.00    +0.147 HD
BRANCH  19  21
ATOM     21  C   UNL     1       3.721  -2.215   4.844  0.00  0.00    +0.154 C 
ATOM     22  C   UNL     1       3.463  -1.091   5.849  0.00  0.00    +0.038 C 
BRANCH  21  23
ATOM     23  C   UNL     1       4.454  -3.341   5.526  0.00  0.00    +0.237 C 
ATOM     24  O   UNL     1       3.958  -4.447   5.574  0.00  0.00    -0.273 OA
ATOM     25  N   UNL     1       5.661  -3.119   6.084  0.00  0.00    -0.284 N 
ATOM     26  H   UNL     1       6.088  -2.254   5.988  0.00  0.00    +0.155 HD
BRANCH  25  27
ATOM     27  C   UNL     1       6.297  -4.138   6.803  0.00  0.00    +0.034 A 
ATOM     28  C   UNL     1       7.065  -3.828   7.918  0.00  0.00    +0.024 A 
ATOM     29  C   UNL     1       7.686  -4.835   8.629  0.00  0.00    +0.017 A 
ATOM     30  C   UNL     1       7.555  -6.152   8.224  0.00  0.00    +0.018 A 
ATOM     31  C   UNL     1       6.796  -6.463   7.110  0.00  0.00    +0.017 A 
ATOM     32  C   UNL     1       6.167  -5.460   6.399  0.00  0.00    +0.024 A 
ATOM     33 BR   UNL     1       8.414  -7.528   9.195  0.00  0.00    -0.050 Br
ENDBRANCH  25  27
ENDBRANCH  21  23
ENDBRANCH  19  21
ENDBRANCH   4  19
TORSDOF 7
