REMARK  Name = ZINC22472903
REMARK  7 active torsions:
REMARK  status: ('A' for Active; 'I' for Inactive)
REMARK    1  A    between atoms: C_1  and  N_2
REMARK    2  A    between atoms: N_2  and  C_3
REMARK    3  A    between atoms: C_3  and  C_4
REMARK    4  A    between atoms: C_4  and  C_5
REMARK    5  A    between atoms: C_5  and  N_6
REMARK    6  A    between atoms: C_9  and  O_10
REMARK    7  A    between atoms: C_18  and  C_20
REMARK                            x       y       z     vdW  Elec       q    Type
REMARK                         _______ _______ _______ _____ _____    ______ ____
ROOT
ATOM      1  N   UNL     1      -1.277   2.842  -0.244  0.00  0.00    -0.384 N 
ATOM      2  C   UNL     1      -0.018   2.334  -0.475  0.00  0.00    +0.053 A 
ATOM      3  C   UNL     1       0.163   1.014  -0.801  0.00  0.00    +0.113 A 
ATOM      4  C   UNL     1       1.455   0.528  -1.036  0.00  0.00    +0.286 A 
ATOM      5  O   UNL     1       2.537   1.319  -0.953  0.00  0.00    -0.425 OA
ATOM      6  C   UNL     1       2.436   2.629  -0.637  0.00  0.00    +0.141 A 
ATOM      7  C   UNL     1       1.175   3.193  -0.387  0.00  0.00    +0.041 A 
ATOM      8  C   UNL     1       1.067   4.545  -0.061  0.00  0.00    +0.013 A 
ATOM      9  C   UNL     1       2.203   5.321   0.013  0.00  0.00    +0.001 A 
ATOM     10  C   UNL     1       3.448   4.764  -0.235  0.00  0.00    +0.004 A 
ATOM     11  C   UNL     1       3.569   3.428  -0.557  0.00  0.00    +0.047 A 
ATOM     12  H   UNL     1      -1.402   3.903   0.016  0.00  0.00    +0.160 HD
ENDROOT
BRANCH   4  13
ATOM     13  O   UNL     1       1.602  -0.647  -1.325  0.00  0.00    -0.480 OA
ATOM     14  H   UNL     1       2.610  -1.045  -1.513  0.00  0.00    +0.295 HD
ENDBRANCH   4  13
BRANCH   1  15
ATOM     15  C   UNL     1      -2.449   1.969  -0.344  0.00  0.00    +0.114 C 
BRANCH  15  16
ATOM     16  C   UNL     1      -3.713   2.776  -0.042  0.00  0.00    +0.040 C 
BRANCH  16  17
ATOM     17  C   UNL     1      -4.937   1.864  -0.146  0.00  0.00    +0.109 C 
BRANCH  17  19
ATOM     18  C   UNL     1      -6.863   3.311  -0.943  0.00  0.00    +0.132 C 
ATOM     19  N   UNL     1      -6.148   2.636   0.143  0.00  0.00    -0.298 N 
ATOM     20  C   UNL     1      -6.604   2.726   1.409  0.00  0.00    +0.282 C 
ATOM     21  O   UNL     1      -5.958   2.249   2.323  0.00  0.00    -0.267 OA
BRANCH  20  22
ATOM     22  C   UNL     1      -7.877   3.399   1.683  0.00  0.00    +0.191 A 
ATOM     23  C   UNL     1      -8.394   3.664   2.919  0.00  0.00    +0.056 A 
ATOM     24  C   UNL     1      -9.619   4.315   2.712  0.00  0.00    +0.058 A 
ATOM     25  C   UNL     1      -9.795   4.418   1.375  0.00  0.00    +0.171 A 
ATOM     26  O   UNL     1      -8.740   3.870   0.758  0.00  0.00    -0.444 OA
ATOM     27 BR   UNL     1     -11.281   5.213   0.517  0.00  0.00    -0.008 Br
ENDBRANCH  20  22
ENDBRANCH  17  19
ENDBRANCH  16  17
ENDBRANCH  15  16
ENDBRANCH   1  15
TORSDOF 6
