REMARK  Name = ZINC20032855
REMARK  8 active torsions:
REMARK  status: ('A' for Active; 'I' for Inactive)
REMARK    1  A    between atoms: C_1  and  C_2
REMARK    2  A    between atoms: C_5  and  N_8
REMARK    3  A    between atoms: N_8  and  S_9
REMARK    4  A    between atoms: S_9  and  C_12
REMARK    5  A    between atoms: C_20  and  S_25
REMARK    6  A    between atoms: S_25  and  N_28
REMARK    7  A    between atoms: N_28  and  C_29
REMARK    8  A    between atoms: C_32  and  C_35
REMARK                            x       y       z     vdW  Elec       q    Type
REMARK                         _______ _______ _______ _____ _____    ______ ____
ROOT
ATOM      1  C   UNL     1      -2.938   1.736   0.962  0.00  0.00    +0.109 A 
ATOM      2  C   UNL     1      -2.852   2.821   1.821  0.00  0.00    +0.032 A 
ATOM      3  C   UNL     1      -3.169   2.687   3.156  0.00  0.00    +0.049 A 
ATOM      4  C   UNL     1      -3.580   1.456   3.654  0.00  0.00    +0.136 A 
ATOM      5  C   UNL     1      -3.666   0.361   2.784  0.00  0.00    +0.030 A 
ATOM      6  C   UNL     1      -3.350   0.508   1.438  0.00  0.00    +0.041 A 
ATOM      7  C   UNL     1      -4.123  -0.772   3.612  0.00  0.00    +0.030 A 
ATOM      8  C   UNL     1      -4.399  -2.110   3.352  0.00  0.00    +0.041 A 
ATOM      9  C   UNL     1      -4.820  -2.933   4.375  0.00  0.00    +0.109 A 
ATOM     10  C   UNL     1      -4.969  -2.428   5.658  0.00  0.00    +0.032 A 
ATOM     11  C   UNL     1      -4.698  -1.103   5.926  0.00  0.00    +0.049 A 
ATOM     12  C   UNL     1      -4.272  -0.259   4.908  0.00  0.00    +0.136 A 
ATOM     13  O   UNL     1      -3.944   1.052   4.891  0.00  0.00    -0.455 OA
ENDROOT
BRANCH   1  14
ATOM     14  S   UNL     1      -2.530   1.927  -0.741  0.00  0.00    +0.072 S 
ATOM     15  O   UNL     1      -2.597   3.319  -1.021  0.00  0.00    -0.150 OA
ATOM     16  O   UNL     1      -3.299   0.969  -1.453  0.00  0.00    -0.150 OA
BRANCH  14  17
ATOM     17  N   UNL     1      -0.943   1.486  -0.916  0.00  0.00    -0.216 N 
ATOM     18  H   UNL     1      -0.193   2.236  -1.207  0.00  0.00    +0.174 HD
BRANCH  17  23
ATOM     19  C   UNL     1       0.621  -3.890  -0.016  0.00  0.00    +0.044 C 
ATOM     20  C   UNL     1       0.205  -2.461  -0.255  0.00  0.00    -0.050 A 
ATOM     21  C   UNL     1      -0.471  -2.124  -1.413  0.00  0.00    +0.005 A 
ATOM     22  C   UNL     1      -0.853  -0.816  -1.636  0.00  0.00    +0.025 A 
ATOM     23  C   UNL     1      -0.558   0.162  -0.694  0.00  0.00    +0.048 A 
ATOM     24  C   UNL     1       0.126  -0.179   0.466  0.00  0.00    +0.025 A 
ATOM     25  C   UNL     1       0.501  -1.490   0.684  0.00  0.00    +0.005 A 
ENDBRANCH  17  23
ENDBRANCH  14  17
ENDBRANCH   1  14
BRANCH   9  26
ATOM     26  S   UNL     1      -5.170  -4.629   4.052  0.00  0.00    +0.072 S 
ATOM     27  O   UNL     1      -4.513  -4.955   2.835  0.00  0.00    -0.150 OA
ATOM     28  O   UNL     1      -4.925  -5.332   5.262  0.00  0.00    -0.150 OA
BRANCH  26  29
ATOM     29  N   UNL     1      -6.796  -4.747   3.758  0.00  0.00    -0.216 N 
ATOM     30  H   UNL     1      -7.153  -5.099   2.779  0.00  0.00    +0.174 HD
BRANCH  29  31
ATOM     31  C   UNL     1      -7.712  -4.398   4.752  0.00  0.00    +0.048 A 
ATOM     32  C   UNL     1      -7.535  -4.852   6.053  0.00  0.00    +0.025 A 
ATOM     33  C   UNL     1      -8.441  -4.501   7.034  0.00  0.00    +0.005 A 
ATOM     34  C   UNL     1      -9.529  -3.707   6.721  0.00  0.00    -0.050 A 
ATOM     35  C   UNL     1      -9.711  -3.257   5.427  0.00  0.00    +0.005 A 
ATOM     36  C   UNL     1      -8.806  -3.600   4.441  0.00  0.00    +0.025 A 
ATOM     37  C   UNL     1     -10.518  -3.330   7.794  0.00  0.00    +0.044 C 
ENDBRANCH  29  31
ENDBRANCH  26  29
ENDBRANCH   9  26
TORSDOF 6
