REMARK  Name = ZINC14514700
REMARK  12 active torsions:
REMARK  status: ('A' for Active; 'I' for Inactive)
REMARK    1  A    between atoms: C_1  and  N_63
REMARK    2  A    between atoms: C_2  and  N_63
REMARK    3  A    between atoms: C_3  and  C_5
REMARK    4  A    between atoms: C_3  and  C_27
REMARK    5  A    between atoms: C_3  and  N_63
REMARK    6  A    between atoms: C_5  and  N_6
REMARK    7  A    between atoms: C_7  and  C_9
REMARK    8  A    between atoms: C_9  and  C_10
REMARK    9  A    between atoms: C_10  and  C_11
REMARK   10  A    between atoms: C_11  and  N_12
REMARK   11  A    between atoms: C_32  and  O_33
REMARK   12  A    between atoms: O_33  and  C_34
REMARK                            x       y       z     vdW  Elec       q    Type
REMARK                         _______ _______ _______ _____ _____    ______ ____
ROOT
ATOM      1  N   UNL     1       1.100   3.663   0.419  0.00  0.00    -0.317 N 
ATOM      2  C   UNL     1       0.577   2.466   0.750  0.00  0.00    +0.213 C 
ATOM      3  O   UNL     1       1.308   1.554   1.074  0.00  0.00    -0.276 OA
ATOM      4  H   UNL     1       0.516   4.393   0.160  0.00  0.00    +0.149 HD
ENDROOT
BRANCH   1   5
ATOM      5  C   UNL     1       2.551   3.862   0.449  0.00  0.00    +0.093 C 
BRANCH   5   6
ATOM      6  C   UNL     1       2.878   5.298   0.033  0.00  0.00    -0.017 C 
BRANCH   6   7
ATOM      7  C   UNL     1       4.373   5.468  -0.055  0.00  0.00    -0.018 A 
ATOM      8  C   UNL     1       5.180   4.373  -0.299  0.00  0.00    +0.005 A 
ATOM      9  C   UNL     1       6.551   4.528  -0.379  0.00  0.00    +0.000 A 
ATOM     10  C   UNL     1       7.119   5.778  -0.215  0.00  0.00    +0.004 A 
ATOM     11  C   UNL     1       6.317   6.876   0.029  0.00  0.00    +0.046 A 
ATOM     12  C   UNL     1       4.939   6.724   0.104  0.00  0.00    +0.122 A 
BRANCH  12  13
ATOM     13  O   UNL     1       4.147   7.803   0.339  0.00  0.00    -0.495 OA
ATOM     14  C   UNL     1       4.799   9.065   0.493  0.00  0.00    +0.277 C 
ENDBRANCH  12  13
ENDBRANCH   6   7
BRANCH   6  17
ATOM     15  C   UNL     1       2.359   7.007  -1.602  0.00  0.00    -0.096 C 
ATOM     16  C   UNL     1       2.902   4.762  -2.328  0.00  0.00    -0.096 C 
ATOM     17  N   UNL     1       2.249   5.569  -1.277  0.00  0.00    +0.382 N 
ATOM     18  H   UNL     1       1.256   5.313  -1.229  0.00  0.00    -0.082 HD
ENDBRANCH   6  17
ENDBRANCH   5   6
ENDBRANCH   1   5
BRANCH   2  19
ATOM     19  C   UNL     1      -0.916   2.262   0.719  0.00  0.00    +0.097 C 
BRANCH  19  20
ATOM     20  C   UNL     1      -1.243   0.826   1.135  0.00  0.00    +0.029 C 
BRANCH  20  21
ATOM     21  C   UNL     1      -2.758   0.619   1.103  0.00  0.00    +0.117 C 
BRANCH  21  22
ATOM     22  N   UNL     1      -3.071  -0.756   1.502  0.00  0.00    -0.234 N 
ATOM     23  C   UNL     1      -3.144  -1.706   0.551  0.00  0.00    +0.254 C 
ATOM     24  O   UNL     1      -2.951  -1.413  -0.613  0.00  0.00    -0.270 OA
ATOM     25  C   UNL     1      -3.451  -3.098   0.913  0.00  0.00    +0.046 A 
ATOM     26  C   UNL     1      -3.532  -4.109  -0.033  0.00  0.00    +0.014 A 
ATOM     27  C   UNL     1      -3.830  -5.409   0.358  0.00  0.00    +0.001 A 
ATOM     28  C   UNL     1      -4.051  -5.730   1.667  0.00  0.00    +0.008 A 
ATOM     29  C   UNL     1      -3.978  -4.735   2.657  0.00  0.00    -0.016 A 
ATOM     30  C   UNL     1      -3.676  -3.411   2.273  0.00  0.00    +0.006 A 
ATOM     31  C   UNL     1      -3.597  -2.388   3.245  0.00  0.00    +0.046 A 
ATOM     32  C   UNL     1      -3.820  -2.705   4.577  0.00  0.00    +0.014 A 
ATOM     33  C   UNL     1      -4.116  -4.013   4.942  0.00  0.00    +0.001 A 
ATOM     34  C   UNL     1      -4.197  -5.014   4.017  0.00  0.00    +0.008 A 
ATOM     35  C   UNL     1      -3.280  -1.021   2.806  0.00  0.00    +0.254 C 
ATOM     36  O   UNL     1      -3.207  -0.125   3.624  0.00  0.00    -0.270 OA
ENDBRANCH  21  22
ENDBRANCH  20  21
ENDBRANCH  19  20
ENDBRANCH   2  19
TORSDOF 9
