REMARK  Name = ZINC08110423
REMARK  12 active torsions:
REMARK  status: ('A' for Active; 'I' for Inactive)
REMARK    1  A    between atoms: C_1  and  C_2
REMARK    2  A    between atoms: C_7  and  O_8
REMARK    3  A    between atoms: O_8  and  C_9
REMARK    4  A    between atoms: C_9  and  C_10
REMARK    5  A    between atoms: N_12  and  N_13
REMARK    6  A    between atoms: C_14  and  C_16
REMARK    7  A    between atoms: C_16  and  C_18
REMARK    8  A    between atoms: C_16  and  O_19
REMARK    9  A    between atoms: O_19  and  C_20
REMARK   10  A    between atoms: C_23  and  C_26
REMARK   11  A    between atoms: C_26  and  C_27
REMARK   12  A    between atoms: C_26  and  C_28
REMARK                            x       y       z     vdW  Elec       q    Type
REMARK                         _______ _______ _______ _____ _____    ______ ____
ROOT
ATOM      1  N   UNL     1      -4.028   5.913   0.343  0.00  0.00    -0.231 N 
ATOM      2  C   UNL     1      -4.241   7.243   0.311  0.00  0.00    +0.270 C 
ATOM      3  O   UNL     1      -3.317   8.010   0.481  0.00  0.00    -0.270 OA
ATOM      4  H   UNL     1      -4.767   5.300   0.207  0.00  0.00    +0.173 HD
ENDROOT
BRANCH   1   7
ATOM      5  C   UNL     1      -2.525   4.085   0.604  0.00  0.00    +0.267 C 
ATOM      6  O   UNL     1      -3.449   3.318   0.434  0.00  0.00    -0.271 OA
ATOM      7  N   UNL     1      -2.738   5.416   0.572  0.00  0.00    -0.231 N 
ATOM      8  H   UNL     1      -1.999   6.029   0.708  0.00  0.00    +0.173 HD
BRANCH   5   9
ATOM      9  C   UNL     1      -1.138   3.550   0.851  0.00  0.00    +0.326 C 
BRANCH   9  10
ATOM     10  O   UNL     1      -1.169   2.122   0.838  0.00  0.00    -0.482 OA
BRANCH  10  17
ATOM     11  C   UNL     1      -1.210  -0.703   0.823  0.00  0.00    +0.047 C 
ATOM     12  C   UNL     1       0.052   0.091   1.048  0.00  0.00    -0.009 A 
ATOM     13  C   UNL     1       1.252  -0.562   1.254  0.00  0.00    +0.007 A 
ATOM     14  C   UNL     1       2.409   0.165   1.459  0.00  0.00    +0.000 A 
ATOM     15  C   UNL     1       2.370   1.547   1.458  0.00  0.00    +0.004 A 
ATOM     16  C   UNL     1       1.172   2.205   1.253  0.00  0.00    +0.046 A 
ATOM     17  C   UNL     1       0.009   1.477   1.046  0.00  0.00    +0.124 A 
ENDBRANCH  10  17
ENDBRANCH   9  10
ENDBRANCH   5   9
ENDBRANCH   1   7
BRANCH   2  18
ATOM     18  C   UNL     1      -5.628   7.778   0.065  0.00  0.00    +0.257 C 
ATOM     19  C   UNL     1      -6.542   7.383   1.227  0.00  0.00    +0.062 C 
BRANCH  18  20
ATOM     20  O   UNL     1      -5.578   9.203  -0.039  0.00  0.00    -0.480 OA
BRANCH  20  21
ATOM     21  C   UNL     1      -6.571   9.805  -0.745  0.00  0.00    +0.122 A 
ATOM     22  C   UNL     1      -7.629   9.054  -1.236  0.00  0.00    +0.046 A 
ATOM     23  C   UNL     1      -8.640   9.670  -1.948  0.00  0.00    +0.007 A 
ATOM     24  C   UNL     1      -8.592  11.032  -2.181  0.00  0.00    -0.045 A 
ATOM     25  C   UNL     1      -7.536  11.782  -1.698  0.00  0.00    +0.007 A 
ATOM     26  C   UNL     1      -6.526  11.172  -0.980  0.00  0.00    +0.046 A 
BRANCH  24  27
ATOM     27  C   UNL     1      -9.693  11.700  -2.964  0.00  0.00    +0.013 C 
ATOM     28  C   UNL     1      -9.768  11.088  -4.364  0.00  0.00    +0.012 C 
ATOM     29  C   UNL     1     -11.028  11.494  -2.245  0.00  0.00    +0.012 C 
ENDBRANCH  24  27
ENDBRANCH  20  21
ENDBRANCH  18  20
ENDBRANCH   2  18
TORSDOF 8
