REMARK  Name = ZINC01917372
REMARK  7 active torsions:
REMARK  status: ('A' for Active; 'I' for Inactive)
REMARK    1  A    between atoms: C_4  and  C_7
REMARK    2  A    between atoms: C_10  and  O_13
REMARK    3  A    between atoms: O_13  and  C_14
REMARK    4  A    between atoms: C_19  and  O_25
REMARK    5  A    between atoms: O_25  and  C_26
REMARK    6  A    between atoms: C_26  and  C_27
REMARK    7  A    between atoms: N_29  and  C_30
REMARK                            x       y       z     vdW  Elec       q    Type
REMARK                         _______ _______ _______ _____ _____    ______ ____
ROOT
ATOM      1  C   UNL     1      -1.323   6.143   0.158  0.00  0.00    +0.210 A 
ATOM      2  C   UNL     1      -2.399   5.332   0.207  0.00  0.00    +0.245 A 
ATOM      3  O   UNL     1      -3.655   5.795   0.214  0.00  0.00    -0.459 OA
ATOM      4  C   UNL     1      -3.940   7.113   0.172  0.00  0.00    +0.142 A 
ATOM      5  C   UNL     1      -5.254   7.559   0.179  0.00  0.00    +0.092 A 
ATOM      6  C   UNL     1      -5.518   8.918   0.135  0.00  0.00    +0.125 A 
ATOM      7  C   UNL     1      -4.476   9.841   0.082  0.00  0.00    +0.046 A 
ATOM      8  C   UNL     1      -3.178   9.418   0.074  0.00  0.00    +0.019 A 
ATOM      9  C   UNL     1      -2.895   8.052   0.119  0.00  0.00    +0.068 A 
ATOM     10  C   UNL     1      -1.508   7.554   0.116  0.00  0.00    +0.234 A 
ATOM     11  O   UNL     1      -0.559   8.318   0.076  0.00  0.00    -0.283 OA
ENDROOT
BRANCH   1  12
ATOM     12  O   UNL     1      -0.068   5.616   0.153  0.00  0.00    -0.449 OA
BRANCH  12  16
ATOM     13  C   UNL     1       1.814   5.062   3.786  0.00  0.00    -0.018 A 
ATOM     14  C   UNL     1       0.570   5.689   3.733  0.00  0.00    +0.012 A 
ATOM     15  C   UNL     1      -0.054   5.878   2.517  0.00  0.00    +0.047 A 
ATOM     16  C   UNL     1       0.551   5.434   1.349  0.00  0.00    +0.129 A 
ATOM     17  C   UNL     1       1.788   4.804   1.400  0.00  0.00    +0.047 A 
ATOM     18  C   UNL     1       2.419   4.617   2.612  0.00  0.00    +0.012 A 
BRANCH  13  22
ATOM     19  C   UNL     1       3.750   4.488   7.528  0.00  0.00    +0.000 A 
ATOM     20  C   UNL     1       2.519   5.117   7.479  0.00  0.00    +0.001 A 
ATOM     21  C   UNL     1       1.886   5.306   6.267  0.00  0.00    +0.008 A 
ATOM     22  C   UNL     1       2.490   4.862   5.092  0.00  0.00    -0.018 A 
ATOM     23  C   UNL     1       3.728   4.225   5.148  0.00  0.00    +0.008 A 
ATOM     24  C   UNL     1       4.354   4.045   6.365  0.00  0.00    +0.001 A 
ENDBRANCH  13  22
ENDBRANCH  12  16
ENDBRANCH   1  12
BRANCH   6  25
ATOM     25  O   UNL     1      -6.804   9.354   0.142  0.00  0.00    -0.483 OA
BRANCH  25  26
ATOM     26  C   UNL     1      -7.009  10.767   0.093  0.00  0.00    +0.324 C 
BRANCH  26  27
ATOM     27  C   UNL     1      -8.487  11.060   0.109  0.00  0.00    +0.255 C 
ATOM     28  O   UNL     1      -9.286  10.149   0.157  0.00  0.00    -0.272 OA
ATOM     29  N   UNL     1      -8.922  12.336   0.070  0.00  0.00    -0.280 N 
ATOM     30  H   UNL     1      -8.289  13.060  -0.054  0.00  0.00    +0.155 HD
BRANCH  29  31
ATOM     31  C   UNL     1     -10.287  12.615   0.209  0.00  0.00    +0.069 A 
ATOM     32  C   UNL     1     -11.116  11.722   0.874  0.00  0.00    +0.026 A 
ATOM     33  C   UNL     1     -12.461  12.002   1.014  0.00  0.00    +0.002 A 
ATOM     34  C   UNL     1     -12.986  13.166   0.483  0.00  0.00    +0.003 A 
ATOM     35  C   UNL     1     -12.166  14.056  -0.185  0.00  0.00    +0.040 A 
ATOM     36  C   UNL     1     -10.817  13.785  -0.324  0.00  0.00    +0.144 A 
ATOM     37  F   UNL     1     -10.016  14.654  -0.978  0.00  0.00    -0.204 F 
ENDBRANCH  29  31
ENDBRANCH  26  27
ENDBRANCH  25  26
ENDBRANCH   6  25
TORSDOF 7
