REMARK  Name = ZINC12127504
REMARK  9 active torsions:
REMARK  status: ('A' for Active; 'I' for Inactive)
REMARK    1  A    between atoms: C_1  and  C_2
REMARK    2  A    between atoms: C_2  and  C_3
REMARK    3  A    between atoms: C_3  and  C_18
REMARK    4  A    between atoms: N_6  and  C_10
REMARK    5  A    between atoms: C_10  and  C_11
REMARK    6  A    between atoms: C_11  and  C_12
REMARK    7  A    between atoms: C_13  and  C_17
REMARK    8  A    between atoms: C_23  and  C_24
REMARK    9  A    between atoms: C_23  and  N_65
REMARK                            x       y       z     vdW  Elec       q    Type
REMARK                         _______ _______ _______ _____ _____    ______ ____
ROOT
ATOM      1  C   UNL     1       1.559   2.207  -0.115  0.00  0.00    +0.115 C 
ATOM      2  C   UNL     1       0.380   1.260  -0.223  0.00  0.00    +0.247 C 
ATOM      3  O   UNL     1       0.414   0.048  -0.251  0.00  0.00    -0.273 OA
ATOM      4  N   UNL     1      -0.713   2.045  -0.289  0.00  0.00    -0.224 N 
ATOM      5  C   UNL     1      -0.393   3.342  -0.229  0.00  0.00    +0.309 C 
ATOM      6  O   UNL     1      -1.210   4.242  -0.267  0.00  0.00    -0.252 OA
ATOM      7  N   UNL     1       0.933   3.541  -0.128  0.00  0.00    -0.285 N 
ATOM      8  H   UNL     1       1.389   4.395  -0.075  0.00  0.00    +0.151 HD
ENDROOT
BRANCH   1   9
ATOM      9  C   UNL     1       2.314   1.979   1.196  0.00  0.00    +0.018 C 
ATOM     10  C   UNL     1       2.948   0.585   1.186  0.00  0.00    -0.013 C 
ATOM     11  C   UNL     1       3.648   0.339   2.524  0.00  0.00    -0.078 C 
ATOM     12  C   UNL     1       2.087   1.792   3.675  0.00  0.00    -0.078 C 
ATOM     13  C   UNL     1       1.339   2.080   2.372  0.00  0.00    -0.013 C 
ATOM     14  N   UNL     1       2.651   0.426   3.612  0.00  0.00    +0.382 N 
ATOM     15  H   UNL     1       1.893  -0.239   3.423  0.00  0.00    -0.081 HD
BRANCH  14  16
ATOM     16  C   UNL     1       3.282   0.081   4.903  0.00  0.00    -0.042 C 
BRANCH  16  17
ATOM     17  C   UNL     1       3.521  -1.406   4.941  0.00  0.00    -0.055 A 
ATOM     18  C   UNL     1       4.782  -1.901   4.802  0.00  0.00    +0.002 A 
ATOM     19  C   UNL     1       5.021  -3.273   4.841  0.00  0.00    +0.002 A 
ATOM     20  C   UNL     1       4.000  -4.158   5.007  0.00  0.00    +0.028 A 
ATOM     21  C   UNL     1       2.683  -3.687   5.148  0.00  0.00    +0.071 A 
ATOM     22  C   UNL     1       2.444  -2.291   5.114  0.00  0.00    +0.002 A 
ATOM     23  C   UNL     1       1.125  -1.821   5.255  0.00  0.00    +0.012 A 
ATOM     24  C   UNL     1       0.128  -2.739   5.419  0.00  0.00    +0.020 A 
ATOM     25  C   UNL     1       0.432  -4.099   5.442  0.00  0.00    +0.111 A 
ATOM     26  N   UNL     1       1.661  -4.533   5.311  0.00  0.00    -0.255 NA
ENDBRANCH  16  17
ENDBRANCH  14  16
ENDBRANCH   1   9
BRANCH   1  28
ATOM     27  C   UNL     1       1.768   2.442  -2.594  0.00  0.00    +0.006 C 
ATOM     28  C   UNL     1       2.497   2.037  -1.311  0.00  0.00    +0.032 C 
ENDBRANCH   1  28
BRANCH   4  29
ATOM     29  C   UNL     1      -2.083   1.540  -0.408  0.00  0.00    +0.123 C 
BRANCH  29  30
ATOM     30  C   UNL     1      -2.672   1.328   0.988  0.00  0.00    +0.064 C 
BRANCH  30  31
ATOM     31  C   UNL     1      -4.081   0.808   0.865  0.00  0.00    +0.014 A 
ATOM     32  C   UNL     1      -4.531  -0.471   0.798  0.00  0.00    +0.049 A 
ATOM     33  N   UNL     1      -5.828  -0.673   0.692  0.00  0.00    -0.252 NA
ATOM     34  C   UNL     1      -6.676   0.328   0.651  0.00  0.00    +0.156 A 
ATOM     35  S   UNL     1      -5.625   1.704   0.775  0.00  0.00    -0.080 S 
ATOM     36  C   UNL     1      -3.570  -1.630   0.845  0.00  0.00    +0.066 C 
ENDBRANCH  30  31
ENDBRANCH  29  30
ENDBRANCH   4  29
TORSDOF 7
