REMARK  Name = ZINC57768725
REMARK  5 active torsions:
REMARK  status: ('A' for Active; 'I' for Inactive)
REMARK    1  A    between atoms: C_1  and  C_2
REMARK    2  A    between atoms: C_2  and  C_4
REMARK    3  A    between atoms: C_2  and  N_14
REMARK    4  A    between atoms: C_15  and  C_17
REMARK    5  A    between atoms: C_17  and  C_18
REMARK                            x       y       z     vdW  Elec       q    Type
REMARK                         _______ _______ _______ _____ _____    ______ ____
ROOT
ATOM      1  N   UNL     1       0.711  -0.489   1.189  0.00  0.00    -0.309 N 
ATOM      2  C   UNL     1       2.054  -0.600   1.174  0.00  0.00    +0.217 C 
ATOM      3  O   UNL     1       2.676  -0.297   0.177  0.00  0.00    -0.276 OA
ATOM      4  H   UNL     1       0.213  -0.731   1.986  0.00  0.00    +0.149 HD
ENDROOT
BRANCH   1   6
ATOM      5  C   UNL     1      -0.019   1.526   0.010  0.00  0.00    +0.033 C 
ATOM      6  C   UNL     1       0.002  -0.004   0.002  0.00  0.00    +0.100 C 
BRANCH   6   7
ATOM      7  C   UNL     1      -1.412  -0.526   0.013  0.00  0.00    -0.027 A 
ATOM      8  C   UNL     1      -2.125  -0.572   1.196  0.00  0.00    +0.006 A 
ATOM      9  C   UNL     1      -3.418  -1.054   1.198  0.00  0.00    +0.004 A 
ATOM     10  C   UNL     1      -4.010  -1.491   0.021  0.00  0.00    -0.044 A 
ATOM     11  C   UNL     1      -3.301  -1.440  -1.159  0.00  0.00    -0.044 A 
ATOM     12  C   UNL     1      -2.001  -0.953  -1.159  0.00  0.00    +0.009 A 
ATOM     13  C   UNL     1      -3.885  -1.883  -2.475  0.00  0.00    +0.035 C 
ATOM     14  C   UNL     1      -5.113  -2.762  -2.249  0.00  0.00    +0.005 C 
ATOM     15  C   UNL     1      -6.061  -2.033  -1.290  0.00  0.00    +0.005 C 
ATOM     16  C   UNL     1      -5.421  -2.012   0.097  0.00  0.00    +0.035 C 
ENDBRANCH   6   7
ENDBRANCH   1   6
BRANCH   2  17
ATOM     17  C   UNL     1       2.783  -1.099   2.395  0.00  0.00    +0.145 C 
BRANCH  17  18
ATOM     18  C   UNL     1       4.287  -1.129   2.114  0.00  0.00    +0.216 C 
ATOM     19  C   UNL     1       5.018  -1.727   3.289  0.00  0.00    +0.007 A 
ATOM     20  C   UNL     1       4.973  -2.953   3.909  0.00  0.00    +0.008 A 
ATOM     21  C   UNL     1       5.791  -3.208   4.996  0.00  0.00    +0.000 A 
ATOM     22  C   UNL     1       6.656  -2.234   5.462  0.00  0.00    +0.001 A 
ATOM     23  C   UNL     1       6.710  -0.999   4.848  0.00  0.00    +0.015 A 
ATOM     24  C   UNL     1       5.888  -0.735   3.752  0.00  0.00    +0.066 A 
ATOM     25  C   UNL     1       5.710   0.451   2.895  0.00  0.00    +0.340 C 
ATOM     26  O   UNL     1       6.313   1.498   3.019  0.00  0.00    -0.245 OA
ATOM     27  O   UNL     1       4.781   0.204   1.955  0.00  0.00    -0.453 OA
ENDBRANCH  17  18
ENDBRANCH   2  17
TORSDOF 4
