REMARK  Name = ZINC35231597
REMARK  5 active torsions:
REMARK  status: ('A' for Active; 'I' for Inactive)
REMARK    1  A    between atoms: C_12  and  C_32
REMARK    2  A    between atoms: C_15  and  C_17
REMARK    3  A    between atoms: C_17  and  N_18
REMARK    4  A    between atoms: N_18  and  C_19
REMARK    5  A    between atoms: N_24  and  C_25
REMARK                            x       y       z     vdW  Elec       q    Type
REMARK                         _______ _______ _______ _____ _____    ______ ____
ROOT
ATOM      1  C   UNL     1       1.665  -1.224   2.828  0.00  0.00    +0.002 A 
ATOM      2  C   UNL     1       2.642  -1.566   1.909  0.00  0.00    +0.002 A 
ATOM      3  C   UNL     1       3.006  -0.681   0.913  0.00  0.00    +0.025 A 
ATOM      4  C   UNL     1       2.390   0.558   0.829  0.00  0.00    +0.061 A 
ATOM      5  C   UNL     1       1.398   0.896   1.756  0.00  0.00    +0.068 A 
ATOM      6  C   UNL     1       1.042   0.009   2.752  0.00  0.00    +0.028 A 
ATOM      7  N   UNL     1       0.779   2.148   1.624  0.00  0.00    -0.316 N 
ATOM      8  C   UNL     1      -0.023   2.820   2.483  0.00  0.00    +0.092 A 
ATOM      9  C   UNL     1      -0.366   3.995   1.908  0.00  0.00    +0.020 A 
ATOM     10  C   UNL     1       0.252   4.044   0.639  0.00  0.00    +0.025 A 
ATOM     11  C   UNL     1       0.942   2.909   0.486  0.00  0.00    +0.052 A 
ATOM     12  C   UNL     1       1.778   2.442  -0.680  0.00  0.00    +0.194 C 
ATOM     13  N   UNL     1       2.760   1.471  -0.168  0.00  0.00    -0.252 N 
ATOM     14  C   UNL     1       4.015   1.461  -0.658  0.00  0.00    +0.238 C 
ATOM     15  O   UNL     1       4.853   0.737  -0.164  0.00  0.00    -0.273 OA
ENDROOT
BRANCH  12  16
ATOM     16  C   UNL     1       0.896   1.783  -1.709  0.00  0.00    +0.131 A 
ATOM     17  C   UNL     1       0.447   2.353  -2.842  0.00  0.00    +0.047 A 
ATOM     18  C   UNL     1      -0.341   1.384  -3.504  0.00  0.00    +0.041 A 
ATOM     19  C   UNL     1      -0.326   0.279  -2.737  0.00  0.00    +0.195 A 
ATOM     20  O   UNL     1       0.429   0.525  -1.654  0.00  0.00    -0.466 OA
ENDBRANCH  12  16
BRANCH  14  21
ATOM     21  C   UNL     1       4.378   2.350  -1.819  0.00  0.00    +0.205 C 
BRANCH  21  22
ATOM     22  N   UNL     1       5.745   2.053  -2.254  0.00  0.00    -0.274 N 
ATOM     23  C   UNL     1       6.784   2.719  -1.711  0.00  0.00    +0.307 C 
ATOM     24  O   UNL     1       6.582   3.629  -0.931  0.00  0.00    -0.252 OA
ATOM     25  N   UNL     1       8.047   2.375  -2.034  0.00  0.00    -0.269 N 
ATOM     26  H   UNL     1       8.208   1.720  -2.731  0.00  0.00    +0.156 HD
BRANCH  25  27
ATOM     27  C   UNL     1       9.125   2.963  -1.364  0.00  0.00    +0.036 A 
ATOM     28  C   UNL     1       9.008   3.304  -0.022  0.00  0.00    +0.023 A 
ATOM     29  C   UNL     1      10.074   3.884   0.637  0.00  0.00    +0.003 A 
ATOM     30  C   UNL     1      11.257   4.127  -0.036  0.00  0.00    +0.020 A 
ATOM     31  C   UNL     1      11.377   3.789  -1.373  0.00  0.00    +0.043 A 
ATOM     32  C   UNL     1      10.315   3.203  -2.037  0.00  0.00    +0.043 A 
ATOM     33 CL   UNL     1      12.864   4.096  -2.215  0.00  0.00    -0.083 Cl
ENDBRANCH  25  27
BRANCH  22  34
ATOM     34  C   UNL     1       5.983   1.033  -3.278  0.00  0.00    +0.078 C 
ATOM     35  C   UNL     1       4.772   0.524  -4.063  0.00  0.00    +0.024 C 
ATOM     36  C   UNL     1       5.436  -0.372  -3.015  0.00  0.00    +0.024 C 
ENDBRANCH  22  34
ENDBRANCH  21  22
ENDBRANCH  14  21
TORSDOF 5
