REMARK  Name = ZINC38964743
REMARK  14 active torsions:
REMARK  status: ('A' for Active; 'I' for Inactive)
REMARK    1  A    between atoms: C_1  and  O_2
REMARK    2  A    between atoms: O_2  and  C_3
REMARK    3  A    between atoms: C_10  and  C_15
REMARK    4  A    between atoms: C_15  and  N_16
REMARK    5  A    between atoms: N_16  and  C_17
REMARK    6  A    between atoms: C_22  and  O_23
REMARK    7  A    between atoms: O_23  and  C_24
REMARK    8  A    between atoms: C_25  and  C_27
REMARK    9  A    between atoms: C_29  and  O_37
REMARK   10  A    between atoms: C_30  and  O_35
REMARK   11  A    between atoms: C_31  and  O_33
REMARK   12  A    between atoms: O_33  and  C_34
REMARK   13  A    between atoms: O_35  and  C_36
REMARK   14  A    between atoms: O_37  and  C_38
REMARK                            x       y       z     vdW  Elec       q    Type
REMARK                         _______ _______ _______ _____ _____    ______ ____
ROOT
ATOM      1  N   UNL     1       1.585  -6.057  -5.080  0.00  0.00    -0.263 N 
ATOM      2  C   UNL     1       1.730  -5.709  -6.374  0.00  0.00    +0.251 C 
ATOM      3  O   UNL     1       1.184  -4.710  -6.800  0.00  0.00    -0.270 OA
ENDROOT
BRANCH   1   4
ATOM      4  C   UNL     1       2.260  -7.176  -4.575  0.00  0.00    +0.078 A 
ATOM      5  C   UNL     1       1.587  -8.377  -4.408  0.00  0.00    +0.027 A 
ATOM      6  C   UNL     1       2.255  -9.480  -3.911  0.00  0.00    +0.002 A 
ATOM      7  C   UNL     1       3.594  -9.389  -3.578  0.00  0.00    +0.004 A 
ATOM      8  C   UNL     1       4.272  -8.195  -3.741  0.00  0.00    +0.047 A 
ATOM      9  C   UNL     1       3.610  -7.086  -4.245  0.00  0.00    +0.141 A 
BRANCH   9  10
ATOM     10  O   UNL     1       4.277  -5.912  -4.411  0.00  0.00    -0.493 OA
ATOM     11  C   UNL     1       5.659  -5.895  -4.051  0.00  0.00    +0.277 C 
ENDBRANCH   9  10
ENDBRANCH   1   4
BRANCH   2  12
ATOM     12  C   UNL     1       2.552  -6.542  -7.274  0.00  0.00    +0.044 A 
ATOM     13  C   UNL     1       3.462  -5.940  -8.146  0.00  0.00    +0.062 A 
ATOM     14  C   UNL     1       4.231  -6.722  -8.988  0.00  0.00    +0.166 A 
ATOM     15  C   UNL     1       4.099  -8.108  -8.967  0.00  0.00    +0.204 A 
ATOM     16  C   UNL     1       3.192  -8.710  -8.098  0.00  0.00    +0.166 A 
ATOM     17  C   UNL     1       2.425  -7.933  -7.250  0.00  0.00    +0.062 A 
BRANCH  16  18
ATOM     18  O   UNL     1       3.065 -10.064  -8.080  0.00  0.00    -0.491 OA
ATOM     19  C   UNL     1       2.075 -10.611  -7.207  0.00  0.00    +0.277 C 
ENDBRANCH  16  18
BRANCH  15  20
ATOM     20  O   UNL     1       4.856  -8.874  -9.795  0.00  0.00    -0.488 OA
ATOM     21  C   UNL     1       6.121  -9.312  -9.298  0.00  0.00    +0.277 C 
ENDBRANCH  15  20
BRANCH  14  22
ATOM     22  O   UNL     1       5.117  -6.137  -9.838  0.00  0.00    -0.491 OA
ATOM     23  C   UNL     1       5.117  -4.709  -9.894  0.00  0.00    +0.277 C 
ENDBRANCH  14  22
ENDBRANCH   2  12
BRANCH   1  24
ATOM     24  C   UNL     1       0.721  -5.265  -4.201  0.00  0.00    +0.131 C 
BRANCH  24  32
ATOM     25  C   UNL     1      -0.591  -0.241  -1.531  0.00  0.00    +0.121 A 
ATOM     26  C   UNL     1      -0.097   0.511  -2.603  0.00  0.00    +0.047 A 
ATOM     27  C   UNL     1       0.645  -0.036  -3.600  0.00  0.00    +0.027 A 
ATOM     28  C   UNL     1       0.952  -1.409  -3.593  0.00  0.00    +0.041 A 
ATOM     29  N   UNL     1       1.681  -1.933  -4.578  0.00  0.00    -0.284 N 
ATOM     30  C   UNL     1       2.006  -3.213  -4.634  0.00  0.00    +0.226 C 
ATOM     31  O   UNL     1       2.676  -3.634  -5.559  0.00  0.00    -0.275 OA
ATOM     32  C   UNL     1       1.543  -4.154  -3.544  0.00  0.00    +0.116 C 
ATOM     33  C   UNL     1       0.713  -3.563  -2.421  0.00  0.00    -0.003 C 
ATOM     34  C   UNL     1       0.446  -2.228  -2.477  0.00  0.00    -0.004 A 
ATOM     35  C   UNL     1      -0.344  -1.577  -1.431  0.00  0.00    +0.055 A 
ATOM     36  H   UNL     1       1.988  -1.347  -5.288  0.00  0.00    +0.155 HD
BRANCH  25  38
ATOM     37  C   UNL     1      -1.557   1.776  -0.724  0.00  0.00    +0.277 C 
ATOM     38  O   UNL     1      -1.328   0.374  -0.568  0.00  0.00    -0.495 OA
ENDBRANCH  25  38
ENDBRANCH  24  32
ENDBRANCH   1  24
TORSDOF 9
