REMARK  Name = ZINC34698040
REMARK  7 active torsions:
REMARK  status: ('A' for Active; 'I' for Inactive)
REMARK    1  A    between atoms: C_4  and  C_7
REMARK    2  A    between atoms: C_7  and  O_8
REMARK    3  A    between atoms: O_8  and  C_9
REMARK    4  A    between atoms: C_13  and  C_28
REMARK    5  A    between atoms: C_15  and  C_18
REMARK    6  A    between atoms: C_22  and  C_24
REMARK    7  A    between atoms: C_28  and  N_29
REMARK                            x       y       z     vdW  Elec       q    Type
REMARK                         _______ _______ _______ _____ _____    ______ ____
ROOT
ATOM      1  C   UNL     1       5.767  -1.681   1.071  0.00  0.00    +0.403 C 
ATOM      2  O   UNL     1       6.471  -2.167   0.208  0.00  0.00    -0.226 OA
ATOM      3  N   UNL     1       6.075  -1.861   2.371  0.00  0.00    -0.267 N 
ATOM      4  C   UNL     1       7.231  -2.613   2.882  0.00  0.00    +0.113 C 
ATOM      5  C   UNL     1       7.190  -2.525   4.422  0.00  0.00    -0.001 C 
ATOM      6  C   UNL     1       6.334  -1.256   4.675  0.00  0.00    +0.039 C 
ATOM      7  C   UNL     1       5.312  -1.331   3.516  0.00  0.00    +0.119 C 
ENDROOT
BRANCH   6   8
ATOM      8  C   UNL     1       5.644  -1.327   6.013  0.00  0.00    -0.042 A 
ATOM      9  C   UNL     1       4.765  -2.360   6.283  0.00  0.00    +0.004 A 
ATOM     10  C   UNL     1       4.132  -2.426   7.510  0.00  0.00    +0.001 A 
ATOM     11  C   UNL     1       4.378  -1.459   8.468  0.00  0.00    +0.012 A 
ATOM     12  C   UNL     1       5.257  -0.427   8.198  0.00  0.00    +0.055 A 
ATOM     13  C   UNL     1       5.894  -0.364   6.972  0.00  0.00    +0.016 A 
BRANCH  12  14
ATOM     14  C   UNL     1       5.525   0.626   9.242  0.00  0.00    +0.417 C 
ATOM     15  F   UNL     1       4.774   0.348  10.389  0.00  0.00    -0.166 F 
ATOM     16  F   UNL     1       6.886   0.628   9.564  0.00  0.00    -0.166 F 
ATOM     17  F   UNL     1       5.163   1.881   8.740  0.00  0.00    -0.166 F 
ENDBRANCH  12  14
ENDBRANCH   6   8
BRANCH   1  18
ATOM     18  O   UNL     1       4.680  -0.965   0.730  0.00  0.00    -0.445 OA
BRANCH  18  19
ATOM     19  C   UNL     1       4.414  -0.815  -0.666  0.00  0.00    +0.269 C 
BRANCH  19  23
ATOM     20  C   UNL     1       0.880   1.525  -1.201  0.00  0.00    +0.000 A 
ATOM     21  C   UNL     1       2.115   2.143  -1.133  0.00  0.00    +0.000 A 
ATOM     22  C   UNL     1       3.258   1.386  -0.960  0.00  0.00    +0.007 A 
ATOM     23  C   UNL     1       3.167   0.011  -0.854  0.00  0.00    -0.010 A 
ATOM     24  C   UNL     1       1.932  -0.607  -0.921  0.00  0.00    +0.007 A 
ATOM     25  C   UNL     1       0.789   0.150  -1.096  0.00  0.00    +0.000 A 
ENDBRANCH  19  23
ENDBRANCH  18  19
ENDBRANCH   1  18
BRANCH   5  26
ATOM     26  C   UNL     1       8.599  -2.354   4.992  0.00  0.00    -0.073 C 
BRANCH  26  27
ATOM     27  N   UNL     1       9.409  -3.533   4.657  0.00  0.00    +0.383 N 
ATOM     28  C   UNL     1       8.883  -4.709   5.367  0.00  0.00    -0.074 C 
ATOM     29  C   UNL     1       9.531  -5.963   4.778  0.00  0.00    +0.017 C 
ATOM     30  C   UNL     1      11.029  -5.796   4.745  0.00  0.00    -0.048 A 
ATOM     31  C   UNL     1      11.820  -6.922   4.578  0.00  0.00    +0.004 A 
ATOM     32  C   UNL     1      13.195  -6.808   4.540  0.00  0.00    +0.000 A 
ATOM     33  C   UNL     1      13.786  -5.565   4.669  0.00  0.00    +0.000 A 
ATOM     34  C   UNL     1      12.998  -4.443   4.837  0.00  0.00    +0.002 A 
ATOM     35  C   UNL     1      11.617  -4.556   4.877  0.00  0.00    -0.061 A 
ATOM     36  C   UNL     1      10.797  -3.308   5.070  0.00  0.00    -0.043 C 
ATOM     37  H   UNL     1       9.375  -3.694   3.662  0.00  0.00    -0.081 HD
ENDBRANCH  26  27
ENDBRANCH   5  26
TORSDOF 7
