REMARK  Name = ZINC14659664
REMARK  11 active torsions:
REMARK  status: ('A' for Active; 'I' for Inactive)
REMARK    1  A    between atoms: C_1  and  C_2
REMARK    2  A    between atoms: C_2  and  C_3
REMARK    3  A    between atoms: C_2  and  O_4
REMARK    4  A    between atoms: O_4  and  C_5
REMARK    5  A    between atoms: C_8  and  C_12
REMARK    6  A    between atoms: N_14  and  C_15
REMARK    7  A    between atoms: C_15  and  N_17
REMARK    8  A    between atoms: N_17  and  C_18
REMARK    9  A    between atoms: C_23  and  C_24
REMARK   10  A    between atoms: N_26  and  C_27
REMARK   11  A    between atoms: C_27  and  C_28
REMARK                            x       y       z     vdW  Elec       q    Type
REMARK                         _______ _______ _______ _____ _____    ______ ____
ROOT
ATOM      1  N   UNL     1      -2.646  -6.582   0.026  0.00  0.00    -0.296 N 
ATOM      2  H   UNL     1      -3.437  -6.084   0.285  0.00  0.00    +0.154 HD
ENDROOT
BRANCH   1   3
ATOM      3  C   UNL     1      -2.652  -7.973   0.078  0.00  0.00    +0.045 A 
ATOM      4  C   UNL     1      -1.532  -8.660   0.530  0.00  0.00    +0.024 A 
ATOM      5  C   UNL     1      -1.542 -10.039   0.586  0.00  0.00    +0.002 A 
ATOM      6  C   UNL     1      -2.662 -10.749   0.182  0.00  0.00    +0.001 A 
ATOM      7  C   UNL     1      -3.780 -10.085  -0.275  0.00  0.00    +0.015 A 
ATOM      8  C   UNL     1      -3.786  -8.689  -0.332  0.00  0.00    +0.058 A 
BRANCH   8   9
ATOM      9  C   UNL     1      -4.979  -7.972  -0.821  0.00  0.00    +0.246 C 
ATOM     10  O   UNL     1      -4.946  -6.766  -0.967  0.00  0.00    -0.270 OA
ATOM     11  N   UNL     1      -6.106  -8.655  -1.105  0.00  0.00    -0.304 N 
ATOM     12  H   UNL     1      -6.133  -9.617  -0.988  0.00  0.00    +0.149 HD
BRANCH  11  13
ATOM     13  C   UNL     1      -7.291  -7.943  -1.590  0.00  0.00    +0.179 C 
BRANCH  13  14
ATOM     14  C   UNL     1      -8.406  -8.928  -1.831  0.00  0.00    +0.122 A 
ATOM     15  C   UNL     1      -9.328  -9.309  -0.928  0.00  0.00    +0.046 A 
ATOM     16  C   UNL     1     -10.174 -10.239  -1.575  0.00  0.00    +0.041 A 
ATOM     17  C   UNL     1      -9.718 -10.372  -2.833  0.00  0.00    +0.195 A 
ATOM     18  O   UNL     1      -8.650  -9.572  -2.984  0.00  0.00    -0.466 OA
ENDBRANCH  13  14
ENDBRANCH  11  13
ENDBRANCH   8   9
ENDBRANCH   1   3
BRANCH   1  19
ATOM     19  C   UNL     1      -1.541  -5.928  -0.384  0.00  0.00    +0.141 C 
ATOM     20  S   UNL     1      -0.168  -6.809  -0.904  0.00  0.00    -0.018 S 
BRANCH  19  23
ATOM     21  C   UNL     1      -0.413  -3.926  -0.795  0.00  0.00    +0.250 C 
ATOM     22  O   UNL     1       0.562  -4.551  -1.164  0.00  0.00    -0.270 OA
ATOM     23  N   UNL     1      -1.517  -4.580  -0.385  0.00  0.00    -0.264 N 
ATOM     24  H   UNL     1      -2.295  -4.081  -0.090  0.00  0.00    +0.157 HD
BRANCH  21  28
ATOM     25  C   UNL     1      -0.337   0.320  -0.798  0.00  0.00    +0.135 A 
ATOM     26  C   UNL     1       0.778  -0.394  -1.220  0.00  0.00    +0.047 A 
ATOM     27  C   UNL     1       0.758  -1.770  -1.220  0.00  0.00    +0.017 A 
ATOM     28  C   UNL     1      -0.387  -2.451  -0.796  0.00  0.00    +0.038 A 
ATOM     29  C   UNL     1      -1.507  -1.730  -0.372  0.00  0.00    +0.032 A 
ATOM     30  C   UNL     1      -1.476  -0.353  -0.370  0.00  0.00    +0.060 A 
ATOM     31 BR   UNL     1      -2.987   0.624   0.211  0.00  0.00    -0.046 Br
BRANCH  25  32
ATOM     32  O   UNL     1      -0.313   1.677  -0.799  0.00  0.00    -0.488 OA
BRANCH  32  34
ATOM     33  C   UNL     1       0.967   2.597  -2.631  0.00  0.00    +0.051 C 
ATOM     34  C   UNL     1       0.928   2.303  -1.130  0.00  0.00    +0.167 C 
ATOM     35  C   UNL     1       1.063   3.612  -0.350  0.00  0.00    +0.051 C 
ENDBRANCH  32  34
ENDBRANCH  25  32
ENDBRANCH  21  28
ENDBRANCH  19  23
ENDBRANCH   1  19
TORSDOF 9
