REMARK  Name = ZINC64728982
REMARK  6 active torsions:
REMARK  status: ('A' for Active; 'I' for Inactive)
REMARK    1  A    between atoms: C_1  and  C_2
REMARK    2  A    between atoms: C_3  and  C_14
REMARK    3  A    between atoms: C_5  and  C_7
REMARK    4  A    between atoms: C_14  and  S_15
REMARK    5  A    between atoms: S_15  and  C_16
REMARK    6  A    between atoms: N_27  and  C_28
REMARK                            x       y       z     vdW  Elec       q    Type
REMARK                         _______ _______ _______ _____ _____    ______ ____
ROOT
ATOM      1  C   UNL     1      -4.829   0.324  -1.508  0.00  0.00    +0.209 C 
ATOM      2  N   UNL     1      -4.902   1.578  -0.709  0.00  0.00    -0.273 NA
ATOM      3  C   UNL     1      -6.179   1.405  -0.004  0.00  0.00    +0.209 C 
ATOM      4  C   UNL     1      -6.270  -0.095   0.233  0.00  0.00    +0.132 C 
ATOM      5  N   UNL     1      -6.836  -0.472   1.356  0.00  0.00    -0.225 NA
ATOM      6  C   UNL     1      -7.107   0.403   2.316  0.00  0.00    +0.213 C 
ATOM      7  N   UNL     1      -6.803   1.679   2.307  0.00  0.00    -0.167 NA
ATOM      8  C   UNL     1      -6.265   2.279   1.219  0.00  0.00    +0.262 C 
ATOM      9  O   UNL     1      -5.874   3.429   1.227  0.00  0.00    -0.271 OA
ATOM     10  N   UNL     1      -5.585  -0.693  -0.757  0.00  0.00    -0.262 N 
ATOM     11  H   UNL     1      -4.135   1.637  -0.057  0.00  0.00    +0.126 HD
ENDROOT
BRANCH  10  12
ATOM     12  C   UNL     1      -5.589  -2.063  -1.031  0.00  0.00    +0.037 A 
ATOM     13  C   UNL     1      -4.832  -2.565  -2.082  0.00  0.00    +0.023 A 
ATOM     14  C   UNL     1      -4.838  -3.920  -2.350  0.00  0.00    +0.002 A 
ATOM     15  C   UNL     1      -5.596  -4.777  -1.573  0.00  0.00    +0.000 A 
ATOM     16  C   UNL     1      -6.351  -4.280  -0.526  0.00  0.00    +0.002 A 
ATOM     17  C   UNL     1      -6.345  -2.927  -0.249  0.00  0.00    +0.023 A 
ENDBRANCH  10  12
BRANCH   1  18
ATOM     18  S   UNL     1      -3.101  -0.196  -1.693  0.00  0.00    -0.116 S 
BRANCH  18  19
ATOM     19  C   UNL     1      -2.513  -0.381   0.013  0.00  0.00    +0.131 C 
BRANCH  19  22
ATOM     20  C   UNL     1      -0.018   1.503   0.010  0.00  0.00    +0.088 C 
ATOM     21  C   UNL     1       0.002  -0.004   0.002  0.00  0.00    +0.127 A 
ATOM     22  C   UNL     1      -1.071  -0.816   0.003  0.00  0.00    +0.093 A 
ATOM     23  N   UNL     1      -0.627  -2.083  -0.007  0.00  0.00    -0.213 NA
ATOM     24  C   UNL     1       0.685  -2.068  -0.014  0.00  0.00    +0.228 A 
ATOM     25  O   UNL     1       1.098  -0.788  -0.013  0.00  0.00    -0.440 OA
BRANCH  24  26
ATOM     26  C   UNL     1       1.562  -3.258  -0.025  0.00  0.00    +0.038 A 
ATOM     27  C   UNL     1       1.006  -4.538  -0.036  0.00  0.00    +0.013 A 
ATOM     28  C   UNL     1       1.829  -5.645  -0.047  0.00  0.00    +0.002 A 
ATOM     29  C   UNL     1       3.204  -5.488  -0.047  0.00  0.00    +0.015 A 
ATOM     30  C   UNL     1       3.762  -4.222  -0.036  0.00  0.00    +0.019 A 
ATOM     31  C   UNL     1       2.949  -3.106  -0.031  0.00  0.00    +0.028 A 
ATOM     32 BR   UNL     1       5.642  -4.019  -0.035  0.00  0.00    -0.050 Br
ENDBRANCH  24  26
ENDBRANCH  19  22
ENDBRANCH  18  19
ENDBRANCH   1  18
TORSDOF 5
