REMARK  Name = ZINC08455910
REMARK  10 active torsions:
REMARK  status: ('A' for Active; 'I' for Inactive)
REMARK    1  A    between atoms: C_1  and  C_2
REMARK    2  A    between atoms: C_2  and  O_3
REMARK    3  A    between atoms: O_3  and  C_4
REMARK    4  A    between atoms: C_7  and  C_10
REMARK    5  A    between atoms: C_12  and  C_34
REMARK    6  A    between atoms: C_13  and  N_33
REMARK    7  A    between atoms: N_14  and  C_24
REMARK    8  A    between atoms: C_20  and  C_22
REMARK    9  A    between atoms: C_20  and  C_23
REMARK   10  A    between atoms: C_29  and  N_30
REMARK                            x       y       z     vdW  Elec       q    Type
REMARK                         _______ _______ _______ _____ _____    ______ ____
ROOT
ATOM      1  C   UNL     1      -1.082   5.789   0.394  0.00  0.00    +0.097 C 
ATOM      2  C   UNL     1      -1.329   6.390  -0.958  0.00  0.00    +0.077 C 
ATOM      3  C   UNL     1      -1.156   5.663  -2.092  0.00  0.00    +0.107 C 
ATOM      4  N   UNL     1      -0.755   4.348  -2.014  0.00  0.00    -0.258 N 
ATOM      5  C   UNL     1      -0.908   3.642  -0.849  0.00  0.00    +0.025 C 
ATOM      6  C   UNL     1      -1.069   4.283   0.328  0.00  0.00    +0.025 C 
ATOM      7  C   UNL     1      -1.226   3.567   1.527  0.00  0.00    +0.162 C 
ATOM      8  O   UNL     1      -1.389   4.174   2.567  0.00  0.00    -0.292 OA
ATOM      9  C   UNL     1      -1.192   2.063   1.550  0.00  0.00    +0.086 C 
ATOM     10  C   UNL     1      -0.330   1.566   0.385  0.00  0.00    -0.023 C 
ATOM     11  C   UNL     1      -0.895   2.135  -0.918  0.00  0.00    +0.058 C 
ATOM     12  C   UNL     1      -0.362   0.037   0.336  0.00  0.00    +0.011 C 
ATOM     13  C   UNL     1       1.112   2.044   0.573  0.00  0.00    +0.011 C 
ENDROOT
BRANCH   1  17
ATOM     14  C   UNL     1       2.689   7.158   1.867  0.00  0.00    +0.121 A 
ATOM     15  C   UNL     1       1.518   7.512   2.521  0.00  0.00    +0.046 A 
ATOM     16  C   UNL     1       0.300   7.069   2.042  0.00  0.00    +0.008 A 
ATOM     17  C   UNL     1       0.248   6.272   0.914  0.00  0.00    -0.034 A 
ATOM     18  C   UNL     1       1.414   5.913   0.264  0.00  0.00    +0.008 A 
ATOM     19  C   UNL     1       2.634   6.358   0.735  0.00  0.00    +0.046 A 
BRANCH  14  20
ATOM     20  O   UNL     1       3.888   7.592   2.336  0.00  0.00    -0.492 OA
BRANCH  20  22
ATOM     21  C   UNL     1       6.298   7.769   2.285  0.00  0.00    +0.048 C 
ATOM     22  C   UNL     1       5.052   7.188   1.613  0.00  0.00    +0.225 C 
ENDBRANCH  20  22
ENDBRANCH  14  20
ENDBRANCH   1  17
BRANCH   4  23
ATOM     23  C   UNL     1      -0.188   3.728  -3.133  0.00  0.00    +0.070 A 
ATOM     24  C   UNL     1       1.186   3.776  -3.333  0.00  0.00    +0.026 A 
ATOM     25  C   UNL     1       1.743   3.163  -4.438  0.00  0.00    +0.002 A 
ATOM     26  C   UNL     1       0.935   2.501  -5.344  0.00  0.00    +0.002 A 
ATOM     27  C   UNL     1      -0.433   2.451  -5.148  0.00  0.00    +0.034 A 
ATOM     28  C   UNL     1      -0.996   3.058  -4.042  0.00  0.00    +0.148 A 
BRANCH  28  29
ATOM     29  N   UNL     1      -2.459   2.999  -3.829  0.00  0.00    +0.058 N 
ATOM     30  O   UNL     1      -3.156   2.331  -4.572  0.00  0.00    -0.126 OA
ATOM     31  O   UNL     1      -2.967   3.618  -2.911  0.00  0.00    -0.126 OA
ENDBRANCH  28  29
ENDBRANCH   4  23
BRANCH   3  32
ATOM     32  N   UNL     1      -1.381   6.240  -3.318  0.00  0.00    -0.345 N 
ATOM     33  H   UNL     1      -1.663   7.167  -3.374  0.00  0.00    +0.144 HD
ATOM     34  H   UNL     1      -1.258   5.721  -4.129  0.00  0.00    +0.144 HD
ENDBRANCH   3  32
BRANCH   2  35
ATOM     35  C   UNL     1      -1.756   7.754  -1.055  0.00  0.00    +0.099 C 
ATOM     36  N   UNL     1      -2.094   8.836  -1.132  0.00  0.00    -0.191 NA
ENDBRANCH   2  35
TORSDOF 7
