REMARK  Name = ZINC13389425
REMARK  5 active torsions:
REMARK  status: ('A' for Active; 'I' for Inactive)
REMARK    1  A    between atoms: C_1  and  C_2
REMARK    2  A    between atoms: C_9  and  C_18
REMARK    3  A    between atoms: C_21  and  O_27
REMARK    4  A    between atoms: C_22  and  N_24
REMARK    5  A    between atoms: O_27  and  C_28
REMARK                            x       y       z     vdW  Elec       q    Type
REMARK                         _______ _______ _______ _____ _____    ______ ____
ROOT
ATOM      1  C   UNL     1      -3.563   2.703  -5.167  0.00  0.00    +0.045 C 
ATOM      2  C   UNL     1      -3.843   2.671  -3.687  0.00  0.00    -0.029 A 
ATOM      3  C   UNL     1      -5.002   3.235  -3.202  0.00  0.00    +0.006 A 
ATOM      4  C   UNL     1      -5.274   3.214  -1.847  0.00  0.00    +0.020 A 
ATOM      5  C   UNL     1      -4.378   2.616  -0.979  0.00  0.00    +0.046 A 
ATOM      6  C   UNL     1      -3.216   2.044  -1.458  0.00  0.00    -0.001 A 
ATOM      7  C   UNL     1      -2.924   2.071  -2.824  0.00  0.00    +0.036 A 
ATOM      8  N   UNL     1      -1.757   1.555  -3.383  0.00  0.00    -0.336 N 
ATOM      9  C   UNL     1      -0.811   0.856  -2.469  0.00  0.00    +0.105 C 
ATOM     10  C   UNL     1      -0.830   1.631  -1.168  0.00  0.00    +0.029 C 
ATOM     11  C   UNL     1      -2.245   1.386  -0.557  0.00  0.00    +0.050 C 
ATOM     12  C   UNL     1      -2.076   1.804   0.857  0.00  0.00    -0.023 C 
ATOM     13  C   UNL     1      -0.806   1.618   1.204  0.00  0.00    -0.030 C 
ATOM     14  C   UNL     1      -0.013   1.086   0.008  0.00  0.00    +0.033 C 
ATOM     15 CL   UNL     1      -4.716   2.584   0.723  0.00  0.00    -0.083 Cl
ATOM     16  H   UNL     1      -1.270   2.259  -3.918  0.00  0.00    +0.147 HD
ENDROOT
BRANCH   9  17
ATOM     17  C   UNL     1       0.582   0.856  -3.046  0.00  0.00    -0.025 A 
ATOM     18  C   UNL     1       1.041   1.958  -3.743  0.00  0.00    +0.009 A 
ATOM     19  C   UNL     1       2.316   1.960  -4.272  0.00  0.00    +0.048 A 
ATOM     20  C   UNL     1       3.138   0.855  -4.105  0.00  0.00    +0.150 A 
ATOM     21  C   UNL     1       2.675  -0.251  -3.406  0.00  0.00    +0.168 A 
ATOM     22  C   UNL     1       1.400  -0.245  -2.873  0.00  0.00    +0.042 A 
BRANCH  21  23
ATOM     23  N   UNL     1       3.548  -1.432  -3.225  0.00  0.00    +0.060 N 
ATOM     24  O   UNL     1       3.141  -2.402  -2.611  0.00  0.00    -0.126 OA
ATOM     25  O   UNL     1       4.674  -1.433  -3.690  0.00  0.00    -0.126 OA
ENDBRANCH  21  23
BRANCH  20  26
ATOM     26  O   UNL     1       4.393   0.854  -4.625  0.00  0.00    -0.493 OA
ATOM     27  C   UNL     1       4.802   2.026  -5.333  0.00  0.00    +0.277 C 
ENDBRANCH  20  26
ENDBRANCH   9  17
TORSDOF 3
