REMARK  Name = ZINC33254527
REMARK  9 active torsions:
REMARK  status: ('A' for Active; 'I' for Inactive)
REMARK    1  A    between atoms: C_4  and  C_7
REMARK    2  A    between atoms: C_7  and  C_8
REMARK    3  A    between atoms: N_11  and  C_14
REMARK    4  A    between atoms: C_14  and  C_15
REMARK    5  A    between atoms: C_15  and  N_16
REMARK    6  A    between atoms: C_17  and  C_19
REMARK    7  A    between atoms: C_19  and  C_20
REMARK    8  A    between atoms: N_23  and  S_26
REMARK    9  A    between atoms: S_26  and  C_29
REMARK                            x       y       z     vdW  Elec       q    Type
REMARK                         _______ _______ _______ _____ _____    ______ ____
ROOT
ATOM      1  N   UNL     1      -0.288   1.272  -2.443  0.00  0.00    -0.317 N 
ATOM      2  C   UNL     1      -0.742   1.585  -1.213  0.00  0.00    +0.213 C 
ATOM      3  O   UNL     1      -1.736   2.268  -1.088  0.00  0.00    -0.276 OA
ATOM      4  H   UNL     1       0.614   0.653  -2.556  0.00  0.00    +0.149 HD
ENDROOT
BRANCH   1   5
ATOM      5  C   UNL     1      -0.997   1.758  -3.630  0.00  0.00    +0.085 C 
BRANCH   5   6
ATOM      6  C   UNL     1      -0.281   1.264  -4.889  0.00  0.00    -0.060 C 
BRANCH   6  10
ATOM      7  C   UNL     1      -2.315   1.558  -8.638  0.00  0.00    -0.010 C 
ATOM      8  C   UNL     1      -0.909   2.148  -8.495  0.00  0.00    -0.015 C 
ATOM      9  C   UNL     1      -0.210   1.501  -7.297  0.00  0.00    -0.078 C 
ATOM     10  N   UNL     1      -0.991   1.751  -6.079  0.00  0.00    +0.381 N 
ATOM     11  C   UNL     1      -2.329   1.153  -6.174  0.00  0.00    -0.078 C 
ATOM     12  C   UNL     1      -3.092   1.789  -7.339  0.00  0.00    -0.015 C 
ATOM     13  H   UNL     1      -1.117   2.839  -5.978  0.00  0.00    -0.082 HD
BRANCH   7  14
ATOM     14  C   UNL     1      -3.041   2.243  -9.797  0.00  0.00    +0.038 C 
BRANCH  14  18
ATOM     15  C   UNL     1      -6.826   0.362 -10.419  0.00  0.00    +0.000 A 
ATOM     16  C   UNL     1      -6.720   1.431  -9.549  0.00  0.00    +0.000 A 
ATOM     17  C   UNL     1      -5.495   2.040  -9.348  0.00  0.00    +0.003 A 
ATOM     18  C   UNL     1      -4.376   1.580 -10.017  0.00  0.00    -0.047 A 
ATOM     19  C   UNL     1      -4.483   0.514 -10.890  0.00  0.00    +0.003 A 
ATOM     20  C   UNL     1      -5.707  -0.098 -11.088  0.00  0.00    +0.000 A 
ENDBRANCH  14  18
ENDBRANCH   7  14
ENDBRANCH   6  10
ENDBRANCH   5   6
ENDBRANCH   1   5
BRANCH   2  21
ATOM     21  C   UNL     1      -0.013   1.086   0.008  0.00  0.00    +0.099 C 
BRANCH  21  22
ATOM     22  C   UNL     1      -0.729   1.579   1.267  0.00  0.00    +0.000 C 
ATOM     23  C   UNL     1      -0.642   3.106   1.337  0.00  0.00    +0.021 C 
ATOM     24  C   UNL     1      -1.390   3.598   2.580  0.00  0.00    +0.110 C 
ATOM     25  N   UNL     1      -0.852   2.908   3.761  0.00  0.00    -0.177 NA
ATOM     26  C   UNL     1      -0.804   1.440   3.760  0.00  0.00    +0.110 C 
ATOM     27  C   UNL     1      -0.063   0.971   2.503  0.00  0.00    +0.021 C 
BRANCH  25  28
ATOM     28  S   UNL     1      -0.309   3.769   5.067  0.00  0.00    +0.061 S 
ATOM     29  O   UNL     1      -0.969   5.027   5.027  0.00  0.00    -0.153 OA
ATOM     30  O   UNL     1      -0.393   2.901   6.189  0.00  0.00    -0.153 OA
BRANCH  28  31
ATOM     31  C   UNL     1       1.403   4.090   4.805  0.00  0.00    +0.105 A 
ATOM     32  C   UNL     1       2.352   3.196   5.266  0.00  0.00    +0.028 A 
ATOM     33  C   UNL     1       3.696   3.446   5.056  0.00  0.00    +0.002 A 
ATOM     34  C   UNL     1       4.090   4.594   4.394  0.00  0.00    +0.000 A 
ATOM     35  C   UNL     1       3.142   5.490   3.939  0.00  0.00    +0.002 A 
ATOM     36  C   UNL     1       1.798   5.238   4.144  0.00  0.00    +0.028 A 
ENDBRANCH  28  31
ENDBRANCH  25  28
ENDBRANCH  21  22
ENDBRANCH   2  21
TORSDOF 9
