REMARK  Name = ZINC51906826
REMARK  12 active torsions:
REMARK  status: ('A' for Active; 'I' for Inactive)
REMARK    1  A    between atoms: C_1  and  C_2
REMARK    2  A    between atoms: C_2  and  C_3
REMARK    3  A    between atoms: N_12  and  C_13
REMARK    4  A    between atoms: C_13  and  C_15
REMARK    5  A    between atoms: C_15  and  N_16
REMARK    6  A    between atoms: N_16  and  C_17
REMARK    7  A    between atoms: N_16  and  C_18
REMARK    8  A    between atoms: C_18  and  C_19
REMARK    9  A    between atoms: N_21  and  C_22
REMARK   10  A    between atoms: C_22  and  C_23
REMARK   11  A    between atoms: C_22  and  C_24
REMARK   12  A    between atoms: C_22  and  C_25
REMARK                            x       y       z     vdW  Elec       q    Type
REMARK                         _______ _______ _______ _____ _____    ______ ____
ROOT
ATOM      1  C   UNL     1       2.258  -3.263   7.505  0.00  0.00    +0.222 C 
ATOM      2  O   UNL     1       2.765  -3.893   6.597  0.00  0.00    -0.276 OA
ENDROOT
BRANCH   1  11
ATOM      3  C   UNL     1       0.742  -0.511   1.242  0.00  0.00    -0.006 C 
ATOM      4  C   UNL     1       0.867  -2.036   1.177  0.00  0.00    +0.010 C 
ATOM      5  C   UNL     1       1.804  -2.529   2.282  0.00  0.00    +0.054 C 
ATOM      6  C   UNL     1       1.335  -1.958   3.614  0.00  0.00    +0.028 A 
ATOM      7  C   UNL     1       0.516  -0.897   3.658  0.00  0.00    +0.012 A 
ATOM      8  S   UNL     1       0.270  -0.629   5.391  0.00  0.00    -0.057 S 
ATOM      9  C   UNL     1       1.228  -1.886   5.969  0.00  0.00    +0.163 A 
ATOM     10  N   UNL     1       1.699  -2.464   4.834  0.00  0.00    -0.339 N 
ATOM     11  N   UNL     1       1.467  -2.232   7.236  0.00  0.00    -0.158 NA
ATOM     12  C   UNL     1      -0.046  -0.130   2.504  0.00  0.00    +0.047 C 
ATOM     13  H   UNL     1       2.290  -3.232   4.887  0.00  0.00    +0.167 HD
BRANCH   3  15
ATOM     14  C   UNL     1      -0.019   1.526   0.010  0.00  0.00    +0.004 C 
ATOM     15  C   UNL     1       0.002  -0.004   0.002  0.00  0.00    +0.000 C 
ENDBRANCH   3  15
ENDBRANCH   1  11
BRANCH   1  16
ATOM     16  C   UNL     1       2.528  -3.652   8.936  0.00  0.00    +0.021 C 
BRANCH  16  17
ATOM     17  N   UNL     1       3.425  -4.815   8.965  0.00  0.00    +0.389 N 
ATOM     18  C   UNL     1       2.747  -5.973   8.368  0.00  0.00    -0.095 C 
ATOM     19  H   UNL     1       4.262  -4.608   8.440  0.00  0.00    -0.081 HD
BRANCH  17  20
ATOM     20  C   UNL     1       3.784  -5.121  10.357  0.00  0.00    +0.019 C 
BRANCH  20  21
ATOM     21  C   UNL     1       4.800  -6.234  10.380  0.00  0.00    +0.197 C 
ATOM     22  O   UNL     1       5.186  -6.724   9.340  0.00  0.00    -0.278 OA
ATOM     23  N   UNL     1       5.278  -6.685  11.557  0.00  0.00    -0.312 N 
ATOM     24  H   UNL     1       4.968  -6.294  12.388  0.00  0.00    +0.149 HD
BRANCH  23  25
ATOM     25  C   UNL     1       6.265  -7.768  11.579  0.00  0.00    +0.026 C 
ATOM     26  C   UNL     1       7.516  -7.332  10.814  0.00  0.00    +0.031 C 
ATOM     27  C   UNL     1       6.639  -8.086  13.028  0.00  0.00    +0.031 C 
ATOM     28  C   UNL     1       5.671  -9.014  10.920  0.00  0.00    +0.031 C 
ENDBRANCH  23  25
ENDBRANCH  20  21
ENDBRANCH  17  20
ENDBRANCH  16  17
ENDBRANCH   1  16
TORSDOF 7
