REMARK  Name = ZINC39666547
REMARK  12 active torsions:
REMARK  status: ('A' for Active; 'I' for Inactive)
REMARK    1  A    between atoms: C_1  and  C_2
REMARK    2  A    between atoms: C_2  and  C_3
REMARK    3  A    between atoms: C_3  and  C_4
REMARK    4  A    between atoms: C_4  and  C_5
REMARK    5  A    between atoms: C_5  and  C_6
REMARK    6  A    between atoms: C_6  and  C_7
REMARK    7  A    between atoms: C_11  and  C_20
REMARK    8  A    between atoms: N_22  and  C_23
REMARK    9  A    between atoms: C_23  and  C_24
REMARK   10  A    between atoms: C_24  and  C_26
REMARK   11  A    between atoms: C_24  and  O_27
REMARK   12  A    between atoms: O_27  and  C_28
REMARK                            x       y       z     vdW  Elec       q    Type
REMARK                         _______ _______ _______ _____ _____    ______ ____
ROOT
ATOM      1  C   UNL     1       4.198  -5.229  -5.096  0.00  0.00    +0.216 C 
ATOM      2  O   UNL     1       4.804  -4.727  -6.019  0.00  0.00    -0.276 OA
ATOM      3  N   UNL     1       3.972  -6.557  -5.080  0.00  0.00    -0.300 N 
ATOM      4  C   UNL     1       3.252  -7.344  -4.051  0.00  0.00    +0.121 C 
ATOM      5  C   UNL     1       2.441  -8.386  -4.853  0.00  0.00    +0.100 C 
ATOM      6  C   UNL     1       3.192  -8.525  -6.188  0.00  0.00    -0.004 C 
ATOM      7  C   UNL     1       4.383  -7.561  -6.091  0.00  0.00    +0.115 C 
ATOM      8  C   UNL     1       2.287  -8.122  -7.348  0.00  0.00    -0.010 C 
ATOM      9  C   UNL     1       3.037  -8.324  -8.668  0.00  0.00    -0.082 C 
ATOM     10  N   UNL     1       3.434  -9.731  -8.797  0.00  0.00    +0.379 N 
ATOM     11  C   UNL     1       4.378 -10.085  -7.729  0.00  0.00    -0.082 C 
ATOM     12  C   UNL     1       3.684  -9.958  -6.370  0.00  0.00    -0.010 C 
ATOM     13  H   UNL     1       2.616 -10.318  -8.729  0.00  0.00    -0.086 HD
ATOM     14  H   UNL     1       3.874  -9.874  -9.694  0.00  0.00    -0.086 HD
ENDROOT
BRANCH   5  15
ATOM     15  C   UNL     1       2.413  -9.704  -4.124  0.00  0.00    +0.218 C 
ATOM     16  O   UNL     1       3.350 -10.032  -3.428  0.00  0.00    -0.275 OA
ATOM     17  N   UNL     1       1.346 -10.518  -4.245  0.00  0.00    -0.312 N 
ATOM     18  H   UNL     1       0.596 -10.256  -4.801  0.00  0.00    +0.149 HD
BRANCH  17  19
ATOM     19  C   UNL     1       1.318 -11.800  -3.535  0.00  0.00    +0.148 C 
BRANCH  19  20
ATOM     20  C   UNL     1       0.006 -12.524  -3.841  0.00  0.00    +0.187 C 
ATOM     21  C   UNL     1      -0.078 -13.803  -3.005  0.00  0.00    +0.053 C 
BRANCH  20  22
ATOM     22  O   UNL     1      -0.041 -12.859  -5.230  0.00  0.00    -0.486 OA
BRANCH  22  23
ATOM     23  C   UNL     1      -1.272 -13.011  -5.787  0.00  0.00    +0.139 A 
ATOM     24  C   UNL     1      -2.406 -12.951  -4.992  0.00  0.00    +0.047 A 
ATOM     25  C   UNL     1      -3.656 -13.104  -5.560  0.00  0.00    +0.004 A 
ATOM     26  C   UNL     1      -3.777 -13.318  -6.921  0.00  0.00    +0.002 A 
ATOM     27  C   UNL     1      -2.648 -13.378  -7.717  0.00  0.00    +0.023 A 
ATOM     28  C   UNL     1      -1.395 -13.219  -7.154  0.00  0.00    +0.083 A 
ATOM     29 CL   UNL     1       0.022 -13.287  -8.154  0.00  0.00    -0.080 Cl
ENDBRANCH  22  23
ENDBRANCH  20  22
ENDBRANCH  19  20
ENDBRANCH  17  19
ENDBRANCH   5  15
BRANCH   1  30
ATOM     30  C   UNL     1       3.698  -4.366  -3.966  0.00  0.00    +0.096 C 
BRANCH  30  31
ATOM     31  C   UNL     1       4.084  -2.909  -4.228  0.00  0.00    +0.009 C 
BRANCH  31  32
ATOM     32  C   UNL     1       3.576  -2.033  -3.081  0.00  0.00    +0.000 C 
BRANCH  32  33
ATOM     33  C   UNL     1       3.962  -0.575  -3.342  0.00  0.00    -0.000 C 
BRANCH  33  35
ATOM     34  C   UNL     1       3.840   1.758  -2.457  0.00  0.00    +0.004 C 
ATOM     35  C   UNL     1       3.454   0.301  -2.195  0.00  0.00    -0.003 C 
ENDBRANCH  33  35
ENDBRANCH  32  33
ENDBRANCH  31  32
ENDBRANCH  30  31
ENDBRANCH   1  30
TORSDOF 10
