REMARK  Name = ZINC67431152
REMARK  4 active torsions:
REMARK  status: ('A' for Active; 'I' for Inactive)
REMARK    1  A    between atoms: C_6  and  N_7
REMARK    2  A    between atoms: C_8  and  C_10
REMARK    3  A    between atoms: N_12  and  C_13
REMARK    4  A    between atoms: C_25  and  C_27
REMARK                            x       y       z     vdW  Elec       q    Type
REMARK                         _______ _______ _______ _____ _____    ______ ____
ROOT
ATOM      1  N   UNL     1      -1.201  -0.717   0.010  0.00  0.00    -0.278 N 
ATOM      2  C   UNL     1      -2.373  -0.061   0.127  0.00  0.00    +0.303 C 
ATOM      3  O   UNL     1      -2.390   1.153   0.134  0.00  0.00    -0.265 OA
ATOM      4  H   UNL     1      -1.193  -1.683  -0.072  0.00  0.00    +0.155 HD
ENDROOT
BRANCH   1  10
ATOM      5  C   UNL     1       0.123   1.156   0.769  0.00  0.00    +0.027 A 
ATOM      6  C   UNL     1       1.304   1.866   0.776  0.00  0.00    +0.050 A 
ATOM      7  C   UNL     1       2.381   1.427   0.021  0.00  0.00    +0.155 A 
ATOM      8  C   UNL     1       2.267   0.259  -0.749  0.00  0.00    +0.111 A 
ATOM      9  C   UNL     1       1.069  -0.455  -0.751  0.00  0.00    +0.055 A 
ATOM     10  C   UNL     1       0.002  -0.005   0.008  0.00  0.00    +0.036 A 
ATOM     11  N   UNL     1       3.466   0.085  -1.369  0.00  0.00    -0.213 NA
ATOM     12  C   UNL     1       4.261   1.053  -1.022  0.00  0.00    +0.200 A 
ATOM     13  O   UNL     1       3.636   1.888  -0.178  0.00  0.00    -0.439 OA
BRANCH  12  14
ATOM     14  C   UNL     1       5.681   1.214  -1.500  0.00  0.00    +0.075 C 
ATOM     15  C   UNL     1       6.532   2.296  -0.834  0.00  0.00    +0.013 C 
ATOM     16  C   UNL     1       6.028   2.492  -2.265  0.00  0.00    +0.013 C 
ENDBRANCH  12  14
ENDBRANCH   1  10
BRANCH   2  17
ATOM     17  C   UNL     1      -3.649  -0.827   0.248  0.00  0.00    +0.300 C 
ATOM     18  O   UNL     1      -3.631  -2.041   0.241  0.00  0.00    -0.265 OA
ATOM     19  N   UNL     1      -4.820  -0.171   0.365  0.00  0.00    -0.301 N 
ATOM     20  H   UNL     1      -4.834   0.799   0.370  0.00  0.00    +0.150 HD
BRANCH  19  21
ATOM     21  C   UNL     1      -6.072  -0.922   0.483  0.00  0.00    +0.104 C 
ATOM     22  C   UNL     1      -7.263  -0.056   0.020  0.00  0.00    +0.032 C 
ATOM     23  C   UNL     1      -7.735   0.591   1.339  0.00  0.00    +0.037 C 
ATOM     24  C   UNL     1      -7.312  -0.373   2.427  0.00  0.00    -0.041 A 
ATOM     25  C   UNL     1      -6.355  -1.245   1.935  0.00  0.00    -0.024 A 
ATOM     26  C   UNL     1      -5.820  -2.221   2.758  0.00  0.00    +0.007 A 
ATOM     27  C   UNL     1      -6.237  -2.330   4.070  0.00  0.00    +0.020 A 
ATOM     28  C   UNL     1      -7.192  -1.461   4.565  0.00  0.00    +0.041 A 
ATOM     29  C   UNL     1      -7.731  -0.481   3.742  0.00  0.00    +0.024 A 
ATOM     30 CL   UNL     1      -7.719  -1.595   6.214  0.00  0.00    -0.084 Cl
ENDBRANCH  19  21
ENDBRANCH   2  17
TORSDOF 4
