REMARK  Name = ZINC09837921
REMARK  9 active torsions:
REMARK  status: ('A' for Active; 'I' for Inactive)
REMARK    1  A    between atoms: C_1  and  C_2
REMARK    2  A    between atoms: C_5  and  N_8
REMARK    3  A    between atoms: N_8  and  C_9
REMARK    4  A    between atoms: N_8  and  S_20
REMARK    5  A    between atoms: C_9  and  C_10
REMARK    6  A    between atoms: N_12  and  C_13
REMARK    7  A    between atoms: S_20  and  C_23
REMARK    8  A    between atoms: C_24  and  C_30
REMARK    9  A    between atoms: C_28  and  C_29
REMARK                            x       y       z     vdW  Elec       q    Type
REMARK                         _______ _______ _______ _____ _____    ______ ____
ROOT
ATOM      1  N   UNL     1       2.333   1.718  -4.141  0.00  0.00    -0.194 N 
ENDROOT
BRANCH   1   6
ATOM      2  C   UNL     1       0.254   5.699  -0.678  0.00  0.00    +0.044 C 
ATOM      3  C   UNL     1       0.806   4.641  -1.598  0.00  0.00    -0.050 A 
ATOM      4  C   UNL     1       0.571   4.718  -2.958  0.00  0.00    +0.005 A 
ATOM      5  C   UNL     1       1.075   3.751  -3.805  0.00  0.00    +0.025 A 
ATOM      6  C   UNL     1       1.821   2.699  -3.288  0.00  0.00    +0.052 A 
ATOM      7  C   UNL     1       2.051   2.621  -1.920  0.00  0.00    +0.025 A 
ATOM      8  C   UNL     1       1.548   3.595  -1.080  0.00  0.00    +0.005 A 
ENDBRANCH   1   6
BRANCH   1   9
ATOM      9  S   UNL     1       2.206   0.118  -3.733  0.00  0.00    +0.079 S 
ATOM     10  O   UNL     1       3.109  -0.588  -4.573  0.00  0.00    -0.150 OA
ATOM     11  O   UNL     1       2.275   0.053  -2.315  0.00  0.00    -0.150 OA
BRANCH   9  12
ATOM     12  C   UNL     1       0.585  -0.407  -4.183  0.00  0.00    +0.151 A 
ATOM     13  C   UNL     1       0.259  -1.138  -5.274  0.00  0.00    +0.060 A 
ATOM     14  N   UNL     1      -1.077  -1.329  -5.258  0.00  0.00    -0.280 N 
ATOM     15  H   UNL     1      -1.607  -1.834  -5.938  0.00  0.00    +0.189 HD
ATOM     16  N   UNL     1      -1.589  -0.693  -4.119  0.00  0.00    -0.177 NA
ATOM     17  C   UNL     1      -0.591  -0.146  -3.473  0.00  0.00    +0.087 A 
ATOM     18  C   UNL     1      -0.693   0.634  -2.188  0.00  0.00    +0.069 C 
ATOM     19  C   UNL     1       1.217  -1.649  -6.320  0.00  0.00    +0.067 C 
ENDBRANCH   9  12
ENDBRANCH   1   9
BRANCH   1  20
ATOM     20  C   UNL     1       2.982   2.105  -5.395  0.00  0.00    +0.227 C 
BRANCH  20  21
ATOM     21  C   UNL     1       4.431   2.428  -5.133  0.00  0.00    +0.236 C 
ATOM     22  O   UNL     1       4.877   2.343  -4.008  0.00  0.00    -0.274 OA
ATOM     23  N   UNL     1       5.229   2.816  -6.147  0.00  0.00    -0.284 N 
ATOM     24  H   UNL     1       4.905   2.782  -7.060  0.00  0.00    +0.155 HD
BRANCH  23  25
ATOM     25  C   UNL     1       6.527   3.269  -5.882  0.00  0.00    +0.033 A 
ATOM     26  C   UNL     1       6.778   4.040  -4.754  0.00  0.00    +0.024 A 
ATOM     27  C   UNL     1       8.060   4.481  -4.492  0.00  0.00    +0.017 A 
ATOM     28  C   UNL     1       9.092   4.165  -5.358  0.00  0.00    +0.018 A 
ATOM     29  C   UNL     1       8.844   3.402  -6.485  0.00  0.00    +0.017 A 
ATOM     30  C   UNL     1       7.564   2.954  -6.749  0.00  0.00    +0.024 A 
ATOM     31 BR   UNL     1      10.845   4.777  -5.000  0.00  0.00    -0.050 Br
ENDBRANCH  23  25
ENDBRANCH  20  21
ENDBRANCH   1  20
TORSDOF 6
