REMARK  Name = ZINC50323911
REMARK  3 active torsions:
REMARK  status: ('A' for Active; 'I' for Inactive)
REMARK    1  A    between atoms: C_13  and  C_15
REMARK    2  A    between atoms: C_16  and  N_24
REMARK    3  A    between atoms: C_17  and  C_21
REMARK                            x       y       z     vdW  Elec       q    Type
REMARK                         _______ _______ _______ _____ _____    ______ ____
ROOT
ATOM      1  C   UNL     1       0.077   1.213   0.115  0.00  0.00    +0.000 C 
ATOM      2  C   UNL     1       1.508   1.754   0.107  0.00  0.00    +0.000 C 
ATOM      3  C   UNL     1       2.203   1.342  -1.193  0.00  0.00    +0.005 C 
ATOM      4  C   UNL     1       2.231  -0.184  -1.293  0.00  0.00    +0.010 C 
ATOM      5  C   UNL     1       2.931  -0.602  -2.588  0.00  0.00    +0.112 C 
ATOM      6  N   UNL     1       2.120  -0.161  -3.731  0.00  0.00    -0.296 N 
ATOM      7  C   UNL     1       0.704  -0.552  -3.783  0.00  0.00    +0.108 C 
ATOM      8  C   UNL     1       0.029  -0.128  -2.476  0.00  0.00    +0.023 C 
ATOM      9  C   UNL     1       0.797  -0.721  -1.293  0.00  0.00    -0.005 C 
ATOM     10  C   UNL     1       0.106  -0.313   0.011  0.00  0.00    +0.004 C 
ATOM     11  C   UNL     1       2.663   0.588  -4.712  0.00  0.00    +0.266 C 
ATOM     12  O   UNL     1       2.005   0.870  -5.696  0.00  0.00    -0.268 OA
ENDROOT
BRANCH  11  13
ATOM     13  C   UNL     1       4.043   1.061  -4.592  0.00  0.00    +0.141 A 
ATOM     14  C   UNL     1       5.204   0.316  -4.785  0.00  0.00    +0.078 A 
ATOM     15  C   UNL     1       6.259   1.215  -4.557  0.00  0.00    +0.087 A 
ATOM     16  N   UNL     1       5.740   2.377  -4.258  0.00  0.00    -0.176 NA
ATOM     17  N   UNL     1       4.457   2.331  -4.273  0.00  0.00    -0.271 N 
ATOM     18  H   UNL     1       3.869   3.079  -4.085  0.00  0.00    +0.189 HD
BRANCH  15  19
ATOM     19  C   UNL     1       7.729   0.896  -4.641  0.00  0.00    +0.041 C 
ATOM     20  C   UNL     1       8.713   1.964  -4.159  0.00  0.00    +0.010 C 
ATOM     21  C   UNL     1       8.565   1.679  -5.655  0.00  0.00    +0.010 C 
ENDBRANCH  15  19
BRANCH  14  22
ATOM     22  N   UNL     1       5.298  -1.030  -5.131  0.00  0.00    -0.355 N 
ATOM     23  H   UNL     1       4.493  -1.554  -5.264  0.00  0.00    +0.142 HD
ATOM     24  H   UNL     1       6.169  -1.444  -5.238  0.00  0.00    +0.142 HD
ENDBRANCH  14  22
ENDBRANCH  11  13
TORSDOF 3
