REMARK  Name = ZINC22920924
REMARK  11 active torsions:
REMARK  status: ('A' for Active; 'I' for Inactive)
REMARK    1  A    between atoms: C_1  and  N_2
REMARK    2  A    between atoms: C_4  and  C_11
REMARK    3  A    between atoms: C_11  and  N_12
REMARK    4  A    between atoms: C_23  and  C_27
REMARK    5  A    between atoms: N_25  and  C_26
REMARK    6  A    between atoms: C_27  and  C_28
REMARK    7  A    between atoms: C_28  and  C_29
REMARK    8  A    between atoms: N_31  and  C_32
REMARK    9  A    between atoms: C_32  and  C_33
REMARK   10  A    between atoms: C_36  and  O_39
REMARK   11  A    between atoms: O_39  and  C_40
REMARK                            x       y       z     vdW  Elec       q    Type
REMARK                         _______ _______ _______ _____ _____    ______ ____
ROOT
ATOM      1  N   UNL     1      -1.049  -4.371  -2.068  0.00  0.00    -0.289 NA
ATOM      2  C   UNL     1      -1.455  -4.604  -0.666  0.00  0.00    +0.084 C 
ATOM      3  C   UNL     1      -2.073  -6.018  -0.601  0.00  0.00    +0.002 C 
ATOM      4  C   UNL     1      -2.509  -6.273  -2.076  0.00  0.00    -0.041 C 
ATOM      5  C   UNL     1      -1.374  -5.580  -2.836  0.00  0.00    +0.130 C 
ATOM      6  C   UNL     1      -1.569  -5.365  -4.268  0.00  0.00    +0.229 C 
ATOM      7  O   UNL     1      -0.580  -5.614  -4.923  0.00  0.00    -0.274 OA
ATOM      8  N   UNL     1      -2.576  -4.963  -4.998  0.00  0.00    -0.316 N 
ATOM      9  C   UNL     1      -3.952  -4.761  -4.588  0.00  0.00    +0.089 C 
ATOM     10  C   UNL     1      -4.381  -5.790  -3.570  0.00  0.00    -0.051 C 
ATOM     11  N   UNL     1      -3.789  -5.630  -2.273  0.00  0.00    +0.384 N 
ATOM     12  C   UNL     1      -4.719  -6.140  -1.256  0.00  0.00    -0.095 C 
ATOM     13  H   UNL     1      -2.378  -4.776  -5.929  0.00  0.00    +0.149 HD
ATOM     14  H   UNL     1      -3.672  -4.640  -2.118  0.00  0.00    -0.081 HD
ENDROOT
BRANCH   1  15
ATOM     15  C   UNL     1       0.384  -4.060  -2.157  0.00  0.00    +0.122 C 
BRANCH  15  19
ATOM     16  C   UNL     1       1.756  -0.146   0.683  0.00  0.00    +0.149 C 
ATOM     17  N   UNL     1       1.222  -0.908  -0.449  0.00  0.00    -0.349 N 
ATOM     18  C   UNL     1       1.166  -2.273  -0.522  0.00  0.00    +0.091 A 
ATOM     19  C   UNL     1       0.622  -2.647  -1.690  0.00  0.00    -0.008 A 
ATOM     20  C   UNL     1       0.303  -1.421  -2.426  0.00  0.00    +0.004 A 
ATOM     21  C   UNL     1       0.696  -0.356  -1.595  0.00  0.00    +0.049 A 
ATOM     22  C   UNL     1       0.510   0.952  -2.030  0.00  0.00    +0.026 A 
ATOM     23  C   UNL     1      -0.059   1.189  -3.263  0.00  0.00    +0.002 A 
ATOM     24  C   UNL     1      -0.449   0.134  -4.077  0.00  0.00    +0.001 A 
ATOM     25  C   UNL     1      -0.267  -1.159  -3.673  0.00  0.00    +0.010 A 
ENDBRANCH  15  19
ENDBRANCH   1  15
BRANCH  10  26
ATOM     26  C   UNL     1      -5.901  -5.717  -3.411  0.00  0.00    -0.005 C 
BRANCH  26  27
ATOM     27  C   UNL     1      -6.568  -5.995  -4.759  0.00  0.00    +0.094 C 
BRANCH  27  28
ATOM     28  C   UNL     1      -8.064  -6.039  -4.580  0.00  0.00    +0.213 C 
ATOM     29  O   UNL     1      -8.548  -5.866  -3.482  0.00  0.00    -0.276 OA
ATOM     30  N   UNL     1      -8.863  -6.272  -5.640  0.00  0.00    -0.311 N 
ATOM     31  H   UNL     1      -8.475  -6.410  -6.519  0.00  0.00    +0.149 HD
BRANCH  30  32
ATOM     32  C   UNL     1     -10.317  -6.314  -5.466  0.00  0.00    +0.139 C 
BRANCH  32  33
ATOM     33  C   UNL     1     -10.974  -6.588  -6.794  0.00  0.00    -0.030 A 
ATOM     34  C   UNL     1     -11.330  -5.536  -7.618  0.00  0.00    +0.009 A 
ATOM     35  C   UNL     1     -11.933  -5.784  -8.836  0.00  0.00    +0.046 A 
ATOM     36  C   UNL     1     -12.181  -7.090  -9.232  0.00  0.00    +0.120 A 
ATOM     37  C   UNL     1     -11.822  -8.144  -8.404  0.00  0.00    +0.046 A 
ATOM     38  C   UNL     1     -11.215  -7.891  -7.190  0.00  0.00    +0.009 A 
BRANCH  36  39
ATOM     39  O   UNL     1     -12.774  -7.337 -10.430  0.00  0.00    -0.495 OA
ATOM     40  C   UNL     1     -12.999  -8.706 -10.773  0.00  0.00    +0.277 C 
ENDBRANCH  36  39
ENDBRANCH  32  33
ENDBRANCH  30  32
ENDBRANCH  27  28
ENDBRANCH  26  27
ENDBRANCH  10  26
TORSDOF 8
