REMARK  Name = ZINC20731050
REMARK  6 active torsions:
REMARK  status: ('A' for Active; 'I' for Inactive)
REMARK    1  A    between atoms: C_2  and  C_3
REMARK    2  A    between atoms: C_3  and  N_4
REMARK    3  A    between atoms: C_5  and  C_23
REMARK    4  A    between atoms: C_8  and  S_9
REMARK    5  A    between atoms: S_9  and  C_10
REMARK    6  A    between atoms: C_21  and  O_22
REMARK                            x       y       z     vdW  Elec       q    Type
REMARK                         _______ _______ _______ _____ _____    ______ ____
ROOT
ATOM      1  N   UNL     1       1.843  -1.897   0.875  0.00  0.00    -0.298 N 
ATOM      2  C   UNL     1       1.843  -1.580   2.214  0.00  0.00    +0.165 A 
ATOM      3  N   UNL     1       1.348  -2.613   2.855  0.00  0.00    -0.128 NA
ATOM      4  N   UNL     1       1.042  -3.541   2.021  0.00  0.00    -0.122 NA
ATOM      5  C   UNL     1       1.319  -3.156   0.795  0.00  0.00    +0.193 A 
ENDROOT
BRANCH   2   6
ATOM      6  C   UNL     1       2.313  -0.314   2.817  0.00  0.00    +0.019 A 
ATOM      7  C   UNL     1       2.928  -0.321   4.070  0.00  0.00    +0.012 A 
ATOM      8  C   UNL     1       3.365   0.863   4.627  0.00  0.00    +0.016 A 
ATOM      9  C   UNL     1       3.194   2.056   3.946  0.00  0.00    +0.018 A 
ATOM     10  C   UNL     1       2.585   2.069   2.703  0.00  0.00    +0.016 A 
ATOM     11  C   UNL     1       2.150   0.891   2.132  0.00  0.00    +0.012 A 
ATOM     12 BR   UNL     1       3.796   3.674   4.718  0.00  0.00    -0.050 Br
ENDBRANCH   2   6
BRANCH   1  13
ATOM     13  C   UNL     1       2.303  -1.057  -0.234  0.00  0.00    +0.152 C 
BRANCH  13  15
ATOM     14  C   UNL     1       1.157   0.966  -0.980  0.00  0.00    +0.005 C 
ATOM     15  C   UNL     1       1.126  -0.336  -0.840  0.00  0.00    -0.013 C 
ENDBRANCH  13  15
ENDBRANCH   1  13
BRANCH   5  16
ATOM     16  S   UNL     1       1.064  -4.090  -0.677  0.00  0.00    -0.073 S 
BRANCH  16  17
ATOM     17  C   UNL     1       0.350  -5.650  -0.089  0.00  0.00    +0.140 C 
ATOM     18  C   UNL     1      -0.058  -6.482  -1.280  0.00  0.00    +0.029 C 
ATOM     19  C   UNL     1      -0.964  -7.620  -0.922  0.00  0.00    +0.039 C 
ATOM     20  C   UNL     1      -0.298  -8.790  -0.269  0.00  0.00    -0.022 A 
ATOM     21  C   UNL     1      -0.822 -10.041  -0.587  0.00  0.00    +0.006 A 
ATOM     22  C   UNL     1      -0.304 -11.196  -0.045  0.00  0.00    +0.000 A 
ATOM     23  C   UNL     1       0.759 -11.120   0.837  0.00  0.00    +0.002 A 
ATOM     24  C   UNL     1       1.289  -9.896   1.159  0.00  0.00    +0.028 A 
ATOM     25  C   UNL     1       0.772  -8.703   0.607  0.00  0.00    +0.071 A 
ATOM     26  N   UNL     1       1.403  -7.579   0.994  0.00  0.00    -0.216 NA
ATOM     27  C   UNL     1       1.348  -6.347   0.764  0.00  0.00    +0.201 C 
BRANCH  27  28
ATOM     28  O   UNL     1       2.288  -5.578   1.350  0.00  0.00    -0.495 OA
ATOM     29  H   UNL     1       2.916  -6.072   1.895  0.00  0.00    +0.293 HD
ENDBRANCH  27  28
ENDBRANCH  16  17
ENDBRANCH   5  16
TORSDOF 6
