REMARK  Name = ZINC09426089
REMARK  10 active torsions:
REMARK  status: ('A' for Active; 'I' for Inactive)
REMARK    1  A    between atoms: C_1  and  C_2
REMARK    2  A    between atoms: C_2  and  C_4
REMARK    3  A    between atoms: C_2  and  N_12
REMARK    4  A    between atoms: C_4  and  C_5
REMARK    5  A    between atoms: C_5  and  C_6
REMARK    6  A    between atoms: N_12  and  S_13
REMARK    7  A    between atoms: S_13  and  C_16
REMARK    8  A    between atoms: C_19  and  O_30
REMARK    9  A    between atoms: C_20  and  C_22
REMARK   10  A    between atoms: O_30  and  C_31
REMARK                            x       y       z     vdW  Elec       q    Type
REMARK                         _______ _______ _______ _____ _____    ______ ____
ROOT
ATOM      1  C   UNL     1       8.674  -2.506  -1.117  0.00  0.00    +0.106 A 
ATOM      2  C   UNL     1       8.311  -3.833  -1.279  0.00  0.00    +0.032 A 
ATOM      3  C   UNL     1       9.021  -4.651  -2.135  0.00  0.00    +0.048 A 
ATOM      4  C   UNL     1      10.111  -4.150  -2.832  0.00  0.00    +0.132 A 
ATOM      5  C   UNL     1      10.484  -2.810  -2.667  0.00  0.00    +0.080 A 
ATOM      6  C   UNL     1       9.754  -1.992  -1.801  0.00  0.00    +0.045 A 
ENDROOT
BRANCH   5   7
ATOM      7  C   UNL     1      11.641  -2.265  -3.403  0.00  0.00    +0.250 C 
ATOM      8  O   UNL     1      11.697  -2.373  -4.613  0.00  0.00    -0.270 OA
ATOM      9  N   UNL     1      12.635  -1.649  -2.735  0.00  0.00    -0.297 N 
ATOM     10  C   UNL     1      12.642  -1.616  -1.266  0.00  0.00    +0.108 C 
ATOM     11  C   UNL     1      13.991  -2.160  -0.771  0.00  0.00    +0.019 C 
ATOM     12  C   UNL     1      15.125  -1.365  -1.423  0.00  0.00    +0.003 C 
ATOM     13  C   UNL     1      15.064  -1.538  -2.942  0.00  0.00    +0.019 C 
ATOM     14  C   UNL     1      13.730  -0.991  -3.461  0.00  0.00    +0.108 C 
ENDBRANCH   5   7
BRANCH   1  15
ATOM     15  S   UNL     1       7.755  -1.473  -0.025  0.00  0.00    +0.059 S 
ATOM     16  O   UNL     1       8.627  -0.423   0.372  0.00  0.00    -0.153 OA
ATOM     17  O   UNL     1       7.122  -2.333   0.912  0.00  0.00    -0.153 OA
BRANCH  15  18
ATOM     18  N   UNL     1       6.546  -0.772  -0.915  0.00  0.00    -0.187 NA
ATOM     19  H   UNL     1       6.538   0.188  -1.051  0.00  0.00    +0.148 HD
BRANCH  18  21
ATOM     20  C   UNL     1       5.851  -1.954  -2.940  0.00  0.00    +0.025 C 
ATOM     21  C   UNL     1       5.489  -1.603  -1.496  0.00  0.00    +0.074 C 
BRANCH  21  22
ATOM     22  C   UNL     1       4.166  -0.835  -1.474  0.00  0.00    +0.025 C 
BRANCH  22  23
ATOM     23  C   UNL     1       3.741  -0.594  -0.024  0.00  0.00    +0.037 C 
BRANCH  23  24
ATOM     24  C   UNL     1       2.438   0.163  -0.002  0.00  0.00    -0.047 A 
ATOM     25  C   UNL     1       1.239  -0.525   0.004  0.00  0.00    +0.003 A 
ATOM     26  C   UNL     1       0.044   0.170   0.024  0.00  0.00    +0.000 A 
ATOM     27  C   UNL     1       0.048   1.552   0.038  0.00  0.00    +0.000 A 
ATOM     28  C   UNL     1       1.247   2.240   0.033  0.00  0.00    +0.000 A 
ATOM     29  C   UNL     1       2.442   1.546   0.013  0.00  0.00    +0.003 A 
ENDBRANCH  23  24
ENDBRANCH  22  23
ENDBRANCH  21  22
ENDBRANCH  18  21
ENDBRANCH  15  18
ENDBRANCH   1  15
BRANCH   4  30
ATOM     30  O   UNL     1      10.811  -4.954  -3.670  0.00  0.00    -0.494 OA
ATOM     31  C   UNL     1      10.372  -6.309  -3.788  0.00  0.00    +0.277 C 
ENDBRANCH   4  30
TORSDOF 8
