REMARK  Name = ZINC09468641
REMARK  5 active torsions:
REMARK  status: ('A' for Active; 'I' for Inactive)
REMARK    1  A    between atoms: C_1  and  C_2
REMARK    2  A    between atoms: C_15  and  C_17
REMARK    3  A    between atoms: C_17  and  S_18
REMARK    4  A    between atoms: S_18  and  C_19
REMARK    5  A    between atoms: N_23  and  C_24
REMARK                            x       y       z     vdW  Elec       q    Type
REMARK                         _______ _______ _______ _____ _____    ______ ____
ROOT
ATOM      1  S   UNL     1       7.103   1.310  -0.594  0.00  0.00    -0.076 S 
ENDROOT
BRANCH   1   2
ATOM      2  C   UNL     1       5.503   0.665  -0.238  0.00  0.00    +0.198 A 
ATOM      3  N   UNL     1       5.122  -0.580  -0.389  0.00  0.00    -0.120 NA
ATOM      4  N   UNL     1       3.783  -0.676   0.011  0.00  0.00    -0.112 NA
ATOM      5  C   UNL     1       3.384   0.515   0.385  0.00  0.00    +0.225 A 
ATOM      6  N   UNL     1       4.437   1.377   0.245  0.00  0.00    -0.257 N 
ATOM      7  N   UNL     1       2.116   0.844   0.848  0.00  0.00    -0.299 N 
ATOM      8  C   UNL     1       1.494   1.881  -0.002  0.00  0.00    +0.108 C 
ATOM      9  C   UNL     1      -0.019   1.547   0.011  0.00  0.00    +0.020 C 
ATOM     10  C   UNL     1       0.002  -0.004   0.002  0.00  0.00    +0.020 C 
ATOM     11  C   UNL     1       1.237  -0.340   0.865  0.00  0.00    +0.108 C 
BRANCH   6  12
ATOM     12  C   UNL     1       4.428   2.748   0.544  0.00  0.00    +0.070 A 
ATOM     13  C   UNL     1       4.766   3.184   1.818  0.00  0.00    +0.028 A 
ATOM     14  C   UNL     1       4.760   4.534   2.108  0.00  0.00    +0.002 A 
ATOM     15  C   UNL     1       4.409   5.451   1.135  0.00  0.00    +0.002 A 
ATOM     16  C   UNL     1       4.067   5.021  -0.134  0.00  0.00    +0.022 A 
ATOM     17  C   UNL     1       4.075   3.671  -0.432  0.00  0.00    +0.065 A 
ATOM     18 CL   UNL     1       3.645   3.130  -2.025  0.00  0.00    -0.081 Cl
ENDBRANCH   6  12
ENDBRANCH   1   2
BRANCH   1  19
ATOM     19  C   UNL     1       8.033  -0.129  -1.192  0.00  0.00    +0.173 C 
BRANCH  19  33
ATOM     20  C   UNL     1      11.809  -0.102  -3.870  0.00  0.00    +0.029 C 
ATOM     21  C   UNL     1      11.684  -0.227  -2.350  0.00  0.00    +0.087 C 
ATOM     22  C   UNL     1      12.668  -1.284  -1.839  0.00  0.00    +0.118 C 
ATOM     23  C   UNL     1      12.296  -1.712  -0.444  0.00  0.00    +0.219 C 
ATOM     24  O   UNL     1      12.944  -1.313   0.502  0.00  0.00    -0.275 OA
ATOM     25  N   UNL     1      11.247  -2.537  -0.238  0.00  0.00    -0.284 N 
ATOM     26  C   UNL     1      10.432  -2.929  -1.306  0.00  0.00    +0.055 A 
ATOM     27  C   UNL     1      10.088  -4.259  -1.486  0.00  0.00    +0.025 A 
ATOM     28  C   UNL     1       9.238  -4.616  -2.516  0.00  0.00    +0.002 A 
ATOM     29  C   UNL     1       8.730  -3.651  -3.367  0.00  0.00    +0.002 A 
ATOM     30  C   UNL     1       9.076  -2.323  -3.200  0.00  0.00    +0.025 A 
ATOM     31  C   UNL     1       9.935  -1.958  -2.176  0.00  0.00    +0.058 A 
ATOM     32  N   UNL     1      10.316  -0.620  -2.005  0.00  0.00    -0.266 N 
ATOM     33  C   UNL     1       9.439   0.289  -1.537  0.00  0.00    +0.230 C 
ATOM     34  O   UNL     1       9.780   1.444  -1.394  0.00  0.00    -0.274 OA
ATOM     35  H   UNL     1      11.056  -2.860   0.657  0.00  0.00    +0.155 HD
ENDBRANCH  19  33
ENDBRANCH   1  19
TORSDOF 4
