REMARK  Name = ZINC38705232
REMARK  10 active torsions:
REMARK  status: ('A' for Active; 'I' for Inactive)
REMARK    1  A    between atoms: C_1  and  C_2
REMARK    2  A    between atoms: C_4  and  C_37
REMARK    3  A    between atoms: C_5  and  C_9
REMARK    4  A    between atoms: C_6  and  O_8
REMARK    5  A    between atoms: N_17  and  C_30
REMARK    6  A    between atoms: C_18  and  C_20
REMARK    7  A    between atoms: C_23  and  O_26
REMARK    8  A    between atoms: O_26  and  C_27
REMARK    9  A    between atoms: C_27  and  C_28
REMARK   10  A    between atoms: C_30  and  C_31
REMARK                            x       y       z     vdW  Elec       q    Type
REMARK                         _______ _______ _______ _____ _____    ______ ____
ROOT
ATOM      1  C   UNL     1       0.218  -4.519  -0.145  0.00  0.00    +0.102 A 
ATOM      2  C   UNL     1       0.245  -5.247   1.049  0.00  0.00    +0.035 A 
ATOM      3  C   UNL     1       0.192  -6.578   0.680  0.00  0.00    +0.126 A 
ATOM      4  N   UNL     1       0.138  -6.591  -0.685  0.00  0.00    -0.272 N 
ATOM      5  H   UNL     1       0.092  -7.390  -1.233  0.00  0.00    +0.189 HD
ATOM      6  N   UNL     1       0.149  -5.387  -1.135  0.00  0.00    -0.173 NA
ATOM      7  C   UNL     1       0.215  -7.400   1.895  0.00  0.00    +0.266 C 
ATOM      8  O   UNL     1       0.180  -8.616   1.911  0.00  0.00    -0.268 OA
ATOM      9  N   UNL     1       0.280  -6.619   2.988  0.00  0.00    -0.281 N 
ATOM     10  C   UNL     1       0.305  -5.217   2.551  0.00  0.00    +0.142 C 
ENDROOT
BRANCH   1  15
ATOM     11  C   UNL     1       0.367   1.220  -0.650  0.00  0.00    +0.044 C 
ATOM     12  C   UNL     1       0.326  -0.281  -0.516  0.00  0.00    -0.047 A 
ATOM     13  C   UNL     1       1.194  -1.062  -1.258  0.00  0.00    +0.007 A 
ATOM     14  C   UNL     1       1.163  -2.437  -1.142  0.00  0.00    -0.037 A 
ATOM     15  C   UNL     1       0.256  -3.041  -0.274  0.00  0.00    +0.047 A 
ATOM     16  C   UNL     1      -0.619  -2.249   0.474  0.00  0.00    +0.127 A 
ATOM     17  C   UNL     1      -0.573  -0.869   0.352  0.00  0.00    +0.049 A 
ATOM     18  C   UNL     1       2.109  -3.285  -1.953  0.00  0.00    +0.044 C 
BRANCH  16  19
ATOM     19  O   UNL     1      -1.507  -2.829   1.323  0.00  0.00    -0.506 OA
ATOM     20  H   UNL     1      -1.199  -2.881   2.239  0.00  0.00    +0.292 HD
ENDBRANCH  16  19
ENDBRANCH   1  15
BRANCH  10  21
ATOM     21  C   UNL     1       1.579  -4.553   3.006  0.00  0.00    -0.022 A 
ATOM     22  C   UNL     1       2.796  -5.171   2.785  0.00  0.00    +0.009 A 
ATOM     23  C   UNL     1       3.965  -4.565   3.201  0.00  0.00    +0.046 A 
ATOM     24  C   UNL     1       3.918  -3.335   3.842  0.00  0.00    +0.121 A 
ATOM     25  C   UNL     1       2.696  -2.717   4.062  0.00  0.00    +0.046 A 
ATOM     26  C   UNL     1       1.529  -3.325   3.639  0.00  0.00    +0.009 A 
BRANCH  24  27
ATOM     27  O   UNL     1       5.067  -2.737   4.253  0.00  0.00    -0.488 OA
BRANCH  27  28
ATOM     28  C   UNL     1       4.942  -1.472   4.905  0.00  0.00    +0.256 C 
BRANCH  28  29
ATOM     29  C   UNL     1       6.310  -0.966   5.286  0.00  0.00    +0.006 C 
ATOM     30  C   UNL     1       6.633   0.283   5.060  0.00  0.00    +0.007 C 
ENDBRANCH  28  29
ENDBRANCH  27  28
ENDBRANCH  24  27
ENDBRANCH  10  21
BRANCH   9  31
ATOM     31  C   UNL     1       0.320  -7.087   4.376  0.00  0.00    +0.145 C 
BRANCH  31  32
ATOM     32  C   UNL     1       1.752  -7.289   4.797  0.00  0.00    -0.012 A 
ATOM     33  C   UNL     1       2.374  -8.514   4.608  0.00  0.00    +0.008 A 
ATOM     34  C   UNL     1       3.693  -8.654   5.011  0.00  0.00    +0.020 A 
ATOM     35  C   UNL     1       4.340  -7.575   5.584  0.00  0.00    +0.111 A 
ATOM     36  N   UNL     1       3.717  -6.425   5.749  0.00  0.00    -0.263 NA
ATOM     37  C   UNL     1       2.465  -6.254   5.372  0.00  0.00    +0.115 A 
ENDBRANCH  31  32
ENDBRANCH   9  31
TORSDOF 8
