REMARK  Name = ZINC12696143
REMARK  7 active torsions:
REMARK  status: ('A' for Active; 'I' for Inactive)
REMARK    1  A    between atoms: C_4  and  C_7
REMARK    2  A    between atoms: C_7  and  C_9
REMARK    3  A    between atoms: C_7  and  S_17
REMARK    4  A    between atoms: S_17  and  C_18
REMARK    5  A    between atoms: C_21  and  C_24
REMARK    6  A    between atoms: N_22  and  N_23
REMARK    7  A    between atoms: C_24  and  C_25
REMARK                            x       y       z     vdW  Elec       q    Type
REMARK                         _______ _______ _______ _____ _____    ______ ____
ROOT
ATOM      1  C   UNL     1      -3.728   1.053   3.456  0.00  0.00    +0.209 A 
ATOM      2  N   UNL     1      -3.069  -0.065   3.256  0.00  0.00    -0.121 NA
ATOM      3  N   UNL     1      -2.595  -0.084   2.061  0.00  0.00    -0.132 NA
ATOM      4  C   UNL     1      -2.912   1.015   1.437  0.00  0.00    +0.155 A 
ATOM      5  N   UNL     1      -3.648   1.777   2.302  0.00  0.00    -0.228 N 
ENDROOT
BRANCH   5   6
ATOM      6  N   UNL     1      -4.191   3.007   2.060  0.00  0.00    -0.295 N 
ATOM      7  H   UNL     1      -5.124   2.923   1.685  0.00  0.00    +0.163 HD
ATOM      8  H   UNL     1      -4.186   3.575   2.894  0.00  0.00    +0.163 HD
ENDBRANCH   5   6
BRANCH   1   9
ATOM      9  S   UNL     1      -4.558   1.529   4.936  0.00  0.00    -0.067 S 
BRANCH   9  10
ATOM     10  C   UNL     1      -4.215   0.082   5.968  0.00  0.00    +0.170 C 
BRANCH  10  11
ATOM     11  C   UNL     1      -4.740   0.322   7.360  0.00  0.00    +0.233 C 
ATOM     12  O   UNL     1      -5.651   1.103   7.538  0.00  0.00    -0.274 OA
ATOM     13  N   UNL     1      -4.199  -0.332   8.407  0.00  0.00    -0.300 N 
ATOM     14  C   UNL     1      -3.099  -1.285   8.206  0.00  0.00    +0.108 C 
ATOM     15  C   UNL     1      -1.935  -0.890   9.127  0.00  0.00    +0.019 C 
ATOM     16  C   UNL     1      -2.439  -0.807  10.570  0.00  0.00    +0.003 C 
ATOM     17  C   UNL     1      -3.522   0.270  10.673  0.00  0.00    +0.019 C 
ATOM     18  C   UNL     1      -4.700  -0.108   9.770  0.00  0.00    +0.108 C 
ENDBRANCH  10  11
BRANCH  10  22
ATOM     19  C   UNL     1      -6.132  -3.349   4.294  0.00  0.00    +0.000 A 
ATOM     20  C   UNL     1      -4.758  -3.330   4.448  0.00  0.00    +0.000 A 
ATOM     21  C   UNL     1      -4.138  -2.220   4.989  0.00  0.00    +0.005 A 
ATOM     22  C   UNL     1      -4.891  -1.128   5.377  0.00  0.00    -0.025 A 
ATOM     23  C   UNL     1      -6.266  -1.148   5.229  0.00  0.00    +0.005 A 
ATOM     24  C   UNL     1      -6.886  -2.257   4.683  0.00  0.00    +0.000 A 
ENDBRANCH  10  22
ENDBRANCH   9  10
ENDBRANCH   1   9
BRANCH   4  25
ATOM     25  C   UNL     1      -2.541   1.377   0.022  0.00  0.00    +0.113 C 
BRANCH  25  26
ATOM     26  C   UNL     1      -1.227   2.115   0.019  0.00  0.00    -0.032 A 
ATOM     27  C   UNL     1      -1.207   3.476   0.031  0.00  0.00    +0.004 A 
ATOM     28  C   UNL     1      -0.002   4.175   0.023  0.00  0.00    +0.001 A 
ATOM     29  C   UNL     1       1.190   3.518   0.009  0.00  0.00    +0.008 A 
ATOM     30  C   UNL     1       1.209   2.113   0.002  0.00  0.00    -0.018 A 
ATOM     31  C   UNL     1      -0.017   1.401   0.010  0.00  0.00    -0.014 A 
ATOM     32  C   UNL     1       0.002  -0.004   0.002  0.00  0.00    +0.009 A 
ATOM     33  C   UNL     1       1.194  -0.661  -0.013  0.00  0.00    +0.001 A 
ATOM     34  C   UNL     1       2.399   0.038  -0.021  0.00  0.00    +0.001 A 
ATOM     35  C   UNL     1       2.420   1.399  -0.014  0.00  0.00    +0.008 A 
ENDBRANCH  25  26
ENDBRANCH   4  25
TORSDOF 7
