REMARK  Name = ZINC22418169
REMARK  13 active torsions:
REMARK  status: ('A' for Active; 'I' for Inactive)
REMARK    1  A    between atoms: C_1  and  N_2
REMARK    2  A    between atoms: N_2  and  C_3
REMARK    3  A    between atoms: N_2  and  C_4
REMARK    4  A    between atoms: C_7  and  C_10
REMARK    5  A    between atoms: C_10  and  C_12
REMARK    6  A    between atoms: C_10  and  N_29
REMARK    7  A    between atoms: C_12  and  N_13
REMARK    8  A    between atoms: C_14  and  C_16
REMARK    9  A    between atoms: C_18  and  O_27
REMARK   10  A    between atoms: C_19  and  O_25
REMARK   11  A    between atoms: C_21  and  N_22
REMARK   12  A    between atoms: O_25  and  C_26
REMARK   13  A    between atoms: O_27  and  C_28
REMARK                            x       y       z     vdW  Elec       q    Type
REMARK                         _______ _______ _______ _____ _____    ______ ____
ROOT
ATOM      1  C   UNL     1      -0.814   2.595   1.189  0.00  0.00    -0.020 C 
ENDROOT
BRANCH   1   2
ATOM      2  N   UNL     1      -1.614   3.200   0.116  0.00  0.00    +0.388 N 
ATOM      3  C   UNL     1      -0.923   3.098  -1.179  0.00  0.00    -0.073 C 
ATOM      4  C   UNL     1      -1.929   3.397  -2.292  0.00  0.00    +0.017 C 
ATOM      5  C   UNL     1      -2.658   4.682  -1.994  0.00  0.00    -0.048 A 
ATOM      6  C   UNL     1      -3.341   5.309  -3.026  0.00  0.00    +0.004 A 
ATOM      7  C   UNL     1      -4.025   6.486  -2.796  0.00  0.00    +0.000 A 
ATOM      8  C   UNL     1      -4.029   7.043  -1.530  0.00  0.00    +0.000 A 
ATOM      9  C   UNL     1      -3.348   6.420  -0.503  0.00  0.00    +0.002 A 
ATOM     10  C   UNL     1      -2.658   5.239  -0.733  0.00  0.00    -0.061 A 
ATOM     11  C   UNL     1      -1.923   4.602   0.417  0.00  0.00    -0.042 C 
ATOM     12  H   UNL     1      -2.561   2.644   0.052  0.00  0.00    -0.080 HD
ENDBRANCH   1   2
BRANCH   1  16
ATOM     13  C   UNL     1       2.788   4.833   1.715  0.00  0.00    +0.029 A 
ATOM     14  C   UNL     1       2.821   3.603   1.072  0.00  0.00    +0.023 A 
ATOM     15  C   UNL     1       1.655   2.882   0.903  0.00  0.00    +0.004 A 
ATOM     16  C   UNL     1       0.456   3.384   1.374  0.00  0.00    -0.059 A 
ATOM     17  C   UNL     1       0.419   4.612   2.010  0.00  0.00    +0.004 A 
ATOM     18  C   UNL     1       1.582   5.335   2.187  0.00  0.00    +0.023 A 
BRANCH  13  20
ATOM     19  C   UNL     1       5.237   5.035   1.388  0.00  0.00    +0.129 C 
ATOM     20  N   UNL     1       3.966   5.565   1.887  0.00  0.00    -0.336 N 
ATOM     21  C   UNL     1       3.929   6.863   2.566  0.00  0.00    +0.129 C 
ENDBRANCH  13  20
ENDBRANCH   1  16
BRANCH   1  22
ATOM     22  C   UNL     1      -1.617   2.606   2.491  0.00  0.00    +0.094 C 
BRANCH  22  23
ATOM     23  N   UNL     1      -2.905   1.942   2.277  0.00  0.00    -0.313 N 
ATOM     24  C   UNL     1      -3.784   1.833   3.293  0.00  0.00    +0.246 C 
ATOM     25  O   UNL     1      -3.508   2.285   4.387  0.00  0.00    -0.270 OA
ATOM     26  H   UNL     1      -3.155   1.532   1.287  0.00  0.00    +0.149 HD
BRANCH  24  27
ATOM     27  C   UNL     1      -5.081   1.163   3.078  0.00  0.00    +0.070 A 
ATOM     28  C   UNL     1      -5.344   0.518   1.866  0.00  0.00    +0.064 A 
ATOM     29  C   UNL     1      -6.557  -0.113   1.671  0.00  0.00    +0.162 A 
ATOM     30  C   UNL     1      -7.521  -0.094   2.678  0.00  0.00    +0.164 A 
ATOM     31  C   UNL     1      -7.263   0.552   3.879  0.00  0.00    +0.082 A 
ATOM     32  C   UNL     1      -6.052   1.178   4.082  0.00  0.00    +0.142 A 
BRANCH  32  33
ATOM     33  N   UNL     1      -5.780   1.866   5.364  0.00  0.00    +0.057 N 
ATOM     34  O   UNL     1      -5.989   1.294   6.418  0.00  0.00    -0.126 OA
ATOM     35  O   UNL     1      -5.348   3.005   5.364  0.00  0.00    -0.126 OA
ENDBRANCH  32  33
BRANCH  30  36
ATOM     36  O   UNL     1      -8.716  -0.710   2.483  0.00  0.00    -0.491 OA
ATOM     37  C   UNL     1      -9.658  -0.652   3.556  0.00  0.00    +0.277 C 
ENDBRANCH  30  36
BRANCH  29  38
ATOM     38  O   UNL     1      -6.813  -0.748   0.496  0.00  0.00    -0.491 OA
ATOM     39  C   UNL     1      -5.779  -0.727  -0.490  0.00  0.00    +0.277 C 
ENDBRANCH  29  38
ENDBRANCH  24  27
ENDBRANCH  22  23
ENDBRANCH   1  22
TORSDOF 9
