REMARK  Name = ZINC01709006
REMARK  3 active torsions:
REMARK  status: ('A' for Active; 'I' for Inactive)
REMARK    1  A    between atoms: C_1  and  C_2
REMARK    2  A    between atoms: C_3  and  C_4
REMARK    3  A    between atoms: C_14  and  C_16
REMARK                            x       y       z     vdW  Elec       q    Type
REMARK                         _______ _______ _______ _____ _____    ______ ____
ROOT
ATOM      1  C   UNL     1      -1.133   2.219   0.020  0.00  0.00    +0.244 C 
ATOM      2  O   UNL     1      -1.045   3.428   0.117  0.00  0.00    -0.270 OA
ATOM      3  N   UNL     1      -0.018   1.461   0.010  0.00  0.00    -0.260 N 
ATOM      4  C   UNL     1       1.288   1.958  -0.004  0.00  0.00    +0.040 A 
ATOM      5  C   UNL     1       1.731   3.283  -0.007  0.00  0.00    +0.024 A 
ATOM      6  C   UNL     1       3.080   3.564  -0.023  0.00  0.00    +0.002 A 
ATOM      7  C   UNL     1       4.006   2.537  -0.036  0.00  0.00    +0.000 A 
ATOM      8  C   UNL     1       3.575   1.223  -0.033  0.00  0.00    +0.005 A 
ATOM      9  C   UNL     1       2.224   0.936  -0.017  0.00  0.00    -0.024 A 
ATOM     10  C   UNL     1       1.491  -0.387  -0.011  0.00  0.00    +0.064 C 
ATOM     11  C   UNL     1       0.002  -0.004   0.008  0.00  0.00    +0.118 C 
ENDROOT
BRANCH  11  12
ATOM     12  C   UNL     1      -0.662  -0.538   1.250  0.00  0.00    -0.001 A 
ATOM     13  C   UNL     1      -0.888   0.137   2.388  0.00  0.00    +0.089 A 
ATOM     14  N   UNL     1      -1.515  -0.673   3.295  0.00  0.00    -0.360 N 
ATOM     15  H   UNL     1      -1.783  -0.407   4.189  0.00  0.00    +0.165 HD
ATOM     16  C   UNL     1      -1.704  -1.925   2.753  0.00  0.00    +0.047 A 
ATOM     17  C   UNL     1      -1.178  -1.895   1.448  0.00  0.00    +0.005 A 
ATOM     18  C   UNL     1      -1.230  -3.039   0.650  0.00  0.00    +0.010 A 
ATOM     19  C   UNL     1      -1.792  -4.184   1.141  0.00  0.00    +0.001 A 
ATOM     20  C   UNL     1      -2.312  -4.218   2.428  0.00  0.00    +0.002 A 
ATOM     21  C   UNL     1      -2.271  -3.100   3.232  0.00  0.00    +0.026 A 
ENDBRANCH  11  12
BRANCH   1  24
ATOM     22  C   UNL     1      -4.903   1.683  -0.290  0.00  0.00    +0.035 C 
ATOM     23  C   UNL     1      -3.548   2.334  -0.179  0.00  0.00    -0.025 C 
ATOM     24  C   UNL     1      -2.454   1.583  -0.088  0.00  0.00    +0.063 C 
ENDBRANCH   1  24
TORSDOF 2
