REMARK  Name = ZINC38581793
REMARK  7 active torsions:
REMARK  status: ('A' for Active; 'I' for Inactive)
REMARK    1  A    between atoms: C_1  and  C_2
REMARK    2  A    between atoms: C_5  and  C_38
REMARK    3  A    between atoms: C_6  and  S_8
REMARK    4  A    between atoms: S_8  and  C_11
REMARK    5  A    between atoms: N_23  and  N_27
REMARK    6  A    between atoms: C_24  and  N_26
REMARK    7  A    between atoms: C_28  and  C_29
REMARK                            x       y       z     vdW  Elec       q    Type
REMARK                         _______ _______ _______ _____ _____    ______ ____
ROOT
ATOM      1  C   UNL     1      -1.471  -4.074   2.684  0.00  0.00    +0.224 C 
ATOM      2  C   UNL     1      -2.563  -3.041   2.510  0.00  0.00    +0.111 A 
ATOM      3  C   UNL     1      -3.421  -3.119   3.619  0.00  0.00    +0.166 A 
ATOM      4  N   UNL     1      -4.466  -2.304   3.698  0.00  0.00    -0.227 NA
ATOM      5  C   UNL     1      -4.699  -1.417   2.728  0.00  0.00    +0.091 A 
ATOM      6  C   UNL     1      -5.800  -0.544   2.792  0.00  0.00    +0.030 A 
ATOM      7  C   UNL     1      -6.012   0.351   1.789  0.00  0.00    +0.002 A 
ATOM      8  C   UNL     1      -5.153   0.417   0.693  0.00  0.00    +0.002 A 
ATOM      9  C   UNL     1      -4.077  -0.412   0.597  0.00  0.00    +0.030 A 
ATOM     10  C   UNL     1      -3.826  -1.348   1.613  0.00  0.00    +0.090 A 
ATOM     11  N   UNL     1      -2.777  -2.176   1.548  0.00  0.00    -0.245 NA
ATOM     12  N   UNL     1      -3.010  -4.098   4.511  0.00  0.00    -0.186 N 
ATOM     13  C   UNL     1      -1.796  -4.760   4.021  0.00  0.00    +0.195 C 
ENDROOT
BRANCH   1  14
ATOM     14  S   UNL     1       0.154  -3.271   2.763  0.00  0.00    +0.009 S 
ATOM     15  O   UNL     1       1.171  -4.242   2.966  0.00  0.00    -0.169 OA
ATOM     16  O   UNL     1       0.087  -2.111   3.582  0.00  0.00    -0.169 OA
BRANCH  14  22
ATOM     17  C   UNL     1       0.626   0.670  -0.637  0.00  0.00    +0.044 C 
ATOM     18  C   UNL     1       0.641  -0.814  -0.379  0.00  0.00    -0.049 A 
ATOM     19  C   UNL     1       0.876  -1.695  -1.418  0.00  0.00    +0.004 A 
ATOM     20  C   UNL     1       0.890  -3.056  -1.181  0.00  0.00    +0.005 A 
ATOM     21  C   UNL     1       0.669  -3.538   0.096  0.00  0.00    -0.026 A 
ATOM     22  C   UNL     1       0.435  -2.657   1.136  0.00  0.00    +0.092 A 
ATOM     23  C   UNL     1       0.426  -1.295   0.899  0.00  0.00    +0.030 A 
ATOM     24  C   UNL     1       0.684  -5.022   0.355  0.00  0.00    +0.046 C 
ENDBRANCH  14  22
ENDBRANCH   1  14
BRANCH  13  25
ATOM     25  N   UNL     1      -2.045  -6.193   3.809  0.00  0.00    -0.309 NA
ATOM     26  H   UNL     1      -2.336  -6.639   4.666  0.00  0.00    +0.120 HD
ATOM     27  H   UNL     1      -2.724  -6.337   3.077  0.00  0.00    +0.120 HD
ENDBRANCH  13  25
BRANCH  12  28
ATOM     28  N   UNL     1      -3.610  -4.387   5.616  0.00  0.00    -0.185 NA
ATOM     29  C   UNL     1      -3.078  -5.253   6.445  0.00  0.00    +0.136 C 
BRANCH  29  30
ATOM     30  C   UNL     1      -3.760  -5.616   7.610  0.00  0.00    +0.000 C 
ATOM     31  C   UNL     1      -3.335  -6.512   8.593  0.00  0.00    +0.004 A 
ATOM     32  C   UNL     1      -2.167  -7.292   8.731  0.00  0.00    +0.010 A 
ATOM     33  C   UNL     1      -2.018  -8.094   9.817  0.00  0.00    +0.001 A 
ATOM     34  C   UNL     1      -2.996  -8.169  10.811  0.00  0.00    +0.002 A 
ATOM     35  C   UNL     1      -4.141  -7.448  10.743  0.00  0.00    +0.026 A 
ATOM     36  C   UNL     1      -4.369  -6.588   9.638  0.00  0.00    +0.043 A 
ATOM     37  N   UNL     1      -5.381  -5.796   9.343  0.00  0.00    -0.380 N 
ATOM     38  C   UNL     1      -5.110  -5.114   8.074  0.00  0.00    +0.150 C 
ATOM     39  H   UNL     1      -6.179  -5.680   9.883  0.00  0.00    +0.160 HD
ENDBRANCH  29  30
ENDBRANCH  12  28
TORSDOF 5
