REMARK  Name = ZINC09260690
REMARK  9 active torsions:
REMARK  status: ('A' for Active; 'I' for Inactive)
REMARK    1  A    between atoms: C_1  and  C_2
REMARK    2  A    between atoms: C_5  and  S_8
REMARK    3  A    between atoms: S_8  and  N_11
REMARK    4  A    between atoms: N_11  and  C_12
REMARK    5  A    between atoms: C_15  and  C_18
REMARK    6  A    between atoms: C_21  and  C_24
REMARK    7  A    between atoms: C_29  and  C_31
REMARK    8  A    between atoms: C_31  and  C_32
REMARK    9  A    between atoms: C_31  and  C_33
REMARK                            x       y       z     vdW  Elec       q    Type
REMARK                         _______ _______ _______ _____ _____    ______ ____
ROOT
ATOM      1  C   UNL     1       1.130   2.397  -0.176  0.00  0.00    +0.048 A 
ATOM      2  C   UNL     1       2.310   2.002   0.446  0.00  0.00    +0.025 A 
ATOM      3  C   UNL     1       3.463   2.733   0.266  0.00  0.00    +0.011 A 
ATOM      4  C   UNL     1       3.445   3.878  -0.536  0.00  0.00    -0.002 A 
ATOM      5  C   UNL     1       2.256   4.274  -1.155  0.00  0.00    +0.011 A 
ATOM      6  C   UNL     1       1.107   3.536  -0.974  0.00  0.00    +0.025 A 
ENDROOT
BRANCH   4   7
ATOM      7  C   UNL     1       4.676   4.665  -0.728  0.00  0.00    +0.069 C 
ATOM      8  N   UNL     1       4.772   5.733  -1.442  0.00  0.00    -0.181 NA
ATOM      9  N   UNL     1       6.048   6.292  -1.463  0.00  0.00    -0.182 N 
ATOM     10  C   UNL     1       6.941   5.469  -0.632  0.00  0.00    +0.173 C 
ATOM     11  C   UNL     1       6.019   4.348  -0.111  0.00  0.00    +0.090 C 
ATOM     12  C   UNL     1       6.406   7.405  -2.133  0.00  0.00    +0.238 C 
ATOM     13  O   UNL     1       7.550   7.804  -2.079  0.00  0.00    -0.274 OA
BRANCH  10  14
ATOM     14  C   UNL     1       8.063   4.901  -1.462  0.00  0.00    +0.128 A 
ATOM     15  C   UNL     1       9.342   4.763  -1.068  0.00  0.00    +0.046 A 
ATOM     16  C   UNL     1      10.046   4.193  -2.153  0.00  0.00    +0.041 A 
ATOM     17  C   UNL     1       9.155   4.016  -3.146  0.00  0.00    +0.195 A 
ATOM     18  O   UNL     1       7.955   4.441  -2.720  0.00  0.00    -0.466 OA
ENDBRANCH  10  14
BRANCH  12  19
ATOM     19  C   UNL     1       5.384   8.155  -2.949  0.00  0.00    +0.071 C 
ATOM     20  C   UNL     1       6.045   9.370  -3.602  0.00  0.00    +0.017 C 
ATOM     21  C   UNL     1       4.824   7.234  -4.034  0.00  0.00    +0.017 C 
ENDBRANCH  12  19
ENDBRANCH   4   7
BRANCH   1  22
ATOM     22  N   UNL     1      -0.035   1.651   0.005  0.00  0.00    -0.216 N 
ATOM     23  H   UNL     1      -0.874   2.100   0.194  0.00  0.00    +0.174 HD
BRANCH  22  24
ATOM     24  S   UNL     1       0.013  -0.000  -0.109  0.00  0.00    +0.072 S 
ATOM     25  O   UNL     1       1.067  -0.435   0.739  0.00  0.00    -0.150 OA
ATOM     26  O   UNL     1      -1.325  -0.456   0.043  0.00  0.00    -0.150 OA
BRANCH  24  31
ATOM     27  C   UNL     1       1.665  -1.352  -5.752  0.00  0.00    +0.044 C 
ATOM     28  C   UNL     1       1.252  -1.015  -4.342  0.00  0.00    -0.050 A 
ATOM     29  C   UNL     1       2.201  -0.963  -3.338  0.00  0.00    +0.005 A 
ATOM     30  C   UNL     1       1.822  -0.653  -2.045  0.00  0.00    +0.029 A 
ATOM     31  C   UNL     1       0.495  -0.395  -1.757  0.00  0.00    +0.109 A 
ATOM     32  C   UNL     1      -0.454  -0.452  -2.760  0.00  0.00    +0.029 A 
ATOM     33  C   UNL     1      -0.075  -0.758  -4.054  0.00  0.00    +0.005 A 
ENDBRANCH  24  31
ENDBRANCH  22  24
ENDBRANCH   1  22
TORSDOF 6
