REMARK  Name = ZINC39672259
REMARK  10 active torsions:
REMARK  status: ('A' for Active; 'I' for Inactive)
REMARK    1  A    between atoms: C_1  and  C_2
REMARK    2  A    between atoms: C_4  and  C_11
REMARK    3  A    between atoms: N_5  and  C_7
REMARK    4  A    between atoms: C_7  and  C_8
REMARK    5  A    between atoms: C_7  and  C_9
REMARK    6  A    between atoms: C_7  and  C_10
REMARK    7  A    between atoms: C_15  and  C_24
REMARK    8  A    between atoms: N_26  and  C_27
REMARK    9  A    between atoms: C_27  and  C_28
REMARK   10  A    between atoms: N_37  and  C_38
REMARK                            x       y       z     vdW  Elec       q    Type
REMARK                         _______ _______ _______ _____ _____    ______ ____
ROOT
ATOM      1  C   UNL     1      -0.405  -3.472  -1.549  0.00  0.00    +0.265 C 
ATOM      2  O   UNL     1      -0.595  -3.507  -2.750  0.00  0.00    -0.268 OA
ATOM      3  N   UNL     1      -0.351  -4.618  -0.841  0.00  0.00    -0.295 N 
ATOM      4  C   UNL     1      -0.263  -4.774   0.630  0.00  0.00    +0.121 C 
ATOM      5  C   UNL     1      -1.180  -5.975   0.951  0.00  0.00    +0.100 C 
ATOM      6  C   UNL     1      -1.242  -6.782  -0.357  0.00  0.00    -0.004 C 
ATOM      7  C   UNL     1      -0.372  -6.007  -1.358  0.00  0.00    +0.115 C 
ATOM      8  C   UNL     1      -0.680  -8.183  -0.141  0.00  0.00    -0.010 C 
ATOM      9  C   UNL     1      -0.806  -8.985  -1.440  0.00  0.00    -0.082 C 
ATOM     10  N   UNL     1      -2.217  -9.058  -1.837  0.00  0.00    +0.379 N 
ATOM     11  C   UNL     1      -2.724  -7.712  -2.133  0.00  0.00    -0.082 C 
ATOM     12  C   UNL     1      -2.679  -6.857  -0.863  0.00  0.00    -0.010 C 
ATOM     13  H   UNL     1      -2.304  -9.637  -2.659  0.00  0.00    -0.086 HD
ATOM     14  H   UNL     1      -2.756  -9.461  -1.086  0.00  0.00    -0.086 HD
ENDROOT
BRANCH   1  18
ATOM     15  C   UNL     1       0.510   0.145   1.886  0.00  0.00    +0.067 C 
ATOM     16  C   UNL     1       0.162  -0.589   0.617  0.00  0.00    +0.061 A 
ATOM     17  C   UNL     1       0.138  -1.975   0.449  0.00  0.00    +0.057 A 
ATOM     18  C   UNL     1      -0.234  -2.178  -0.869  0.00  0.00    +0.124 A 
ATOM     19  N   UNL     1      -0.411  -0.937  -1.411  0.00  0.00    -0.254 N 
ATOM     20  N   UNL     1      -0.178  -0.041  -0.521  0.00  0.00    -0.175 NA
BRANCH  19  21
ATOM     21  C   UNL     1      -0.811  -0.670  -2.795  0.00  0.00    +0.056 C 
ATOM     22  C   UNL     1      -2.116  -1.408  -3.100  0.00  0.00    +0.036 C 
ATOM     23  C   UNL     1      -1.020   0.834  -2.984  0.00  0.00    +0.036 C 
ATOM     24  C   UNL     1       0.285  -1.156  -3.745  0.00  0.00    +0.036 C 
ENDBRANCH  19  21
ENDBRANCH   1  18
BRANCH   5  25
ATOM     25  C   UNL     1      -2.555  -5.496   1.341  0.00  0.00    +0.218 C 
ATOM     26  O   UNL     1      -3.005  -4.482   0.851  0.00  0.00    -0.275 OA
ATOM     27  N   UNL     1      -3.284  -6.195   2.233  0.00  0.00    -0.311 N 
ATOM     28  H   UNL     1      -2.895  -6.961   2.683  0.00  0.00    +0.149 HD
BRANCH  27  29
ATOM     29  C   UNL     1      -4.663  -5.797   2.524  0.00  0.00    +0.139 C 
BRANCH  29  30
ATOM     30  C   UNL     1      -5.251  -6.734   3.548  0.00  0.00    -0.030 A 
ATOM     31  C   UNL     1      -5.907  -7.881   3.138  0.00  0.00    +0.007 A 
ATOM     32  C   UNL     1      -6.446  -8.738   4.075  0.00  0.00    +0.024 A 
ATOM     33  C   UNL     1      -6.330  -8.449   5.431  0.00  0.00    +0.033 A 
ATOM     34  C   UNL     1      -5.670  -7.302   5.841  0.00  0.00    -0.026 A 
ATOM     35  C   UNL     1      -5.128  -6.449   4.894  0.00  0.00    +0.010 A 
ATOM     36  C   UNL     1      -5.515  -6.963   7.300  0.00  0.00    +0.038 C 
ATOM     37  C   UNL     1      -6.560  -7.702   8.136  0.00  0.00    +0.024 C 
ATOM     38  C   UNL     1      -6.514  -9.194   7.779  0.00  0.00    +0.105 C 
ATOM     39  N   UNL     1      -6.888  -9.329   6.365  0.00  0.00    -0.333 N 
ATOM     40  C   UNL     1      -7.829 -10.367   5.939  0.00  0.00    +0.129 C 
ENDBRANCH  29  30
ENDBRANCH  27  29
ENDBRANCH   5  25
TORSDOF 5
