REMARK  Name = ZINC21120144
REMARK  8 active torsions:
REMARK  status: ('A' for Active; 'I' for Inactive)
REMARK    1  A    between atoms: C_1  and  C_2
REMARK    2  A    between atoms: N_4  and  C_5
REMARK    3  A    between atoms: C_14  and  C_17
REMARK    4  A    between atoms: C_17  and  O_19
REMARK    5  A    between atoms: O_19  and  C_20
REMARK    6  A    between atoms: C_20  and  C_21
REMARK    7  A    between atoms: C_33  and  C_34
REMARK    8  A    between atoms: C_33  and  C_35
REMARK                            x       y       z     vdW  Elec       q    Type
REMARK                         _______ _______ _______ _____ _____    ______ ____
ROOT
ATOM      1  O   UNL     1      -5.235   1.523  -0.535  0.00  0.00    -0.455 OA
ENDROOT
BRANCH   1   2
ATOM      2  C   UNL     1      -5.506   0.337  -1.102  0.00  0.00    +0.314 C 
ATOM      3  O   UNL     1      -4.605  -0.411  -1.399  0.00  0.00    -0.250 OA
BRANCH   2  11
ATOM      4  C   UNL     1      -8.416  -1.852  -2.287  0.00  0.00    +0.036 C 
ATOM      5  C   UNL     1      -9.191  -1.887  -0.968  0.00  0.00    +0.029 C 
ATOM      6  C   UNL     1      -9.160  -0.501  -0.321  0.00  0.00    -0.008 C 
ATOM      7  C   UNL     1      -9.805   0.516  -1.265  0.00  0.00    +0.007 C 
ATOM      8  C   UNL     1      -9.030   0.552  -2.584  0.00  0.00    -0.008 C 
ATOM      9  C   UNL     1      -9.061  -0.835  -3.230  0.00  0.00    +0.029 C 
ATOM     10  C   UNL     1      -7.580   0.956  -2.312  0.00  0.00    +0.021 C 
ATOM     11  C   UNL     1      -6.935  -0.061  -1.369  0.00  0.00    +0.070 C 
ATOM     12  C   UNL     1      -7.710  -0.097  -0.050  0.00  0.00    +0.021 C 
ATOM     13  C   UNL     1      -6.965  -1.448  -2.016  0.00  0.00    +0.043 C 
BRANCH   4  17
ATOM     14  C   UNL     1      -9.655  -5.109  -3.873  0.00  0.00    +0.109 C 
ATOM     15  C   UNL     1      -9.624  -3.743  -3.236  0.00  0.00    +0.210 C 
ATOM     16  O   UNL     1     -10.661  -3.151  -3.020  0.00  0.00    -0.276 OA
ATOM     17  N   UNL     1      -8.445  -3.179  -2.906  0.00  0.00    -0.310 N 
ATOM     18  H   UNL     1      -7.505  -3.716  -3.102  0.00  0.00    +0.149 HD
ENDBRANCH   4  17
ENDBRANCH   2  11
ENDBRANCH   1   2
BRANCH   1  19
ATOM     19  C   UNL     1      -3.836   1.840  -0.307  0.00  0.00    +0.328 C 
BRANCH  19  20
ATOM     20  C   UNL     1      -3.727   3.200   0.332  0.00  0.00    +0.258 C 
ATOM     21  O   UNL     1      -4.728   3.783   0.693  0.00  0.00    -0.271 OA
ATOM     22  N   UNL     1      -2.518   3.770   0.502  0.00  0.00    -0.253 N 
ATOM     23  C   UNL     1      -2.397   5.086   0.975  0.00  0.00    +0.059 A 
ATOM     24  C   UNL     1      -3.382   6.026   0.729  0.00  0.00    +0.025 A 
ATOM     25  C   UNL     1      -3.228   7.319   1.197  0.00  0.00    +0.002 A 
ATOM     26  C   UNL     1      -2.101   7.668   1.918  0.00  0.00    +0.002 A 
ATOM     27  C   UNL     1      -1.117   6.731   2.174  0.00  0.00    +0.025 A 
ATOM     28  C   UNL     1      -1.259   5.435   1.704  0.00  0.00    +0.055 A 
ATOM     29  N   UNL     1      -0.278   4.470   1.957  0.00  0.00    -0.282 N 
ATOM     30  C   UNL     1      -0.269   3.305   1.283  0.00  0.00    +0.241 C 
ATOM     31  O   UNL     1       0.564   2.465   1.549  0.00  0.00    -0.273 OA
ATOM     32  C   UNL     1      -1.282   3.032   0.200  0.00  0.00    +0.113 C 
ATOM     33  C   UNL     1      -0.727   3.494  -1.149  0.00  0.00    +0.042 C 
ATOM     34  C   UNL     1      -1.582   1.532   0.146  0.00  0.00    +0.042 C 
ATOM     35  H   UNL     1       0.497   4.660   2.714  0.00  0.00    +0.155 HD
ENDBRANCH  19  20
ENDBRANCH   1  19
TORSDOF 5
