REMARK  Name = ZINC14645898
REMARK  8 active torsions:
REMARK  status: ('A' for Active; 'I' for Inactive)
REMARK    1  A    between atoms: C_1  and  O_2
REMARK    2  A    between atoms: O_2  and  C_3
REMARK    3  A    between atoms: C_5  and  C_12
REMARK    4  A    between atoms: C_6  and  O_10
REMARK    5  A    between atoms: C_8  and  O_9
REMARK    6  A    between atoms: O_10  and  C_11
REMARK    7  A    between atoms: C_17  and  O_24
REMARK    8  A    between atoms: C_19  and  O_23
REMARK                            x       y       z     vdW  Elec       q    Type
REMARK                         _______ _______ _______ _____ _____    ______ ____
ROOT
ATOM      1  C   UNL     1       2.397   0.360  -4.221  0.00  0.00    +0.068 A 
ATOM      2  C   UNL     1       3.744   0.496  -4.320  0.00  0.00    +0.208 A 
ATOM      3  O   UNL     1       4.329   1.212  -5.284  0.00  0.00    -0.462 OA
ATOM      4  C   UNL     1       3.636   2.093  -6.032  0.00  0.00    +0.145 A 
ATOM      5  C   UNL     1       4.297   3.047  -6.793  0.00  0.00    +0.092 A 
ATOM      6  C   UNL     1       3.575   3.942  -7.566  0.00  0.00    +0.124 A 
ATOM      7  C   UNL     1       2.185   3.899  -7.592  0.00  0.00    +0.091 A 
ATOM      8  C   UNL     1       1.506   2.959  -6.840  0.00  0.00    +0.135 A 
ATOM      9  C   UNL     1       2.230   2.056  -6.051  0.00  0.00    +0.106 A 
ATOM     10  C   UNL     1       1.552   1.046  -5.219  0.00  0.00    +0.204 A 
ATOM     11  O   UNL     1       0.366   0.795  -5.344  0.00  0.00    -0.286 OA
ENDROOT
BRANCH   1  14
ATOM     12  C   UNL     1       0.607  -0.608  -1.057  0.00  0.00    +0.162 A 
ATOM     13  C   UNL     1       1.171   0.160  -2.060  0.00  0.00    +0.061 A 
ATOM     14  C   UNL     1       1.790  -0.459  -3.144  0.00  0.00    +0.034 A 
ATOM     15  C   UNL     1       1.838  -1.855  -3.214  0.00  0.00    +0.132 A 
ATOM     16  C   UNL     1       1.270  -2.616  -2.207  0.00  0.00    +0.095 A 
ATOM     17  C   UNL     1       0.661  -1.997  -1.127  0.00  0.00    +0.162 A 
BRANCH  12  19
ATOM     18  C   UNL     1      -0.017   1.425   0.010  0.00  0.00    +0.277 C 
ATOM     19  O   UNL     1       0.002  -0.004   0.002  0.00  0.00    -0.491 OA
ENDBRANCH  12  19
BRANCH  17  20
ATOM     20  O   UNL     1       0.109  -2.748  -0.137  0.00  0.00    -0.503 OA
ATOM     21  H   UNL     1      -0.819  -2.974  -0.285  0.00  0.00    +0.292 HD
ENDBRANCH  17  20
BRANCH  15  22
ATOM     22  O   UNL     1       2.440  -2.463  -4.271  0.00  0.00    -0.494 OA
ATOM     23  C   UNL     1       2.452  -3.892  -4.277  0.00  0.00    +0.277 C 
ENDBRANCH  15  22
ENDBRANCH   1  14
BRANCH   8  24
ATOM     24  O   UNL     1       0.150   2.911  -6.865  0.00  0.00    -0.506 OA
ATOM     25  H   UNL     1      -0.210   2.332  -7.550  0.00  0.00    +0.292 HD
ENDBRANCH   8  24
BRANCH   6  26
ATOM     26  O   UNL     1       4.232   4.872  -8.305  0.00  0.00    -0.507 OA
ATOM     27  H   UNL     1       4.453   4.579  -9.199  0.00  0.00    +0.292 HD
ENDBRANCH   6  26
TORSDOF 6
