REMARK  Name = ZINC01507372
REMARK  6 active torsions:
REMARK  status: ('A' for Active; 'I' for Inactive)
REMARK    1  A    between atoms: C_1  and  C_2
REMARK    2  A    between atoms: C_2  and  O_3
REMARK    3  A    between atoms: O_3  and  C_4
REMARK    4  A    between atoms: C_4  and  C_6
REMARK    5  A    between atoms: C_10  and  N_11
REMARK    6  A    between atoms: C_13  and  C_23
REMARK                            x       y       z     vdW  Elec       q    Type
REMARK                         _______ _______ _______ _____ _____    ______ ____
ROOT
ATOM      1  N   UNL     1      -0.597  -2.441  -3.908  0.00  0.00    -0.319 N 
ATOM      2  C   UNL     1      -1.083  -2.770  -5.090  0.00  0.00    +0.212 A 
ATOM      3  C   UNL     1      -2.531  -2.711  -5.362  0.00  0.00    +0.097 A 
ATOM      4  C   UNL     1      -2.925  -2.535  -6.681  0.00  0.00    +0.030 A 
ATOM      5  C   UNL     1      -1.916  -2.457  -7.677  0.00  0.00    +0.019 A 
ATOM      6  C   UNL     1      -2.240  -2.082  -8.988  0.00  0.00    +0.026 A 
ATOM      7  C   UNL     1      -1.243  -1.971  -9.931  0.00  0.00    +0.019 A 
ATOM      8  C   UNL     1       0.077  -2.235  -9.592  0.00  0.00    +0.019 A 
ATOM      9  C   UNL     1       0.409  -2.624  -8.311  0.00  0.00    +0.048 A 
ATOM     10  C   UNL     1      -0.581  -2.750  -7.346  0.00  0.00    +0.137 A 
ATOM     11  O   UNL     1      -0.267  -3.168  -6.098  0.00  0.00    -0.439 OA
ATOM     12 BR   UNL     1      -1.675  -1.455 -11.698  0.00  0.00    -0.050 Br
ATOM     13  H   UNL     1      -1.183  -2.076  -3.226  0.00  0.00    +0.169 HD
ENDROOT
BRANCH   1  18
ATOM     14  C   UNL     1       1.421  -2.329  -2.470  0.00  0.00    +0.093 A 
ATOM     15  C   UNL     1       2.845  -2.618  -2.457  0.00  0.00    -0.021 A 
ATOM     16  C   UNL     1       3.363  -3.133  -3.595  0.00  0.00    -0.004 A 
ATOM     17  S   UNL     1       1.993  -3.251  -4.713  0.00  0.00    -0.075 S 
ATOM     18  C   UNL     1       0.714  -2.611  -3.647  0.00  0.00    +0.095 A 
ATOM     19  C   UNL     1       4.788  -3.517  -3.848  0.00  0.00    +0.043 C 
ATOM     20  C   UNL     1       5.662  -2.896  -2.749  0.00  0.00    +0.005 C 
ATOM     21  C   UNL     1       5.017  -3.182  -1.390  0.00  0.00    +0.005 C 
ATOM     22  C   UNL     1       3.733  -2.366  -1.242  0.00  0.00    +0.037 C 
BRANCH  14  23
ATOM     23  C   UNL     1       0.770  -1.786  -1.333  0.00  0.00    +0.342 C 
ATOM     24  O   UNL     1       0.294  -2.527  -0.494  0.00  0.00    -0.245 OA
BRANCH  23  25
ATOM     25  O   UNL     1       0.679  -0.448  -1.182  0.00  0.00    -0.461 OA
BRANCH  25  27
ATOM     26  C   UNL     1       0.007   1.559  -0.016  0.00  0.00    +0.048 C 
ATOM     27  C   UNL     1       0.011   0.029  -0.013  0.00  0.00    +0.229 C 
ENDBRANCH  25  27
ENDBRANCH  23  25
ENDBRANCH  14  23
ENDBRANCH   1  18
BRANCH   3  28
ATOM     28  C   UNL     1      -3.520  -2.834  -4.277  0.00  0.00    +0.247 C 
ATOM     29  O   UNL     1      -3.148  -2.901  -3.121  0.00  0.00    -0.270 OA
ATOM     30  N   UNL     1      -4.836  -2.873  -4.565  0.00  0.00    -0.325 N 
ATOM     31  H   UNL     1      -5.129  -2.895  -5.490  0.00  0.00    +0.145 HD
ATOM     32  H   UNL     1      -5.489  -2.880  -3.849  0.00  0.00    +0.145 HD
ENDBRANCH   3  28
TORSDOF 5
