REMARK  Name = ZINC64502364
REMARK  7 active torsions:
REMARK  status: ('A' for Active; 'I' for Inactive)
REMARK    1  A    between atoms: C_1  and  C_2
REMARK    2  A    between atoms: C_8  and  C_11
REMARK    3  A    between atoms: C_11  and  C_12
REMARK    4  A    between atoms: C_12  and  N_13
REMARK    5  A    between atoms: C_14  and  C_16
REMARK    6  A    between atoms: N_21  and  C_23
REMARK    7  A    between atoms: N_27  and  C_35
REMARK                            x       y       z     vdW  Elec       q    Type
REMARK                         _______ _______ _______ _____ _____    ______ ____
ROOT
ATOM      1  C   UNL     1      -2.534  -2.338   7.783  0.00  0.00    +0.089 C 
ATOM      2  C   UNL     1      -1.943  -0.953   8.058  0.00  0.00    +0.015 C 
ATOM      3  C   UNL     1      -2.000  -0.671   9.562  0.00  0.00    +0.016 C 
ATOM      4  C   UNL     1      -3.450  -0.771  10.041  0.00  0.00    +0.086 C 
ATOM      5  N   UNL     1      -3.969  -2.115   9.756  0.00  0.00    -0.276 NA
ATOM      6  C   UNL     1      -3.969  -2.390   8.314  0.00  0.00    +0.099 C 
ENDROOT
BRANCH   5   7
ATOM      7  C   UNL     1      -5.312  -2.291  10.325  0.00  0.00    +0.230 C 
ATOM      8  C   UNL     1      -5.250  -2.134  11.823  0.00  0.00    +0.256 C 
ATOM      9  O   UNL     1      -5.389  -1.034  12.315  0.00  0.00    -0.272 OA
ATOM     10  N   UNL     1      -5.042  -3.196  12.622  0.00  0.00    -0.255 N 
ATOM     11  C   UNL     1      -4.928  -4.481  12.089  0.00  0.00    +0.148 A 
ATOM     12  C   UNL     1      -5.322  -4.711  10.767  0.00  0.00    +0.069 A 
ATOM     13  C   UNL     1      -5.219  -5.983  10.233  0.00  0.00    +0.028 A 
ATOM     14  C   UNL     1      -4.716  -6.995  11.043  0.00  0.00    +0.022 A 
ATOM     15  C   UNL     1      -4.341  -6.698  12.338  0.00  0.00    +0.113 A 
ATOM     16  N   UNL     1      -4.453  -5.475  12.821  0.00  0.00    -0.238 NA
ATOM     17  N   UNL     1      -5.809  -3.638  10.005  0.00  0.00    -0.319 N 
ATOM     18  C   UNL     1      -4.933  -3.002  14.070  0.00  0.00    +0.140 C 
ATOM     19  H   UNL     1      -6.452  -3.779   9.293  0.00  0.00    +0.148 HD
ENDBRANCH   5   7
BRANCH   1  21
ATOM     20  N   UNL     1      -1.377  -2.600   5.613  0.00  0.00    -0.315 N 
ATOM     21  C   UNL     1      -2.537  -2.599   6.299  0.00  0.00    +0.217 C 
ATOM     22  O   UNL     1      -3.583  -2.808   5.722  0.00  0.00    -0.275 OA
ATOM     23  H   UNL     1      -0.540  -2.433   6.075  0.00  0.00    +0.149 HD
BRANCH  20  24
ATOM     24  C   UNL     1      -1.379  -2.854   4.170  0.00  0.00    +0.108 C 
BRANCH  24  25
ATOM     25  C   UNL     1       0.055  -2.799   3.641  0.00  0.00    +0.052 C 
BRANCH  25  33
ATOM     26  C   UNL     1      -0.018   1.503   0.010  0.00  0.00    +0.044 C 
ATOM     27  C   UNL     1       0.002  -0.004   0.002  0.00  0.00    -0.050 A 
ATOM     28  C   UNL     1       0.005  -0.680  -1.226  0.00  0.00    +0.005 A 
ATOM     29  C   UNL     1       0.023  -2.026  -1.317  0.00  0.00    +0.026 A 
ATOM     30  C   UNL     1       0.039  -2.826  -0.141  0.00  0.00    +0.043 A 
ATOM     31  N   UNL     1       0.057  -4.126   0.030  0.00  0.00    -0.380 N 
ATOM     32  C   UNL     1       0.067  -4.408   1.470  0.00  0.00    +0.144 C 
ATOM     33  C   UNL     1       0.052  -3.060   2.156  0.00  0.00    -0.040 C 
ATOM     34  C   UNL     1       0.036  -2.137   1.168  0.00  0.00    -0.001 A 
ATOM     35  C   UNL     1       0.022  -0.669   1.180  0.00  0.00    +0.013 A 
ATOM     36  H   UNL     1       0.062  -4.790  -0.677  0.00  0.00    +0.160 HD
ENDBRANCH  25  33
ENDBRANCH  24  25
ENDBRANCH  20  24
ENDBRANCH   1  21
TORSDOF 5
