REMARK  Name = ZINC39992655
REMARK  8 active torsions:
REMARK  status: ('A' for Active; 'I' for Inactive)
REMARK    1  A    between atoms: C_3  and  C_8
REMARK    2  A    between atoms: C_5  and  O_7
REMARK    3  A    between atoms: C_9  and  C_10
REMARK    4  A    between atoms: C_9  and  C_12
REMARK    5  A    between atoms: N_14  and  C_15
REMARK    6  A    between atoms: C_16  and  C_24
REMARK    7  A    between atoms: N_26  and  C_27
REMARK    8  A    between atoms: C_27  and  C_28
REMARK                            x       y       z     vdW  Elec       q    Type
REMARK                         _______ _______ _______ _____ _____    ______ ____
ROOT
ATOM      1  C   UNL     1       6.068   6.315  -0.444  0.00  0.00    +0.085 A 
ATOM      2  C   UNL     1       6.242   7.687  -0.546  0.00  0.00    +0.069 A 
ATOM      3  C   UNL     1       7.605   8.177  -0.653  0.00  0.00    -0.023 A 
ATOM      4  C   UNL     1       8.544   7.206  -0.640  0.00  0.00    -0.004 A 
ATOM      5  S   UNL     1       7.630   5.700  -0.482  0.00  0.00    -0.077 S 
ATOM      6  C   UNL     1      10.027   7.388  -0.736  0.00  0.00    +0.043 C 
ATOM      7  C   UNL     1      10.307   8.815  -1.230  0.00  0.00    +0.005 C 
ATOM      8  C   UNL     1       9.466   9.797  -0.409  0.00  0.00    +0.005 C 
ATOM      9  C   UNL     1       7.987   9.645  -0.771  0.00  0.00    +0.037 C 
ENDROOT
BRANCH   1  12
ATOM     10  C   UNL     1       4.896   4.269  -0.237  0.00  0.00    +0.259 C 
ATOM     11  O   UNL     1       5.955   3.672  -0.250  0.00  0.00    -0.269 OA
ATOM     12  N   UNL     1       4.879   5.613  -0.332  0.00  0.00    -0.275 N 
ATOM     13  H   UNL     1       4.034   6.090  -0.322  0.00  0.00    +0.156 HD
BRANCH  10  15
ATOM     14  C   UNL     1       3.650   2.161  -0.022  0.00  0.00    +0.032 C 
ATOM     15  C   UNL     1       3.632   3.523  -0.118  0.00  0.00    +0.114 C 
BRANCH  14  18
ATOM     16  C   UNL     1       1.098  -0.514   0.598  0.00  0.00    +0.004 A 
ATOM     17  C   UNL     1       2.283   0.189   0.631  0.00  0.00    +0.008 A 
ATOM     18  C   UNL     1       2.391   1.407  -0.053  0.00  0.00    -0.020 A 
ATOM     19  C   UNL     1       1.292   1.902  -0.765  0.00  0.00    +0.053 A 
ATOM     20  C   UNL     1       0.110   1.184  -0.788  0.00  0.00    +0.117 A 
ATOM     21  C   UNL     1       0.014  -0.022  -0.107  0.00  0.00    +0.045 A 
BRANCH  20  22
ATOM     22  O   UNL     1      -0.960   1.661  -1.479  0.00  0.00    -0.507 OA
ATOM     23  H   UNL     1      -0.995   1.369  -2.400  0.00  0.00    +0.292 HD
ENDBRANCH  20  22
ENDBRANCH  14  18
BRANCH  15  24
ATOM     24  C   UNL     1       2.385   4.226  -0.102  0.00  0.00    +0.104 C 
ATOM     25  N   UNL     1       1.395   4.784  -0.090  0.00  0.00    -0.191 NA
ENDBRANCH  15  24
ENDBRANCH  10  15
ENDBRANCH   1  12
BRANCH   2  26
ATOM     26  C   UNL     1       5.098   8.604  -0.544  0.00  0.00    +0.247 C 
ATOM     27  O   UNL     1       4.681   9.055   0.506  0.00  0.00    -0.270 OA
ATOM     28  N   UNL     1       4.509   8.947  -1.707  0.00  0.00    -0.309 N 
ATOM     29  H   UNL     1       4.841   8.588  -2.544  0.00  0.00    +0.149 HD
BRANCH  28  30
ATOM     30  C   UNL     1       3.366   9.864  -1.706  0.00  0.00    +0.136 C 
BRANCH  30  31
ATOM     31  C   UNL     1       2.889  10.087  -3.143  0.00  0.00    +0.135 C 
ATOM     32  C   UNL     1       1.764  11.143  -3.163  0.00  0.00    +0.035 C 
ATOM     33  C   UNL     1       0.791  10.568  -4.228  0.00  0.00    +0.031 C 
ATOM     34  C   UNL     1       0.960   9.046  -3.989  0.00  0.00    +0.160 C 
ATOM     35  O   UNL     1       2.351   8.868  -3.670  0.00  0.00    -0.375 OA
ENDBRANCH  30  31
ENDBRANCH  28  30
ENDBRANCH   2  26
TORSDOF 8
