REMARK  Name = ZINC60498374
REMARK  8 active torsions:
REMARK  status: ('A' for Active; 'I' for Inactive)
REMARK    1  A    between atoms: C_1  and  C_2
REMARK    2  A    between atoms: C_4  and  N_23
REMARK    3  A    between atoms: C_5  and  S_9
REMARK    4  A    between atoms: C_7  and  C_8
REMARK    5  A    between atoms: S_9  and  N_12
REMARK    6  A    between atoms: N_12  and  C_13
REMARK    7  A    between atoms: C_13  and  C_14
REMARK    8  A    between atoms: C_13  and  C_20
REMARK                            x       y       z     vdW  Elec       q    Type
REMARK                         _______ _______ _______ _____ _____    ______ ____
ROOT
ATOM      1  S   UNL     1      -0.091  -4.440   0.141  0.00  0.00    +0.062 S 
ATOM      2  O   UNL     1       1.065  -4.902  -0.545  0.00  0.00    -0.153 OA
ATOM      3  O   UNL     1      -0.301  -4.681   1.526  0.00  0.00    -0.153 OA
ENDROOT
BRANCH   1   8
ATOM      4  C   UNL     1      -0.272   1.543  -0.613  0.00  0.00    +0.044 C 
ATOM      5  C   UNL     1      -0.227   0.049  -0.424  0.00  0.00    -0.045 A 
ATOM      6  C   UNL     1      -1.248  -0.594   0.250  0.00  0.00    +0.038 A 
ATOM      7  C   UNL     1      -1.207  -1.965   0.422  0.00  0.00    +0.153 A 
ATOM      8  C   UNL     1      -0.144  -2.693  -0.080  0.00  0.00    +0.136 A 
ATOM      9  C   UNL     1       0.877  -2.050  -0.754  0.00  0.00    +0.034 A 
ATOM     10  C   UNL     1       0.833  -0.680  -0.930  0.00  0.00    -0.046 A 
ATOM     11  C   UNL     1       1.944   0.020  -1.670  0.00  0.00    +0.044 C 
BRANCH   7  12
ATOM     12  N   UNL     1      -2.300  -2.653   1.145  0.00  0.00    +0.058 N 
ATOM     13  O   UNL     1      -3.164  -2.008   1.691  0.00  0.00    -0.126 OA
ATOM     14  O   UNL     1      -2.329  -3.861   1.188  0.00  0.00    -0.126 OA
ENDBRANCH   7  12
ENDBRANCH   1   8
BRANCH   1  15
ATOM     15  N   UNL     1      -1.398  -5.075  -0.653  0.00  0.00    -0.174 NA
ATOM     16  H   UNL     1      -2.094  -5.530  -0.155  0.00  0.00    +0.149 HD
BRANCH  15  17
ATOM     17  C   UNL     1      -1.503  -4.947  -2.109  0.00  0.00    +0.192 C 
BRANCH  17  18
ATOM     18  C   UNL     1      -2.947  -4.758  -2.494  0.00  0.00    -0.020 A 
ATOM     19  C   UNL     1      -3.936  -5.473  -1.843  0.00  0.00    +0.006 A 
ATOM     20  C   UNL     1      -5.261  -5.299  -2.196  0.00  0.00    +0.000 A 
ATOM     21  C   UNL     1      -5.598  -4.409  -3.200  0.00  0.00    +0.000 A 
ATOM     22  C   UNL     1      -4.609  -3.694  -3.849  0.00  0.00    +0.000 A 
ATOM     23  C   UNL     1      -3.285  -3.865  -3.493  0.00  0.00    +0.006 A 
ENDBRANCH  17  18
BRANCH  17  24
ATOM     24  C   UNL     1      -0.969  -6.196  -2.762  0.00  0.00    +0.234 C 
ATOM     25  O   UNL     1      -0.542  -7.103  -2.079  0.00  0.00    -0.274 OA
ATOM     26  N   UNL     1      -0.965  -6.305  -4.105  0.00  0.00    -0.328 N 
ATOM     27  H   UNL     1      -1.306  -5.580  -4.652  0.00  0.00    +0.145 HD
ATOM     28  H   UNL     1      -0.621  -7.109  -4.525  0.00  0.00    +0.145 HD
ENDBRANCH  17  24
ENDBRANCH  15  17
ENDBRANCH   1  15
TORSDOF 6
