REMARK  Name = ZINC12563574
REMARK  7 active torsions:
REMARK  status: ('A' for Active; 'I' for Inactive)
REMARK    1  A    between atoms: C_1  and  C_2
REMARK    2  A    between atoms: C_16  and  C_18
REMARK    3  A    between atoms: C_23  and  N_24
REMARK    4  A    between atoms: N_24  and  S_25
REMARK    5  A    between atoms: S_25  and  C_28
REMARK    6  A    between atoms: C_33  and  C_34
REMARK    7  A    between atoms: C_36  and  N_63
REMARK                            x       y       z     vdW  Elec       q    Type
REMARK                         _______ _______ _______ _____ _____    ______ ____
ROOT
ATOM      1  C   UNL     1      -0.997   1.591   0.211  0.00  0.00    +0.060 A 
ATOM      2  C   UNL     1      -0.904   2.982   0.118  0.00  0.00    +0.015 A 
ATOM      3  C   UNL     1      -2.025   3.728  -0.177  0.00  0.00    +0.001 A 
ATOM      4  C   UNL     1      -3.246   3.105  -0.383  0.00  0.00    +0.002 A 
ATOM      5  C   UNL     1      -3.354   1.732  -0.295  0.00  0.00    +0.025 A 
ATOM      6  C   UNL     1      -2.234   0.963  -0.003  0.00  0.00    +0.060 A 
ENDROOT
BRANCH   1  20
ATOM      7  C   UNL     1       3.301   5.850  -2.553  0.00  0.00    +0.044 C 
ATOM      8  C   UNL     1       2.749   4.626  -1.869  0.00  0.00    -0.050 A 
ATOM      9  C   UNL     1       1.462   4.201  -2.146  0.00  0.00    +0.005 A 
ATOM     10  C   UNL     1       0.954   3.081  -1.518  0.00  0.00    +0.024 A 
ATOM     11  C   UNL     1       1.728   2.376  -0.607  0.00  0.00    +0.040 A 
ATOM     12  C   UNL     1       3.033   2.808  -0.334  0.00  0.00    -0.023 A 
ATOM     13  C   UNL     1       3.529   3.929  -0.965  0.00  0.00    +0.009 A 
ATOM     14  C   UNL     1       3.593   1.849   0.659  0.00  0.00    +0.025 C 
ATOM     15  C   UNL     1       5.022   1.377   0.541  0.00  0.00    -0.069 C 
ATOM     16  C   UNL     1       4.337  -0.702   1.684  0.00  0.00    -0.077 C 
ATOM     17  C   UNL     1       2.859  -0.259   1.676  0.00  0.00    +0.005 C 
ATOM     18  C   UNL     1       2.699   0.602   0.438  0.00  0.00    +0.086 C 
ATOM     19  N   UNL     1       1.418   1.218   0.150  0.00  0.00    -0.264 N 
ATOM     20  C   UNL     1       0.198   0.788   0.526  0.00  0.00    +0.253 C 
ATOM     21  O   UNL     1       0.082  -0.267   1.122  0.00  0.00    -0.270 OA
ATOM     22  C   UNL     1       6.652  -0.011   1.690  0.00  0.00    -0.096 C 
ATOM     23  N   UNL     1       5.260   0.462   1.706  0.00  0.00    +0.378 N 
ATOM     24  H   UNL     1       5.099   0.989   2.572  0.00  0.00    -0.082 HD
ENDBRANCH   1  20
BRANCH   6  25
ATOM     25  N   UNL     1      -2.339  -0.419   0.080  0.00  0.00    -0.216 N 
ATOM     26  H   UNL     1      -1.728  -0.918   0.644  0.00  0.00    +0.174 HD
BRANCH  25  27
ATOM     27  S   UNL     1      -3.508  -1.214  -0.782  0.00  0.00    +0.073 S 
ATOM     28  O   UNL     1      -3.267  -2.604  -0.607  0.00  0.00    -0.150 OA
ATOM     29  O   UNL     1      -4.747  -0.607  -0.443  0.00  0.00    -0.150 OA
BRANCH  27  30
ATOM     30  C   UNL     1      -3.226  -0.865  -2.486  0.00  0.00    +0.112 A 
ATOM     31  C   UNL     1      -4.170  -0.164  -3.213  0.00  0.00    +0.032 A 
ATOM     32  C   UNL     1      -3.948   0.114  -4.548  0.00  0.00    +0.040 A 
ATOM     33  C   UNL     1      -2.784  -0.318  -5.161  0.00  0.00    +0.124 A 
ATOM     34  C   UNL     1      -1.841  -1.024  -4.433  0.00  0.00    +0.043 A 
ATOM     35  C   UNL     1      -2.063  -1.297  -3.096  0.00  0.00    -0.021 A 
ATOM     36  C   UNL     1      -1.038  -2.066  -2.304  0.00  0.00    +0.046 C 
ATOM     37  F   UNL     1      -2.567  -0.051  -6.467  0.00  0.00    -0.205 F 
ENDBRANCH  27  30
ENDBRANCH  25  27
ENDBRANCH   6  25
TORSDOF 4
