REMARK  Name = ZINC05949481
REMARK  17 active torsions:
REMARK  status: ('A' for Active; 'I' for Inactive)
REMARK    1  A    between atoms: C_1  and  C_2
REMARK    2  A    between atoms: C_2  and  O_3
REMARK    3  A    between atoms: O_3  and  C_4
REMARK    4  A    between atoms: C_9  and  C_10
REMARK    5  A    between atoms: C_10  and  N_11
REMARK    6  A    between atoms: N_11  and  C_12
REMARK    7  A    between atoms: N_11  and  C_22
REMARK    8  A    between atoms: C_14  and  C_20
REMARK    9  A    between atoms: C_14  and  C_21
REMARK   10  A    between atoms: C_16  and  C_18
REMARK   11  A    between atoms: C_16  and  C_19
REMARK   12  A    between atoms: C_22  and  N_24
REMARK   13  A    between atoms: N_24  and  C_25
REMARK   14  A    between atoms: C_27  and  O_33
REMARK   15  A    between atoms: C_29  and  O_31
REMARK   16  A    between atoms: O_31  and  C_32
REMARK   17  A    between atoms: O_33  and  C_34
REMARK                            x       y       z     vdW  Elec       q    Type
REMARK                         _______ _______ _______ _____ _____    ______ ____
ROOT
ATOM      1  N   UNL     1      -4.703  -0.445  -1.474  0.00  0.00    -0.305 N 
ENDROOT
BRANCH   1   2
ATOM      2  C   UNL     1      -5.266  -1.417  -2.421  0.00  0.00    +0.073 C 
ATOM      3  C   UNL     1      -6.073  -0.671  -3.486  0.00  0.00    +0.009 C 
ATOM      4  C   UNL     1      -6.656  -1.669  -4.486  0.00  0.00    -0.072 C 
ATOM      5  N   UNL     1      -5.633  -2.529  -5.062  0.00  0.00    +0.386 N 
ATOM      6  C   UNL     1      -4.672  -3.136  -4.154  0.00  0.00    -0.072 C 
ATOM      7  C   UNL     1      -4.127  -2.162  -3.116  0.00  0.00    +0.009 C 
ATOM      8  C   UNL     1      -5.252  -4.371  -3.459  0.00  0.00    -0.010 C 
ATOM      9  C   UNL     1      -3.473  -3.619  -5.004  0.00  0.00    -0.010 C 
ATOM     10  C   UNL     1      -7.280  -0.849  -5.639  0.00  0.00    -0.010 C 
ATOM     11  C   UNL     1      -7.784  -2.469  -3.837  0.00  0.00    -0.010 C 
ATOM     12  H   UNL     1      -6.098  -3.275  -5.585  0.00  0.00    -0.084 HD
ATOM     13  H   UNL     1      -5.118  -1.991  -5.763  0.00  0.00    -0.084 HD
ENDBRANCH   1   2
BRANCH   1  14
ATOM     14  C   UNL     1      -3.912   0.550  -1.922  0.00  0.00    +0.138 C 
ATOM     15  S   UNL     1      -3.394   1.780  -0.849  0.00  0.00    -0.018 S 
BRANCH  14  16
ATOM     16  N   UNL     1      -3.528   0.578  -3.213  0.00  0.00    -0.297 N 
ATOM     17  H   UNL     1      -3.881  -0.075  -3.838  0.00  0.00    +0.154 HD
BRANCH  16  18
ATOM     18  C   UNL     1      -2.621   1.547  -3.653  0.00  0.00    +0.040 A 
ATOM     19  C   UNL     1      -1.621   1.999  -2.802  0.00  0.00    +0.069 A 
ATOM     20  C   UNL     1      -0.722   2.960  -3.239  0.00  0.00    +0.125 A 
ATOM     21  C   UNL     1      -0.821   3.470  -4.525  0.00  0.00    +0.091 A 
ATOM     22  C   UNL     1      -1.820   3.019  -5.375  0.00  0.00    +0.125 A 
ATOM     23  C   UNL     1      -2.716   2.053  -4.942  0.00  0.00    +0.069 A 
BRANCH  22  24
ATOM     24  O   UNL     1      -1.917   3.519  -6.635  0.00  0.00    -0.495 OA
ATOM     25  C   UNL     1      -0.957   4.507  -7.016  0.00  0.00    +0.277 C 
ENDBRANCH  22  24
BRANCH  20  26
ATOM     26  O   UNL     1       0.256   3.403  -2.406  0.00  0.00    -0.495 OA
ATOM     27  C   UNL     1       1.148   4.394  -2.922  0.00  0.00    +0.277 C 
ENDBRANCH  20  26
ENDBRANCH  16  18
ENDBRANCH  14  16
ENDBRANCH   1  14
BRANCH   1  28
ATOM     28  C   UNL     1      -5.001  -0.558  -0.045  0.00  0.00    +0.145 C 
BRANCH  28  34
ATOM     29  C   UNL     1      -2.861  -1.295   1.034  0.00  0.00    +0.125 A 
ATOM     30  C   UNL     1      -2.061  -2.276   1.603  0.00  0.00    +0.046 A 
ATOM     31  C   UNL     1      -2.523  -3.574   1.699  0.00  0.00    +0.004 A 
ATOM     32  C   UNL     1      -3.783  -3.897   1.230  0.00  0.00    +0.001 A 
ATOM     33  C   UNL     1      -4.582  -2.922   0.662  0.00  0.00    +0.009 A 
ATOM     34  C   UNL     1      -4.127  -1.621   0.569  0.00  0.00    +0.011 A 
BRANCH  29  35
ATOM     35  O   UNL     1      -2.409  -0.018   0.939  0.00  0.00    -0.492 OA
BRANCH  35  37
ATOM     36  C   UNL     1      -0.764   1.726   1.247  0.00  0.00    +0.048 C 
ATOM     37  C   UNL     1      -1.096   0.245   1.439  0.00  0.00    +0.225 C 
ENDBRANCH  35  37
ENDBRANCH  29  35
ENDBRANCH  28  34
ENDBRANCH   1  28
TORSDOF 10
