REMARK  Name = ZINC20681584
REMARK  7 active torsions:
REMARK  status: ('A' for Active; 'I' for Inactive)
REMARK    1  A    between atoms: C_1  and  C_2
REMARK    2  A    between atoms: C_2  and  O_3
REMARK    3  A    between atoms: O_3  and  C_4
REMARK    4  A    between atoms: C_4  and  C_6
REMARK    5  A    between atoms: C_19  and  C_22
REMARK    6  A    between atoms: C_25  and  O_29
REMARK    7  A    between atoms: C_27  and  O_28
REMARK                            x       y       z     vdW  Elec       q    Type
REMARK                         _______ _______ _______ _____ _____    ______ ____
ROOT
ATOM      1  C   UNL     1      -3.745   3.370  -1.384  0.00  0.00    +0.059 A 
ATOM      2  C   UNL     1      -3.903   3.287   0.003  0.00  0.00    +0.017 A 
ATOM      3  C   UNL     1      -3.428   2.196   0.673  0.00  0.00    +0.024 A 
ATOM      4  C   UNL     1      -2.789   1.169  -0.016  0.00  0.00    +0.031 A 
ATOM      5  C   UNL     1      -2.624   1.236  -1.395  0.00  0.00    -0.019 A 
ATOM      6  C   UNL     1      -3.105   2.340  -2.075  0.00  0.00    +0.021 A 
ATOM      7  C   UNL     1      -1.945   0.155  -2.173  0.00  0.00    +0.049 C 
ATOM      8  C   UNL     1      -0.553   0.578  -2.579  0.00  0.00    -0.023 C 
ATOM      9  C   UNL     1       0.267  -0.444  -2.526  0.00  0.00    -0.030 C 
ATOM     10  C   UNL     1      -0.470  -1.692  -2.081  0.00  0.00    +0.033 C 
ATOM     11  C   UNL     1      -1.724  -1.129  -1.350  0.00  0.00    +0.029 C 
ATOM     12  C   UNL     1      -1.296  -0.768   0.075  0.00  0.00    +0.108 C 
ATOM     13  N   UNL     1      -2.337   0.062   0.689  0.00  0.00    -0.336 N 
ATOM     14  H   UNL     1      -2.737  -0.200   1.680  0.00  0.00    +0.147 HD
ENDROOT
BRANCH  12  15
ATOM     15  C   UNL     1       0.001  -0.001   0.033  0.00  0.00    +0.015 A 
ATOM     16  C   UNL     1      -0.012   1.365  -0.176  0.00  0.00    +0.012 A 
ATOM     17  C   UNL     1       1.175   2.071  -0.215  0.00  0.00    +0.046 A 
ATOM     18  C   UNL     1       2.383   1.410  -0.044  0.00  0.00    +0.120 A 
ATOM     19  C   UNL     1       2.398   0.040   0.165  0.00  0.00    +0.091 A 
ATOM     20  C   UNL     1       1.206  -0.667   0.204  0.00  0.00    +0.125 A 
BRANCH  20  21
ATOM     21  O   UNL     1       1.217  -2.010   0.410  0.00  0.00    -0.506 OA
ATOM     22  H   UNL     1       2.173  -2.537   0.545  0.00  0.00    +0.292 HD
ENDBRANCH  20  21
BRANCH  18  23
ATOM     23  O   UNL     1       3.551   2.105  -0.082  0.00  0.00    -0.507 OA
ATOM     24  H   UNL     1       4.508   1.580   0.053  0.00  0.00    +0.292 HD
ENDBRANCH  18  23
ENDBRANCH  12  15
BRANCH   1  25
ATOM     25  C   UNL     1      -4.255   4.544  -2.115  0.00  0.00    +0.339 C 
ATOM     26  O   UNL     1      -4.117   4.616  -3.321  0.00  0.00    -0.245 OA
BRANCH  25  27
ATOM     27  O   UNL     1      -4.872   5.538  -1.447  0.00  0.00    -0.461 OA
BRANCH  27  29
ATOM     28  C   UNL     1      -6.017   7.683  -1.308  0.00  0.00    +0.048 C 
ATOM     29  C   UNL     1      -5.348   6.663  -2.232  0.00  0.00    +0.229 C 
ENDBRANCH  27  29
ENDBRANCH  25  27
ENDBRANCH   1  25
TORSDOF 6
