REMARK  Name = ZINC22450411
REMARK  2 active torsions:
REMARK  status: ('A' for Active; 'I' for Inactive)
REMARK    1  A    between atoms: C_1  and  C_2
REMARK    2  A    between atoms: C_5  and  C_8
REMARK                            x       y       z     vdW  Elec       q    Type
REMARK                         _______ _______ _______ _____ _____    ______ ____
ROOT
ATOM      1  C   UNL     1       2.480   1.072  -0.016  0.00  0.00    +0.080 A 
ATOM      2  C   UNL     1       3.671   1.783  -0.024  0.00  0.00    +0.098 A 
ATOM      3  C   UNL     1       4.880   1.071  -0.039  0.00  0.00    +0.253 A 
ATOM      4  O   UNL     1       5.948   1.661  -0.047  0.00  0.00    -0.268 OA
ATOM      5  N   UNL     1       4.841  -0.278  -0.046  0.00  0.00    -0.295 N 
ATOM      6  H   UNL     1       5.777  -0.855  -0.058  0.00  0.00    +0.172 HD
ATOM      7  C   UNL     1       3.645  -0.927  -0.039  0.00  0.00    +0.199 A 
ATOM      8  N   UNL     1       2.506  -0.268  -0.019  0.00  0.00    -0.216 NA
ATOM      9  N   UNL     1       3.626  -2.297  -0.046  0.00  0.00    -0.296 N 
ATOM     10  C   UNL     1       2.254  -2.806   0.106  0.00  0.00    +0.113 C 
ATOM     11  C   UNL     1       2.241  -4.287  -0.272  0.00  0.00    +0.054 C 
ATOM     12  C   UNL     1       3.336  -5.016   0.465  0.00  0.00    -0.041 A 
ATOM     13  C   UNL     1       3.276  -6.399   0.539  0.00  0.00    +0.004 A 
ATOM     14  C   UNL     1       4.262  -7.106   1.197  0.00  0.00    +0.000 A 
ATOM     15  C   UNL     1       5.315  -6.430   1.786  0.00  0.00    +0.000 A 
ATOM     16  C   UNL     1       5.375  -5.053   1.715  0.00  0.00    +0.005 A 
ATOM     17  C   UNL     1       4.383  -4.342   1.055  0.00  0.00    -0.027 A 
ATOM     18  C   UNL     1       4.489  -2.840   1.008  0.00  0.00    +0.143 C 
ENDROOT
BRANCH   1  23
ATOM     19  C   UNL     1      -2.554   3.865   0.047  0.00  0.00    +0.044 C 
ATOM     20  C   UNL     1      -1.236   3.134   0.031  0.00  0.00    -0.050 A 
ATOM     21  C   UNL     1      -1.216   1.751   0.017  0.00  0.00    +0.004 A 
ATOM     22  C   UNL     1      -0.013   1.076   0.008  0.00  0.00    +0.010 A 
ATOM     23  C   UNL     1       1.185   1.791   0.000  0.00  0.00    +0.001 A 
ATOM     24  C   UNL     1       1.158   3.185   0.008  0.00  0.00    +0.010 A 
ATOM     25  C   UNL     1      -0.052   3.849   0.023  0.00  0.00    +0.004 A 
ENDBRANCH   1  23
TORSDOF 1
