REMARK  Name = ZINC39454042
REMARK  6 active torsions:
REMARK  status: ('A' for Active; 'I' for Inactive)
REMARK    1  A    between atoms: C_1  and  C_2
REMARK    2  A    between atoms: C_2  and  C_3
REMARK    3  A    between atoms: C_2  and  S_4
REMARK    4  A    between atoms: S_4  and  N_7
REMARK    5  A    between atoms: C_16  and  C_22
REMARK    6  A    between atoms: C_27  and  O_28
REMARK                            x       y       z     vdW  Elec       q    Type
REMARK                         _______ _______ _______ _____ _____    ______ ____
ROOT
ATOM      1  N   UNL     1      -1.615  -2.286   0.023  0.00  0.00    -0.174 N 
ATOM      2  C   UNL     1      -1.477  -2.957  -1.187  0.00  0.00    +0.134 A 
ATOM      3  C   UNL     1      -1.396  -4.335  -1.232  0.00  0.00    +0.084 A 
ATOM      4  C   UNL     1      -1.464  -5.112   0.017  0.00  0.00    +0.100 A 
ATOM      5  C   UNL     1      -1.606  -4.401   1.238  0.00  0.00    +0.069 A 
ATOM      6  C   UNL     1      -1.676  -2.933   1.200  0.00  0.00    +0.281 A 
ATOM      7  O   UNL     1      -1.793  -2.303   2.235  0.00  0.00    -0.265 OA
ATOM      8  C   UNL     1      -1.670  -5.098   2.436  0.00  0.00    +0.026 A 
ATOM      9  C   UNL     1      -1.591  -6.496   2.386  0.00  0.00    +0.009 A 
ATOM     10  C   UNL     1      -1.648  -7.273   3.569  0.00  0.00    -0.005 A 
ATOM     11  C   UNL     1      -1.567  -8.652   3.477  0.00  0.00    +0.009 A 
ATOM     12  C   UNL     1      -1.433  -9.273   2.240  0.00  0.00    +0.003 A 
ATOM     13  C   UNL     1      -1.375  -8.549   1.089  0.00  0.00    +0.028 A 
ATOM     14  C   UNL     1      -1.452  -7.143   1.130  0.00  0.00    +0.072 A 
ATOM     15  N   UNL     1      -1.394  -6.430   0.003  0.00  0.00    -0.245 NA
ATOM     16  N   UNL     1      -1.247  -4.978  -2.445  0.00  0.00    -0.324 N 
ATOM     17  C   UNL     1      -0.604  -4.246  -3.547  0.00  0.00    +0.171 C 
ATOM     18  C   UNL     1      -1.328  -2.906  -3.720  0.00  0.00    +0.120 C 
ATOM     19  C   UNL     1      -1.416  -2.211  -2.387  0.00  0.00    +0.186 C 
ATOM     20  O   UNL     1      -1.435  -0.997  -2.342  0.00  0.00    -0.290 OA
ATOM     21 CL   UNL     1       1.131  -3.955  -3.153  0.00  0.00    -0.101 Cl
ATOM     22  H   UNL     1      -1.558  -5.888  -2.567  0.00  0.00    +0.148 HD
ENDROOT
BRANCH  10  23
ATOM     23  C   UNL     1      -1.791  -6.617   4.888  0.00  0.00    +0.024 A 
ATOM     24  C   UNL     1      -0.763  -6.701   5.827  0.00  0.00    +0.012 A 
ATOM     25  C   UNL     1      -0.902  -6.088   7.055  0.00  0.00    +0.001 A 
ATOM     26  C   UNL     1      -2.058  -5.389   7.359  0.00  0.00    +0.004 A 
ATOM     27  C   UNL     1      -3.083  -5.300   6.437  0.00  0.00    +0.046 A 
ATOM     28  C   UNL     1      -2.956  -5.906   5.197  0.00  0.00    +0.125 A 
BRANCH  28  29
ATOM     29  O   UNL     1      -3.960  -5.814   4.287  0.00  0.00    -0.506 OA
ATOM     30  H   UNL     1      -4.614  -6.523   4.350  0.00  0.00    +0.292 HD
ENDBRANCH  28  29
ENDBRANCH  10  23
BRANCH   1  31
ATOM     31  S   UNL     1      -1.700  -0.632   0.015  0.00  0.00    +0.060 S 
ATOM     32  O   UNL     1      -1.870  -0.271   1.379  0.00  0.00    -0.153 OA
ATOM     33  O   UNL     1      -2.700  -0.325  -0.946  0.00  0.00    -0.153 OA
BRANCH  31  35
ATOM     34  C   UNL     1      -0.078   1.437  -0.743  0.00  0.00    +0.033 C 
ATOM     35  C   UNL     1      -0.075  -0.085  -0.578  0.00  0.00    +0.148 C 
ATOM     36  C   UNL     1       0.999  -0.485   0.435  0.00  0.00    +0.033 C 
ENDBRANCH  31  35
ENDBRANCH   1  31
TORSDOF 4
