REMARK  Name = ZINC67420515
REMARK  7 active torsions:
REMARK  status: ('A' for Active; 'I' for Inactive)
REMARK    1  A    between atoms: C_1  and  C_2
REMARK    2  A    between atoms: C_2  and  N_3
REMARK    3  A    between atoms: N_3  and  C_4
REMARK    4  A    between atoms: C_4  and  C_6
REMARK    5  A    between atoms: C_4  and  C_7
REMARK    6  A    between atoms: C_16  and  C_18
REMARK    7  A    between atoms: N_20  and  C_21
REMARK                            x       y       z     vdW  Elec       q    Type
REMARK                         _______ _______ _______ _____ _____    ______ ____
ROOT
ATOM      1  N   UNL     1       0.690  -0.574   1.163  0.00  0.00    -0.284 N 
ATOM      2  C   UNL     1       2.010  -0.837   1.101  0.00  0.00    +0.302 C 
ATOM      3  O   UNL     1       2.583  -1.301   2.065  0.00  0.00    -0.265 OA
ENDROOT
BRANCH   2   4
ATOM      4  C   UNL     1       2.769  -0.558  -0.155  0.00  0.00    +0.303 C 
ATOM      5  O   UNL     1       2.220  -0.003  -1.085  0.00  0.00    -0.265 OA
ATOM      6  N   UNL     1       4.063  -0.921  -0.256  0.00  0.00    -0.275 N 
ATOM      7  H   UNL     1       4.525  -1.289   0.514  0.00  0.00    +0.155 HD
BRANCH   6   8
ATOM      8  C   UNL     1       4.740  -0.768  -1.471  0.00  0.00    +0.072 A 
ATOM      9  C   UNL     1       4.028  -0.718  -2.662  0.00  0.00    +0.029 A 
ATOM     10  C   UNL     1       4.697  -0.567  -3.861  0.00  0.00    +0.043 A 
ATOM     11  C   UNL     1       6.078  -0.465  -3.878  0.00  0.00    +0.161 A 
ATOM     12  C   UNL     1       6.793  -0.515  -2.691  0.00  0.00    +0.195 A 
ATOM     13  C   UNL     1       6.126  -0.660  -1.487  0.00  0.00    +0.182 A 
ATOM     14  F   UNL     1       6.821  -0.703  -0.329  0.00  0.00    -0.200 F 
ATOM     15  F   UNL     1       8.140  -0.417  -2.710  0.00  0.00    -0.199 F 
ATOM     16  F   UNL     1       6.729  -0.317  -5.052  0.00  0.00    -0.202 F 
ENDBRANCH   6   8
ENDBRANCH   2   4
BRANCH   1  18
ATOM     17  C   UNL     1       0.142   1.407  -0.162  0.00  0.00    +0.024 C 
ATOM     18  C   UNL     1      -0.021  -0.109  -0.030  0.00  0.00    +0.105 C 
ENDBRANCH   1  18
BRANCH   1  19
ATOM     19  C   UNL     1      -0.033  -0.753   2.425  0.00  0.00    +0.139 C 
ATOM     20  C   UNL     1      -0.645   0.581   2.856  0.00  0.00    +0.036 C 
BRANCH  19  21
ATOM     21  C   UNL     1      -1.129  -1.770   2.235  0.00  0.00    +0.126 A 
ATOM     22  C   UNL     1      -1.469  -2.708   3.129  0.00  0.00    +0.055 A 
ATOM     23  C   UNL     1      -2.574  -3.465   2.529  0.00  0.00    +0.020 A 
ATOM     24  C   UNL     1      -3.352  -4.546   2.941  0.00  0.00    +0.011 A 
ATOM     25  C   UNL     1      -4.332  -5.028   2.119  0.00  0.00    +0.001 A 
ATOM     26  C   UNL     1      -4.556  -4.449   0.877  0.00  0.00    +0.004 A 
ATOM     27  C   UNL     1      -3.796  -3.380   0.453  0.00  0.00    +0.047 A 
ATOM     28  C   UNL     1      -2.795  -2.875   1.274  0.00  0.00    +0.135 A 
ATOM     29  O   UNL     1      -1.912  -1.864   1.146  0.00  0.00    -0.458 OA
ENDBRANCH  19  21
ENDBRANCH   1  19
TORSDOF 5
