REMARK  Name = ZINC66348750
REMARK  7 active torsions:
REMARK  status: ('A' for Active; 'I' for Inactive)
REMARK    1  A    between atoms: C_1  and  C_2
REMARK    2  A    between atoms: C_2  and  C_4
REMARK    3  A    between atoms: C_2  and  N_19
REMARK    4  A    between atoms: N_6  and  C_7
REMARK    5  A    between atoms: C_9  and  N_15
REMARK    6  A    between atoms: C_16  and  C_18
REMARK    7  A    between atoms: N_22  and  C_23
REMARK                            x       y       z     vdW  Elec       q    Type
REMARK                         _______ _______ _______ _____ _____    ______ ____
ROOT
ATOM      1  C   UNL     1      -1.267  -0.467   0.200  0.00  0.00    +0.237 C 
ATOM      2  O   UNL     1      -1.623  -1.199   1.099  0.00  0.00    -0.273 OA
ATOM      3  N   UNL     1      -2.136  -0.122  -0.771  0.00  0.00    -0.282 N 
ATOM      4  H   UNL     1      -1.878   0.526  -1.445  0.00  0.00    +0.155 HD
ENDROOT
BRANCH   3   5
ATOM      5  C   UNL     1      -3.412  -0.699  -0.807  0.00  0.00    +0.071 A 
ATOM      6  C   UNL     1      -3.630  -1.940  -0.224  0.00  0.00    +0.052 A 
ATOM      7  C   UNL     1      -4.894  -2.509  -0.261  0.00  0.00    +0.071 A 
ATOM      8  C   UNL     1      -5.941  -1.836  -0.881  0.00  0.00    +0.147 A 
ATOM      9  C   UNL     1      -5.722  -0.600  -1.462  0.00  0.00    +0.080 A 
ATOM     10  C   UNL     1      -4.463  -0.028  -1.422  0.00  0.00    +0.147 A 
ATOM     11  F   UNL     1      -4.253   1.182  -1.985  0.00  0.00    -0.203 F 
ATOM     12  F   UNL     1      -7.173  -2.390  -0.917  0.00  0.00    -0.203 F 
BRANCH   7  13
ATOM     13  N   UNL     1      -5.116  -3.761   0.327  0.00  0.00    -0.283 N 
ATOM     14  C   UNL     1      -4.094  -4.627   0.474  0.00  0.00    +0.214 C 
ATOM     15  O   UNL     1      -3.005  -4.365   0.009  0.00  0.00    -0.276 OA
ATOM     16  C   UNL     1      -4.304  -5.922   1.217  0.00  0.00    +0.109 C 
ATOM     17  H   UNL     1      -6.006  -4.005   0.627  0.00  0.00    +0.155 HD
ENDBRANCH   7  13
ENDBRANCH   3   5
BRANCH   1  19
ATOM     18  C   UNL     1       0.123   1.586   0.218  0.00  0.00    +0.038 C 
ATOM     19  C   UNL     1       0.145   0.057   0.168  0.00  0.00    +0.158 C 
BRANCH  19  20
ATOM     20  N   UNL     1       0.883  -0.459   1.324  0.00  0.00    -0.288 N 
ATOM     21  C   UNL     1       2.226  -0.566   1.272  0.00  0.00    +0.304 C 
ATOM     22  O   UNL     1       2.824  -0.235   0.267  0.00  0.00    -0.252 OA
ATOM     23  N   UNL     1       2.905  -1.041   2.335  0.00  0.00    -0.269 N 
ATOM     24  H   UNL     1       0.406  -0.723   2.126  0.00  0.00    +0.151 HD
ATOM     25  H   UNL     1       2.424  -1.375   3.108  0.00  0.00    +0.156 HD
BRANCH  23  26
ATOM     26  C   UNL     1       4.304  -1.050   2.324  0.00  0.00    +0.035 A 
ATOM     27  C   UNL     1       4.998  -2.084   2.940  0.00  0.00    +0.023 A 
ATOM     28  C   UNL     1       6.379  -2.091   2.927  0.00  0.00    +0.002 A 
ATOM     29  C   UNL     1       7.071  -1.070   2.301  0.00  0.00    +0.000 A 
ATOM     30  C   UNL     1       6.383  -0.039   1.688  0.00  0.00    +0.002 A 
ATOM     31  C   UNL     1       5.002  -0.029   1.692  0.00  0.00    +0.023 A 
ENDBRANCH  23  26
ENDBRANCH  19  20
ENDBRANCH   1  19
TORSDOF 5
