REMARK  Name = ZINC13940339
REMARK  7 active torsions:
REMARK  status: ('A' for Active; 'I' for Inactive)
REMARK    1  A    between atoms: C_1  and  C_2
REMARK    2  A    between atoms: C_3  and  C_14
REMARK    3  A    between atoms: N_5  and  C_7
REMARK    4  A    between atoms: C_19  and  C_29
REMARK    5  A    between atoms: C_21  and  C_25
REMARK    6  A    between atoms: C_25  and  O_27
REMARK    7  A    between atoms: O_27  and  C_28
REMARK                            x       y       z     vdW  Elec       q    Type
REMARK                         _______ _______ _______ _____ _____    ______ ____
ROOT
ATOM      1  C   UNL     1      -0.344  -3.512   3.510  0.00  0.00    +0.141 C 
ATOM      2  C   UNL     1      -0.129  -3.688   2.026  0.00  0.00    +0.037 C 
ATOM      3  C   UNL     1      -1.000  -3.357   1.058  0.00  0.00    +0.017 C 
ATOM      4  C   UNL     1      -0.635  -3.554  -0.404  0.00  0.00    +0.055 C 
ATOM      5  C   UNL     1       0.258  -4.785  -0.554  0.00  0.00    +0.013 C 
ATOM      6  C   UNL     1       1.524  -4.547   0.278  0.00  0.00    +0.171 C 
ATOM      7  C   UNL     1       1.121  -4.263   1.694  0.00  0.00    +0.177 C 
ATOM      8  O   UNL     1       1.896  -4.536   2.589  0.00  0.00    -0.291 OA
ATOM      9  C   UNL     1      -0.476  -6.024  -0.038  0.00  0.00    +0.009 C 
ATOM     10  N   UNL     1      -2.229  -2.822   1.268  0.00  0.00    -0.316 N 
ATOM     11  C   UNL     1      -2.496  -1.766   2.131  0.00  0.00    +0.052 A 
ATOM     12  C   UNL     1      -2.959  -0.542   1.680  0.00  0.00    +0.025 A 
ATOM     13  C   UNL     1      -3.248   0.455   2.597  0.00  0.00    +0.002 A 
ATOM     14  C   UNL     1      -3.078   0.228   3.950  0.00  0.00    +0.002 A 
ATOM     15  C   UNL     1      -2.599  -0.990   4.402  0.00  0.00    +0.025 A 
ATOM     16  C   UNL     1      -2.289  -1.982   3.485  0.00  0.00    +0.049 A 
ATOM     17  N   UNL     1      -1.704  -3.183   3.883  0.00  0.00    -0.331 N 
ATOM     18  H   UNL     1      -2.976  -3.205   0.781  0.00  0.00    +0.152 HD
ATOM     19  H   UNL     1      -2.216  -3.808   4.419  0.00  0.00    +0.147 HD
ENDROOT
BRANCH   1  22
ATOM     20  C   UNL     1       1.681  -3.713   5.937  0.00  0.00    +0.068 C 
ATOM     21  C   UNL     1       1.460  -2.501   5.069  0.00  0.00    +0.067 A 
ATOM     22  C   UNL     1       0.565  -2.413   3.998  0.00  0.00    +0.037 A 
ATOM     23  C   UNL     1       0.655  -1.165   3.479  0.00  0.00    +0.138 A 
ATOM     24  N   UNL     1       1.585  -0.487   4.200  0.00  0.00    -0.221 N 
ATOM     25  N   UNL     1       2.074  -1.351   5.188  0.00  0.00    -0.170 NA
ATOM     26 CL   UNL     1      -0.252  -0.545   2.135  0.00  0.00    -0.062 Cl
BRANCH  24  27
ATOM     27  C   UNL     1       1.984   0.841   3.993  0.00  0.00    +0.067 A 
ATOM     28  C   UNL     1       2.050   1.354   2.705  0.00  0.00    +0.028 A 
ATOM     29  C   UNL     1       2.438   2.664   2.504  0.00  0.00    +0.002 A 
ATOM     30  C   UNL     1       2.771   3.461   3.584  0.00  0.00    +0.000 A 
ATOM     31  C   UNL     1       2.712   2.951   4.868  0.00  0.00    +0.002 A 
ATOM     32  C   UNL     1       2.319   1.643   5.075  0.00  0.00    +0.028 A 
ENDBRANCH  24  27
ENDBRANCH   1  22
BRANCH   6  33
ATOM     33  C   UNL     1       2.281  -3.369  -0.279  0.00  0.00    +0.318 C 
ATOM     34  O   UNL     1       1.863  -2.787  -1.251  0.00  0.00    -0.250 OA
BRANCH  33  35
ATOM     35  O   UNL     1       3.420  -2.967   0.306  0.00  0.00    -0.467 OA
ATOM     36  C   UNL     1       4.096  -1.825  -0.284  0.00  0.00    +0.280 C 
ENDBRANCH  33  35
ENDBRANCH   6  33
TORSDOF 4
