REMARK  Name = ZINC06077420
REMARK  16 active torsions:
REMARK  status: ('A' for Active; 'I' for Inactive)
REMARK    1  A    between atoms: C_1  and  C_2
REMARK    2  A    between atoms: C_2  and  C_3
REMARK    3  A    between atoms: C_3  and  C_4
REMARK    4  A    between atoms: C_3  and  C_5
REMARK    5  A    between atoms: C_3  and  N_6
REMARK    6  A    between atoms: C_7  and  C_9
REMARK    7  A    between atoms: C_9  and  C_11
REMARK    8  A    between atoms: C_9  and  N_20
REMARK    9  A    between atoms: C_14  and  N_17
REMARK   10  A    between atoms: N_17  and  C_18
REMARK   11  A    between atoms: N_17  and  C_19
REMARK   12  A    between atoms: N_20  and  C_21
REMARK   13  A    between atoms: C_24  and  C_27
REMARK   14  A    between atoms: C_28  and  C_30
REMARK   15  A    between atoms: C_31  and  N_38
REMARK   16  A    between atoms: C_32  and  C_35
REMARK                            x       y       z     vdW  Elec       q    Type
REMARK                         _______ _______ _______ _____ _____    ______ ____
ROOT
ATOM      1  N   UNL     1      -1.345   3.426   0.922  0.00  0.00    -0.251 N 
ATOM      2  C   UNL     1      -2.548   3.685   1.471  0.00  0.00    +0.262 C 
ATOM      3  O   UNL     1      -3.542   3.117   1.057  0.00  0.00    -0.269 OA
ENDROOT
BRANCH   1   4
ATOM      4  C   UNL     1      -0.190   3.993   1.468  0.00  0.00    +0.038 A 
ATOM      5  C   UNL     1       0.651   3.228   2.267  0.00  0.00    +0.024 A 
ATOM      6  C   UNL     1       1.793   3.790   2.801  0.00  0.00    +0.005 A 
ATOM      7  C   UNL     1       2.096   5.116   2.551  0.00  0.00    -0.050 A 
ATOM      8  C   UNL     1       1.259   5.882   1.761  0.00  0.00    +0.005 A 
ATOM      9  C   UNL     1       0.117   5.325   1.219  0.00  0.00    +0.024 A 
ATOM     10  C   UNL     1       3.341   5.727   3.140  0.00  0.00    +0.044 C 
ENDBRANCH   1   4
BRANCH   2  11
ATOM     11  C   UNL     1      -2.660   4.651   2.566  0.00  0.00    +0.116 A 
ATOM     12  C   UNL     1      -3.804   5.154   3.189  0.00  0.00    +0.076 A 
ATOM     13  C   UNL     1      -3.503   6.062   4.204  0.00  0.00    +0.155 A 
ATOM     14  N   UNL     1      -2.246   6.351   4.458  0.00  0.00    -0.203 NA
ATOM     15  S   UNL     1      -1.374   5.503   3.455  0.00  0.00    +0.019 S 
BRANCH  13  16
ATOM     16  C   UNL     1      -4.585   6.698   4.979  0.00  0.00    +0.262 C 
ATOM     17  O   UNL     1      -5.745   6.427   4.738  0.00  0.00    -0.269 OA
ATOM     18  N   UNL     1      -4.286   7.579   5.955  0.00  0.00    -0.324 N 
ATOM     19  H   UNL     1      -3.360   7.794   6.147  0.00  0.00    +0.145 HD
ATOM     20  H   UNL     1      -4.998   7.996   6.465  0.00  0.00    +0.145 HD
ENDBRANCH  13  16
BRANCH  12  21
ATOM     21  N   UNL     1      -5.097   4.789   2.838  0.00  0.00    -0.355 N 
ATOM     22  H   UNL     1      -5.243   4.149   2.124  0.00  0.00    +0.142 HD
ATOM     23  H   UNL     1      -5.853   5.173   3.308  0.00  0.00    +0.142 HD
ENDBRANCH  12  21
ENDBRANCH   2  11
BRANCH   1  24
ATOM     24  C   UNL     1      -1.248   2.550  -0.248  0.00  0.00    +0.197 C 
BRANCH  24  25
ATOM     25  C   UNL     1       0.203   2.289  -0.561  0.00  0.00    -0.018 A 
ATOM     26  C   UNL     1       1.051   3.347  -0.834  0.00  0.00    +0.008 A 
ATOM     27  C   UNL     1       2.380   3.111  -1.127  0.00  0.00    +0.023 A 
ATOM     28  C   UNL     1       2.865   1.809  -1.148  0.00  0.00    +0.029 A 
ATOM     29  C   UNL     1       2.010   0.749  -0.873  0.00  0.00    +0.023 A 
ATOM     30  C   UNL     1       0.682   0.992  -0.581  0.00  0.00    +0.008 A 
BRANCH  28  31
ATOM     31  N   UNL     1       4.208   1.567  -1.444  0.00  0.00    -0.336 N 
ATOM     32  C   UNL     1       4.717   0.194  -1.466  0.00  0.00    +0.129 C 
ATOM     33  C   UNL     1       5.107   2.687  -1.733  0.00  0.00    +0.129 C 
ENDBRANCH  28  31
ENDBRANCH  24  25
BRANCH  24  35
ATOM     34  N   UNL     1      -1.937   2.591  -2.624  0.00  0.00    -0.308 N 
ATOM     35  C   UNL     1      -1.905   3.215  -1.430  0.00  0.00    +0.239 C 
ATOM     36  O   UNL     1      -2.405   4.313  -1.307  0.00  0.00    -0.273 OA
ATOM     37  H   UNL     1      -1.536   1.712  -2.722  0.00  0.00    +0.149 HD
BRANCH  34  38
ATOM     38  C   UNL     1      -2.575   3.237  -3.773  0.00  0.00    +0.029 C 
ATOM     39  C   UNL     1      -4.048   3.502  -3.455  0.00  0.00    +0.031 C 
ATOM     40  C   UNL     1      -1.871   4.563  -4.068  0.00  0.00    +0.031 C 
BRANCH  38  42
ATOM     41  C   UNL     1      -3.141   2.998  -6.194  0.00  0.00    +0.006 C 
ATOM     42  C   UNL     1      -2.474   2.323  -4.995  0.00  0.00    +0.022 C 
ENDBRANCH  38  42
ENDBRANCH  34  38
ENDBRANCH  24  35
ENDBRANCH   1  24
TORSDOF 10
