REMARK  Name = ZINC20069287
REMARK  12 active torsions:
REMARK  status: ('A' for Active; 'I' for Inactive)
REMARK    1  A    between atoms: C_1  and  C_2
REMARK    2  A    between atoms: C_4  and  C_24
REMARK    3  A    between atoms: C_5  and  C_23
REMARK    4  A    between atoms: C_6  and  C_8
REMARK    5  A    between atoms: C_10  and  C_21
REMARK    6  A    between atoms: C_11  and  N_20
REMARK    7  A    between atoms: C_13  and  C_19
REMARK    8  A    between atoms: C_14  and  C_15
REMARK    9  A    between atoms: C_15  and  O_17
REMARK   10  A    between atoms: O_17  and  C_18
REMARK   11  A    between atoms: C_24  and  N_25
REMARK   12  A    between atoms: C_28  and  C_30
REMARK                            x       y       z     vdW  Elec       q    Type
REMARK                         _______ _______ _______ _____ _____    ______ ____
ROOT
ATOM      1  C   UNL     1       0.049   1.495  -0.214  0.00  0.00    +0.044 C 
ATOM      2  C   UNL     1       0.034  -0.008  -0.105  0.00  0.00    -0.050 A 
ATOM      3  C   UNL     1      -0.203  -0.780  -1.227  0.00  0.00    +0.009 A 
ATOM      4  C   UNL     1      -0.217  -2.158  -1.127  0.00  0.00    -0.023 A 
ATOM      5  C   UNL     1       0.008  -2.765   0.095  0.00  0.00    -0.041 A 
ATOM      6  C   UNL     1       0.246  -1.993   1.216  0.00  0.00    -0.031 A 
ATOM      7  C   UNL     1       0.264  -0.614   1.115  0.00  0.00    +0.008 A 
ATOM      8  C   UNL     1      -0.008  -4.268   0.204  0.00  0.00    +0.044 C 
ENDROOT
BRANCH   6   9
ATOM      9  C   UNL     1       0.491  -2.654   2.548  0.00  0.00    +0.105 C 
ATOM     10  C   UNL     1      -0.638  -2.323   3.485  0.00  0.00    +0.098 C 
ATOM     11  C   UNL     1      -0.475  -1.407   4.471  0.00  0.00    +0.198 C 
ATOM     12  O   UNL     1       0.695  -0.765   4.648  0.00  0.00    -0.445 OA
ATOM     13  C   UNL     1       1.819  -1.266   4.113  0.00  0.00    +0.115 C 
ATOM     14  C   UNL     1       1.792  -2.161   3.119  0.00  0.00    +0.087 C 
ATOM     15  C   UNL     1       3.151  -0.806   4.647  0.00  0.00    +0.087 C 
BRANCH  11  16
ATOM     16  N   UNL     1      -1.527  -1.128   5.308  0.00  0.00    -0.328 N 
ATOM     17  H   UNL     1      -2.375  -1.584   5.190  0.00  0.00    +0.145 HD
ATOM     18  H   UNL     1      -1.422  -0.474   6.017  0.00  0.00    +0.145 HD
ENDBRANCH  11  16
BRANCH  14  19
ATOM     19  C   UNL     1       3.013  -2.652   2.595  0.00  0.00    +0.339 C 
ATOM     20  O   UNL     1       4.071  -2.260   3.050  0.00  0.00    -0.245 OA
BRANCH  19  21
ATOM     21  O   UNL     1       3.002  -3.555   1.593  0.00  0.00    -0.465 OA
ATOM     22  C   UNL     1       4.270  -4.007   1.113  0.00  0.00    +0.280 C 
ENDBRANCH  19  21
ENDBRANCH  14  19
BRANCH  10  23
ATOM     23  C   UNL     1      -1.900  -2.982   3.333  0.00  0.00    +0.101 C 
ATOM     24  N   UNL     1      -2.902  -3.504   3.213  0.00  0.00    -0.191 NA
ENDBRANCH  10  23
ENDBRANCH   6   9
BRANCH   4  25
ATOM     25  C   UNL     1      -0.477  -3.000  -2.350  0.00  0.00    +0.178 C 
BRANCH  25  26
ATOM     26  N   UNL     1      -1.901  -3.340  -2.415  0.00  0.00    -0.267 N 
ATOM     27  C   UNL     1      -2.726  -3.108  -3.457  0.00  0.00    +0.109 A 
ATOM     28  C   UNL     1      -3.953  -3.568  -3.122  0.00  0.00    +0.053 A 
ATOM     29  C   UNL     1      -3.876  -4.099  -1.830  0.00  0.00    +0.165 A 
ATOM     30  N   UNL     1      -2.645  -3.968  -1.408  0.00  0.00    -0.167 NA
BRANCH  29  31
ATOM     31  C   UNL     1      -5.013  -4.721  -1.061  0.00  0.00    +0.436 C 
ATOM     32  F   UNL     1      -5.060  -6.094  -1.327  0.00  0.00    -0.164 F 
ATOM     33  F   UNL     1      -4.815  -4.518   0.309  0.00  0.00    -0.164 F 
ATOM     34  F   UNL     1      -6.219  -4.129  -1.451  0.00  0.00    -0.164 F 
ENDBRANCH  29  31
ENDBRANCH  25  26
ENDBRANCH   4  25
TORSDOF 8
