REMARK  Name = ZINC16780606
REMARK  11 active torsions:
REMARK  status: ('A' for Active; 'I' for Inactive)
REMARK    1  A    between atoms: C_1  and  C_2
REMARK    2  A    between atoms: C_2  and  N_70
REMARK    3  A    between atoms: C_3  and  C_4
REMARK    4  A    between atoms: C_3  and  N_70
REMARK    5  A    between atoms: C_5  and  C_6
REMARK    6  A    between atoms: C_5  and  N_70
REMARK    7  A    between atoms: C_9  and  C_12
REMARK    8  A    between atoms: C_12  and  N_13
REMARK    9  A    between atoms: C_14  and  C_16
REMARK   10  A    between atoms: N_19  and  S_22
REMARK   11  A    between atoms: S_22  and  C_25
REMARK                            x       y       z     vdW  Elec       q    Type
REMARK                         _______ _______ _______ _____ _____    ______ ____
ROOT
ATOM      1  C   UNL     1      -3.494   3.970   7.851  0.00  0.00    +0.077 C 
ATOM      2  C   UNL     1      -3.450   2.465   8.121  0.00  0.00    +0.030 C 
ATOM      3  C   UNL     1      -2.910   2.219   9.533  0.00  0.00    +0.110 C 
ATOM      4  N   UNL     1      -3.725   2.980  10.490  0.00  0.00    -0.177 NA
ATOM      5  C   UNL     1      -3.908   4.422  10.272  0.00  0.00    +0.110 C 
ATOM      6  C   UNL     1      -4.437   4.643   8.851  0.00  0.00    +0.030 C 
ENDROOT
BRANCH   1   8
ATOM      7  N   UNL     1      -3.317   3.713   5.397  0.00  0.00    -0.311 N 
ATOM      8  C   UNL     1      -3.993   4.215   6.449  0.00  0.00    +0.216 C 
ATOM      9  O   UNL     1      -5.003   4.862   6.269  0.00  0.00    -0.276 OA
ATOM     10  H   UNL     1      -2.510   3.195   5.541  0.00  0.00    +0.149 HD
BRANCH   7  11
ATOM     11  C   UNL     1      -3.802   3.951   4.035  0.00  0.00    +0.139 C 
BRANCH  11  15
ATOM     12  C   UNL     1      -1.173   2.076   1.238  0.00  0.00    -0.064 A 
ATOM     13  C   UNL     1      -0.943   3.379   1.637  0.00  0.00    +0.002 A 
ATOM     14  C   UNL     1      -1.796   3.987   2.538  0.00  0.00    +0.005 A 
ATOM     15  C   UNL     1      -2.874   3.289   3.049  0.00  0.00    -0.030 A 
ATOM     16  C   UNL     1      -3.102   1.984   2.655  0.00  0.00    +0.005 A 
ATOM     17  C   UNL     1      -2.251   1.377   1.749  0.00  0.00    +0.002 A 
BRANCH  12  18
ATOM     18  C   UNL     1      -0.246   1.414   0.252  0.00  0.00    -0.043 C 
BRANCH  18  19
ATOM     19  N   UNL     1      -0.738   1.680  -1.117  0.00  0.00    +0.382 N 
ATOM     20  H   UNL     1      -0.886   2.690  -1.228  0.00  0.00    -0.081 HD
BRANCH  19  22
ATOM     21  C   UNL     1       1.389   2.263  -2.172  0.00  0.00    -0.017 C 
ATOM     22  C   UNL     1       0.262   1.230  -2.109  0.00  0.00    -0.082 C 
ENDBRANCH  19  22
BRANCH  19  23
ATOM     23  C   UNL     1      -2.020   0.979  -1.338  0.00  0.00    -0.082 C 
ATOM     24  C   UNL     1      -2.683   1.551  -2.593  0.00  0.00    -0.017 C 
ENDBRANCH  19  23
ENDBRANCH  18  19
ENDBRANCH  12  18
ENDBRANCH  11  15
ENDBRANCH   7  11
ENDBRANCH   1   8
BRANCH   4  25
ATOM     25  S   UNL     1      -4.424   2.228  11.789  0.00  0.00    +0.061 S 
ATOM     26  O   UNL     1      -3.655   1.061  12.045  0.00  0.00    -0.153 OA
ATOM     27  O   UNL     1      -4.638   3.230  12.773  0.00  0.00    -0.153 OA
BRANCH  25  28
ATOM     28  C   UNL     1      -6.018   1.677  11.276  0.00  0.00    +0.106 A 
ATOM     29  C   UNL     1      -7.118   2.517  11.436  0.00  0.00    +0.029 A 
ATOM     30  C   UNL     1      -8.362   2.125  11.046  0.00  0.00    +0.010 A 
ATOM     31  C   UNL     1      -8.544   0.850  10.483  0.00  0.00    -0.018 A 
ATOM     32  C   UNL     1      -9.814   0.407  10.074  0.00  0.00    +0.008 A 
ATOM     33  C   UNL     1      -9.952  -0.834   9.533  0.00  0.00    +0.001 A 
ATOM     34  C   UNL     1      -8.852  -1.676   9.378  0.00  0.00    +0.001 A 
ATOM     35  C   UNL     1      -7.608  -1.281   9.763  0.00  0.00    +0.008 A 
ATOM     36  C   UNL     1      -7.426  -0.006  10.325  0.00  0.00    -0.016 A 
ATOM     37  C   UNL     1      -6.156   0.436  10.735  0.00  0.00    +0.037 A 
ENDBRANCH  25  28
ENDBRANCH   4  25
TORSDOF 9
