REMARK  Name = ZINC59484457
REMARK  5 active torsions:
REMARK  status: ('A' for Active; 'I' for Inactive)
REMARK    1  A    between atoms: C_1  and  C_2
REMARK    2  A    between atoms: C_5  and  C_8
REMARK    3  A    between atoms: C_11  and  C_12
REMARK    4  A    between atoms: C_15  and  O_19
REMARK    5  A    between atoms: O_19  and  C_20
REMARK                            x       y       z     vdW  Elec       q    Type
REMARK                         _______ _______ _______ _____ _____    ______ ____
ROOT
ATOM      1  C   UNL     1       0.113  -4.252  -0.025  0.00  0.00    +0.232 C 
ATOM      2  N   UNL     1       0.106  -4.990   1.050  0.00  0.00    -0.205 NA
ATOM      3  C   UNL     1       0.104  -6.305   0.688  0.00  0.00    +0.152 C 
ATOM      4  C   UNL     1       0.098  -7.402   1.525  0.00  0.00    +0.043 C 
ATOM      5  C   UNL     1       0.111  -6.307  -0.786  0.00  0.00    +0.364 C 
ATOM      6  O   UNL     1       0.111  -7.275  -1.524  0.00  0.00    -0.243 OA
ATOM      7  O   UNL     1       0.110  -5.005  -1.142  0.00  0.00    -0.402 OA
ENDROOT
BRANCH   4   8
ATOM      8  C   UNL     1       0.207  -7.218   2.973  0.00  0.00    -0.020 A 
ATOM      9  C   UNL     1       0.333  -8.332   3.817  0.00  0.00    +0.027 A 
ATOM     10  C   UNL     1       0.435  -8.152   5.178  0.00  0.00    +0.061 A 
ATOM     11  C   UNL     1       0.415  -6.870   5.717  0.00  0.00    +0.148 A 
ATOM     12  C   UNL     1       0.291  -5.761   4.886  0.00  0.00    +0.061 A 
ATOM     13  C   UNL     1       0.193  -5.928   3.522  0.00  0.00    +0.027 A 
ATOM     14 BR   UNL     1       0.263  -4.023   5.628  0.00  0.00    -0.046 Br
ATOM     15 BR   UNL     1       0.604  -9.652   6.317  0.00  0.00    -0.046 Br
BRANCH  11  16
ATOM     16  O   UNL     1       0.516  -6.700   7.060  0.00  0.00    -0.493 OA
ATOM     17  C   UNL     1       1.832  -6.554   7.598  0.00  0.00    +0.277 C 
ENDBRANCH  11  16
ENDBRANCH   4   8
BRANCH   1  22
ATOM     18  C   UNL     1       0.122   1.502  -0.001  0.00  0.00    +0.044 C 
ATOM     19  C   UNL     1       0.120  -0.005  -0.008  0.00  0.00    -0.050 A 
ATOM     20  C   UNL     1       0.119  -0.689  -1.211  0.00  0.00    +0.004 A 
ATOM     21  C   UNL     1       0.117  -2.068  -1.224  0.00  0.00    +0.013 A 
ATOM     22  C   UNL     1       0.116  -2.775  -0.019  0.00  0.00    +0.037 A 
ATOM     23  C   UNL     1       0.117  -2.079   1.191  0.00  0.00    +0.013 A 
ATOM     24  C   UNL     1       0.125  -0.699   1.190  0.00  0.00    +0.004 A 
ENDBRANCH   1  22
TORSDOF 3
