REMARK  Name = ZINC01190859
REMARK  6 active torsions:
REMARK  status: ('A' for Active; 'I' for Inactive)
REMARK    1  A    between atoms: C_1  and  C_2
REMARK    2  A    between atoms: C_4  and  C_8
REMARK    3  A    between atoms: N_10  and  N_11
REMARK    4  A    between atoms: C_12  and  C_13
REMARK    5  A    between atoms: C_16  and  O_20
REMARK    6  A    between atoms: O_20  and  C_21
REMARK                            x       y       z     vdW  Elec       q    Type
REMARK                         _______ _______ _______ _____ _____    ______ ____
ROOT
ATOM      1  N   UNL     1       1.121   3.557   0.011  0.00  0.00    -0.187 NA
ATOM      2  C   UNL     1       2.236   4.222   0.003  0.00  0.00    +0.138 C 
ENDROOT
BRANCH   2   3
ATOM      3  C   UNL     1       2.216   5.696   0.011  0.00  0.00    -0.003 A 
ATOM      4  C   UNL     1       0.998   6.380   0.021  0.00  0.00    +0.028 A 
ATOM      5  C   UNL     1       0.984   7.759   0.033  0.00  0.00    +0.061 A 
ATOM      6  C   UNL     1       2.179   8.468   0.025  0.00  0.00    +0.148 A 
ATOM      7  C   UNL     1       3.392   7.791   0.011  0.00  0.00    +0.061 A 
ATOM      8  C   UNL     1       3.416   6.413   0.004  0.00  0.00    +0.028 A 
ATOM      9 BR   UNL     1       5.015   8.763   0.001  0.00  0.00    -0.046 Br
ATOM     10 BR   UNL     1      -0.664   8.686   0.052  0.00  0.00    -0.046 Br
BRANCH   6  11
ATOM     11  O   UNL     1       2.160   9.826   0.031  0.00  0.00    -0.493 OA
ATOM     12  C   UNL     1       2.140  10.481  -1.239  0.00  0.00    +0.277 C 
ENDBRANCH   6  11
ENDBRANCH   2   3
BRANCH   1  15
ATOM     13  C   UNL     1      -0.018   1.467   0.010  0.00  0.00    +0.281 C 
ATOM     14  O   UNL     1      -1.080   2.061   0.018  0.00  0.00    -0.267 OA
ATOM     15  N   UNL     1       1.140   2.156   0.003  0.00  0.00    -0.202 N 
ATOM     16  H   UNL     1       1.986   1.683  -0.008  0.00  0.00    +0.178 HD
BRANCH  13  20
ATOM     17  C   UNL     1      -1.354  -3.425  -0.004  0.00  0.00    +0.067 C 
ATOM     18  C   UNL     1      -0.564  -2.142  -0.004  0.00  0.00    +0.060 A 
ATOM     19  C   UNL     1      -1.094  -0.850   0.013  0.00  0.00    +0.057 A 
ATOM     20  C   UNL     1       0.002  -0.004   0.002  0.00  0.00    +0.122 A 
ATOM     21  N   UNL     1       1.106  -0.809  -0.012  0.00  0.00    -0.272 N 
ATOM     22  H   UNL     1       2.053  -0.488  -0.019  0.00  0.00    +0.189 HD
ATOM     23  N   UNL     1       0.741  -2.041  -0.016  0.00  0.00    -0.178 NA
ENDBRANCH  13  20
ENDBRANCH   1  15
TORSDOF 4
