REMARK  Name = ZINC15734909
REMARK  8 active torsions:
REMARK  status: ('A' for Active; 'I' for Inactive)
REMARK    1  A    between atoms: C_1  and  C_2
REMARK    2  A    between atoms: C_2  and  C_3
REMARK    3  A    between atoms: C_9  and  C_10
REMARK    4  A    between atoms: C_9  and  N_70
REMARK    5  A    between atoms: C_13  and  C_15
REMARK    6  A    between atoms: C_15  and  N_16
REMARK    7  A    between atoms: C_17  and  C_19
REMARK    8  A    between atoms: C_28  and  C_31
REMARK                            x       y       z     vdW  Elec       q    Type
REMARK                         _______ _______ _______ _____ _____    ______ ____
ROOT
ATOM      1  N   UNL     1       6.456   6.510  -1.292  0.00  0.00    -0.308 N 
ATOM      2  C   UNL     1       5.588   6.623  -0.267  0.00  0.00    +0.217 C 
ATOM      3  O   UNL     1       5.835   7.371   0.656  0.00  0.00    -0.276 OA
ATOM      4  H   UNL     1       6.259   5.912  -2.030  0.00  0.00    +0.149 HD
ENDROOT
BRANCH   2   5
ATOM      5  C   UNL     1       4.313   5.821  -0.267  0.00  0.00    +0.078 C 
ATOM      6  C   UNL     1       3.512   6.132   1.001  0.00  0.00    +0.031 C 
ATOM      7  C   UNL     1       2.248   5.270   1.025  0.00  0.00    +0.107 C 
ATOM      8  N   UNL     1       2.622   3.850   0.997  0.00  0.00    -0.314 N 
ATOM      9  C   UNL     1       3.351   3.517  -0.234  0.00  0.00    +0.107 C 
ATOM     10  C   UNL     1       4.648   4.327  -0.296  0.00  0.00    +0.031 C 
ATOM     11  C   UNL     1       1.504   3.037   1.149  0.00  0.00    +0.144 A 
ATOM     12  C   UNL     1       1.645   1.648   1.150  0.00  0.00    +0.047 A 
ATOM     13  C   UNL     1       0.507   0.879   1.304  0.00  0.00    +0.034 A 
ATOM     14  C   UNL     1      -0.720   1.543   1.444  0.00  0.00    +0.100 A 
ATOM     15  N   UNL     1      -0.755   2.870   1.437  0.00  0.00    -0.147 NA
ATOM     16  N   UNL     1       0.305   3.580   1.294  0.00  0.00    -0.134 NA
BRANCH  14  17
ATOM     17  C   UNL     1      -1.968   0.769   1.605  0.00  0.00    +0.039 A 
ATOM     18  C   UNL     1      -3.251   1.222   1.755  0.00  0.00    +0.018 A 
ATOM     19  C   UNL     1      -4.267   0.302   1.889  0.00  0.00    +0.008 A 
ATOM     20  C   UNL     1      -3.967  -1.022   1.870  0.00  0.00    +0.046 A 
ATOM     21  S   UNL     1      -2.196  -1.001   1.648  0.00  0.00    -0.095 S 
ENDBRANCH  14  17
ENDBRANCH   2   5
BRANCH   1  22
ATOM     22  C   UNL     1       7.696   7.290  -1.292  0.00  0.00    +0.178 C 
BRANCH  22  26
ATOM     23  C   UNL     1       9.899   6.031  -3.917  0.00  0.00    +0.089 A 
ATOM     24  C   UNL     1       9.296   7.020  -4.601  0.00  0.00    +0.043 A 
ATOM     25  C   UNL     1       8.383   7.634  -3.712  0.00  0.00    +0.046 A 
ATOM     26  C   UNL     1       8.483   6.983  -2.540  0.00  0.00    +0.122 A 
ATOM     27  O   UNL     1       9.406   6.017  -2.668  0.00  0.00    -0.465 OA
BRANCH  23  28
ATOM     28  C   UNL     1      10.953   5.101  -4.460  0.00  0.00    -0.003 C 
BRANCH  28  34
ATOM     29  C   UNL     1      12.486   6.966  -4.630  0.00  0.00    -0.068 C 
ATOM     30  C   UNL     1      13.929   7.406  -4.369  0.00  0.00    -0.015 C 
ATOM     31  C   UNL     1      14.202   7.376  -2.863  0.00  0.00    -0.003 C 
ATOM     32  C   UNL     1      13.938   5.964  -2.333  0.00  0.00    -0.019 C 
ATOM     33  C   UNL     1      12.495   5.565  -2.653  0.00  0.00    -0.078 C 
ATOM     34  N   UNL     1      12.304   5.591  -4.119  0.00  0.00    +0.386 N 
ATOM     35  H   UNL     1      13.002   4.978  -4.556  0.00  0.00    -0.081 HD
BRANCH  29  37
ATOM     36  C   UNL     1      12.306   8.410  -6.661  0.00  0.00    +0.002 C 
ATOM     37  C   UNL     1      12.215   6.976  -6.136  0.00  0.00    -0.019 C 
ENDBRANCH  29  37
ENDBRANCH  28  34
ENDBRANCH  23  28
ENDBRANCH  22  26
ENDBRANCH   1  22
TORSDOF 7
