REMARK  Name = ZINC04852830
REMARK  4 active torsions:
REMARK  status: ('A' for Active; 'I' for Inactive)
REMARK    1  A    between atoms: C_1  and  C_2
REMARK    2  A    between atoms: C_8  and  C_13
REMARK    3  A    between atoms: C_13  and  O_15
REMARK    4  A    between atoms: O_15  and  C_16
REMARK                            x       y       z     vdW  Elec       q    Type
REMARK                         _______ _______ _______ _____ _____    ______ ____
ROOT
ATOM      1  C   UNL     1      -2.711   3.221   9.532  0.00  0.00    +0.078 C 
ATOM      2  C   UNL     1      -2.213   2.331   8.392  0.00  0.00    +0.178 C 
ATOM      3  C   UNL     1      -0.681   2.243   8.445  0.00  0.00    +0.095 C 
ATOM      4  C   UNL     1      -0.254   1.236   7.366  0.00  0.00    +0.114 C 
ATOM      5  C   UNL     1      -0.855   1.671   6.048  0.00  0.00    +0.015 A 
ATOM      6  C   UNL     1      -0.257   1.259   4.875  0.00  0.00    +0.024 A 
ATOM      7  C   UNL     1      -0.801   1.632   3.644  0.00  0.00    +0.060 A 
ATOM      8  C   UNL     1      -1.950   2.428   3.609  0.00  0.00    +0.018 A 
ATOM      9  C   UNL     1      -2.540   2.832   4.782  0.00  0.00    +0.047 A 
ATOM     10  C   UNL     1      -1.993   2.462   6.011  0.00  0.00    +0.128 A 
ATOM     11  O   UNL     1      -2.595   2.904   7.144  0.00  0.00    -0.468 OA
ATOM     12  N   UNL     1      -0.851  -0.065   7.711  0.00  0.00    -0.292 N 
ATOM     13  C   UNL     1      -2.083  -0.113   8.245  0.00  0.00    +0.303 C 
ATOM     14  O   UNL     1      -2.584  -1.198   8.465  0.00  0.00    -0.253 OA
ATOM     15  N   UNL     1      -2.780   0.994   8.546  0.00  0.00    -0.262 N 
ATOM     16  H   UNL     1      -0.356  -0.885   7.554  0.00  0.00    +0.151 HD
ATOM     17  H   UNL     1      -3.687   0.903   8.875  0.00  0.00    +0.154 HD
ENDROOT
BRANCH   7  18
ATOM     18  C   UNL     1      -0.164   1.193   2.388  0.00  0.00    +0.339 C 
ATOM     19  O   UNL     1       0.837   0.505   2.423  0.00  0.00    -0.245 OA
BRANCH  18  20
ATOM     20  O   UNL     1      -0.692   1.554   1.203  0.00  0.00    -0.464 OA
ATOM     21  C   UNL     1      -0.013   1.086   0.008  0.00  0.00    +0.280 C 
ENDBRANCH  18  20
ENDBRANCH   7  18
TORSDOF 2
