REMARK  Name = ZINC16455518
REMARK  8 active torsions:
REMARK  status: ('A' for Active; 'I' for Inactive)
REMARK    1  A    between atoms: C_1  and  C_2
REMARK    2  A    between atoms: C_2  and  C_3
REMARK    3  A    between atoms: C_2  and  C_4
REMARK    4  A    between atoms: C_4  and  N_5
REMARK    5  A    between atoms: C_9  and  C_11
REMARK    6  A    between atoms: C_11  and  N_12
REMARK    7  A    between atoms: C_15  and  C_19
REMARK    8  A    between atoms: C_15  and  C_20
REMARK                            x       y       z     vdW  Elec       q    Type
REMARK                         _______ _______ _______ _____ _____    ______ ____
ROOT
ATOM      1  N   UNL     1      -5.075  -6.721  -0.384  0.00  0.00    -0.215 N 
ATOM      2  C   UNL     1      -5.743  -7.075   0.732  0.00  0.00    +0.251 C 
ATOM      3  O   UNL     1      -5.335  -7.036   1.873  0.00  0.00    -0.272 OA
ATOM      4  C   UNL     1      -7.110  -7.532   0.264  0.00  0.00    +0.135 C 
ATOM      5  N   UNL     1      -7.048  -7.367  -1.199  0.00  0.00    -0.281 N 
ATOM      6  C   UNL     1      -5.824  -6.884  -1.480  0.00  0.00    +0.310 C 
ATOM      7  O   UNL     1      -5.441  -6.628  -2.604  0.00  0.00    -0.252 OA
ATOM      8  C   UNL     1      -8.207  -6.647   0.859  0.00  0.00    +0.047 C 
ATOM      9  H   UNL     1      -7.753  -7.565  -1.835  0.00  0.00    +0.152 HD
ENDROOT
BRANCH   4  10
ATOM     10  C   UNL     1      -7.338  -8.977   0.625  0.00  0.00    -0.015 A 
ATOM     11  C   UNL     1      -6.743  -9.510   1.753  0.00  0.00    +0.009 A 
ATOM     12  C   UNL     1      -6.952 -10.835   2.086  0.00  0.00    +0.039 A 
ATOM     13  C   UNL     1      -7.758 -11.629   1.288  0.00  0.00    +0.123 A 
ATOM     14  C   UNL     1      -8.354 -11.095   0.158  0.00  0.00    +0.039 A 
ATOM     15  C   UNL     1      -8.148  -9.768  -0.170  0.00  0.00    +0.009 A 
ATOM     16  F   UNL     1      -7.963 -12.925   1.611  0.00  0.00    -0.205 F 
ENDBRANCH   4  10
BRANCH   1  17
ATOM     17  C   UNL     1      -3.700  -6.214  -0.394  0.00  0.00    +0.214 C 
BRANCH  17  22
ATOM     18  N   UNL     1      -1.416  -1.993  -0.116  0.00  0.00    -0.299 N 
ATOM     19  C   UNL     1      -2.575  -2.682  -0.130  0.00  0.00    +0.306 C 
ATOM     20  O   UNL     1      -3.634  -2.092  -0.036  0.00  0.00    -0.252 OA
ATOM     21  N   UNL     1      -2.559  -4.024  -0.248  0.00  0.00    -0.239 N 
ATOM     22  C   UNL     1      -3.718  -4.713  -0.262  0.00  0.00    +0.238 C 
ATOM     23  O   UNL     1      -4.774  -4.125  -0.168  0.00  0.00    -0.274 OA
ATOM     24  H   UNL     1      -0.572  -2.463  -0.190  0.00  0.00    +0.150 HD
ATOM     25  H   UNL     1      -1.714  -4.495  -0.323  0.00  0.00    +0.159 HD
BRANCH  18  26
ATOM     26  C   UNL     1      -1.433  -0.534   0.013  0.00  0.00    +0.108 C 
BRANCH  26  28
ATOM     27  C   UNL     1      -0.019   1.526   0.010  0.00  0.00    +0.009 C 
ATOM     28  C   UNL     1       0.002  -0.004   0.002  0.00  0.00    -0.000 C 
ATOM     29  C   UNL     1       0.742  -0.511   1.242  0.00  0.00    +0.009 C 
ENDBRANCH  26  28
ENDBRANCH  18  26
ENDBRANCH  17  22
ENDBRANCH   1  17
TORSDOF 5
