REMARK  Name = ZINC22573615
REMARK  8 active torsions:
REMARK  status: ('A' for Active; 'I' for Inactive)
REMARK    1  A    between atoms: C_4  and  C_7
REMARK    2  A    between atoms: C_7  and  N_8
REMARK    3  A    between atoms: C_9  and  N_35
REMARK    4  A    between atoms: C_10  and  N_17
REMARK    5  A    between atoms: N_17  and  C_18
REMARK    6  A    between atoms: C_18  and  C_19
REMARK    7  A    between atoms: C_19  and  C_20
REMARK    8  A    between atoms: C_26  and  C_28
REMARK                            x       y       z     vdW  Elec       q    Type
REMARK                         _______ _______ _______ _____ _____    ______ ____
ROOT
ATOM      1  N   UNL     1       0.708  -0.039  -0.980  0.00  0.00    -0.276 N 
ATOM      2  C   UNL     1       0.697   1.335  -1.021  0.00  0.00    +0.128 A 
ATOM      3  C   UNL     1       1.206   2.045   0.048  0.00  0.00    +0.140 A 
ATOM      4  C   UNL     1       1.722   1.337   1.150  0.00  0.00    +0.277 A 
ATOM      5  O   UNL     1       2.174   1.939   2.110  0.00  0.00    -0.266 OA
ATOM      6  N   UNL     1       1.709  -0.010   1.139  0.00  0.00    -0.273 N 
ATOM      7  H   UNL     1       2.111  -0.571   1.996  0.00  0.00    +0.173 HD
ATOM      8  C   UNL     1       1.209  -0.685   0.089  0.00  0.00    +0.331 A 
ATOM      9  O   UNL     1       1.209  -1.901   0.106  0.00  0.00    -0.246 OA
ENDROOT
BRANCH   3  10
ATOM     10  N   UNL     1       1.208   3.455   0.037  0.00  0.00    -0.259 N 
ATOM     11  C   UNL     1       2.371   4.126  -0.078  0.00  0.00    +0.269 C 
ATOM     12  O   UNL     1       2.385   5.338   0.012  0.00  0.00    -0.268 OA
BRANCH  11  13
ATOM     13  C   UNL     1       3.633   3.386  -0.314  0.00  0.00    +0.127 A 
ATOM     14  C   UNL     1       4.846   4.071  -0.312  0.00  0.00    +0.053 A 
ATOM     15  C   UNL     1       6.019   3.364  -0.529  0.00  0.00    +0.045 A 
ATOM     16  C   UNL     1       5.935   1.996  -0.752  0.00  0.00    +0.040 A 
ATOM     17  C   UNL     1       4.694   1.383  -0.746  0.00  0.00    +0.113 A 
ATOM     18  N   UNL     1       3.598   2.077  -0.531  0.00  0.00    -0.250 NA
ATOM     19 CL   UNL     1       7.556   4.171  -0.530  0.00  0.00    -0.083 Cl
ENDBRANCH  11  13
BRANCH  10  20
ATOM     20  C   UNL     1      -0.054   4.190   0.150  0.00  0.00    +0.118 C 
BRANCH  20  21
ATOM     21  C   UNL     1      -0.415   4.358   1.627  0.00  0.00    +0.050 C 
BRANCH  21  22
ATOM     22  C   UNL     1      -1.713   5.114   1.744  0.00  0.00    -0.072 C 
ATOM     23  C   UNL     1      -2.806   4.430   1.861  0.00  0.00    -0.028 C 
ATOM     24  C   UNL     1      -4.172   5.041   1.977  0.00  0.00    +0.027 C 
ATOM     25  C   UNL     1      -4.058   6.518   2.361  0.00  0.00    +0.004 C 
ATOM     26  C   UNL     1      -3.046   7.187   1.422  0.00  0.00    +0.005 C 
ATOM     27  C   UNL     1      -1.658   6.614   1.724  0.00  0.00    +0.030 C 
ENDBRANCH  21  22
ENDBRANCH  20  21
ENDBRANCH  10  20
ENDBRANCH   3  10
BRANCH   2  28
ATOM     28  N   UNL     1       0.185   1.994  -2.112  0.00  0.00    -0.343 N 
ATOM     29  H   UNL     1       0.179   3.094  -2.138  0.00  0.00    +0.144 HD
ATOM     30  H   UNL     1      -0.219   1.422  -2.961  0.00  0.00    +0.144 HD
ENDBRANCH   2  28
BRANCH   1  31
ATOM     31  C   UNL     1       0.170  -0.805  -2.107  0.00  0.00    +0.163 C 
BRANCH  31  35
ATOM     32  C   UNL     1      -3.994  -1.527  -1.481  0.00  0.00    +0.000 A 
ATOM     33  C   UNL     1      -3.582  -0.390  -2.151  0.00  0.00    +0.000 A 
ATOM     34  C   UNL     1      -2.235  -0.156  -2.353  0.00  0.00    +0.005 A 
ATOM     35  C   UNL     1      -1.299  -1.060  -1.886  0.00  0.00    -0.028 A 
ATOM     36  C   UNL     1      -1.711  -2.200  -1.221  0.00  0.00    +0.005 A 
ATOM     37  C   UNL     1      -3.058  -2.430  -1.014  0.00  0.00    +0.000 A 
ENDBRANCH  31  35
ENDBRANCH   1  31
TORSDOF 8
