REMARK  Name = ZINC67059657
REMARK  9 active torsions:
REMARK  status: ('A' for Active; 'I' for Inactive)
REMARK    1  A    between atoms: C_1  and  C_2
REMARK    2  A    between atoms: C_2  and  C_3
REMARK    3  A    between atoms: C_3  and  C_5
REMARK    4  A    between atoms: C_3  and  N_15
REMARK    5  A    between atoms: N_18  and  C_19
REMARK    6  A    between atoms: C_19  and  C_20
REMARK    7  A    between atoms: C_25  and  N_26
REMARK    8  A    between atoms: N_26  and  C_27
REMARK    9  A    between atoms: N_26  and  C_28
REMARK                            x       y       z     vdW  Elec       q    Type
REMARK                         _______ _______ _______ _____ _____    ______ ____
ROOT
ATOM      1  N   UNL     1       1.753   0.525  -1.366  0.00  0.00    -0.290 N 
ATOM      2  C   UNL     1       2.287   1.655  -1.869  0.00  0.00    +0.300 C 
ATOM      3  O   UNL     1       1.577   2.463  -2.437  0.00  0.00    -0.253 OA
ATOM      4  N   UNL     1       3.607   1.891  -1.743  0.00  0.00    -0.295 N 
ATOM      5  H   UNL     1       2.319  -0.119  -0.913  0.00  0.00    +0.151 HD
ATOM      6  H   UNL     1       4.174   1.247  -1.290  0.00  0.00    +0.151 HD
ENDROOT
BRANCH   1   7
ATOM      7  C   UNL     1       0.317   0.268  -1.504  0.00  0.00    +0.140 C 
BRANCH   7   8
ATOM      8  C   UNL     1       0.064  -1.216  -1.448  0.00  0.00    +0.129 A 
ATOM      9  N   UNL     1      -0.418  -1.964  -2.478  0.00  0.00    -0.340 N 
ATOM     10  H   UNL     1      -0.654  -1.640  -3.361  0.00  0.00    +0.167 HD
ATOM     11  C   UNL     1      -0.507  -3.267  -2.032  0.00  0.00    +0.066 A 
ATOM     12  C   UNL     1      -0.918  -4.460  -2.610  0.00  0.00    +0.028 A 
ATOM     13  C   UNL     1      -0.884  -5.624  -1.872  0.00  0.00    +0.002 A 
ATOM     14  C   UNL     1      -0.441  -5.610  -0.557  0.00  0.00    +0.002 A 
ATOM     15  C   UNL     1      -0.032  -4.446   0.028  0.00  0.00    +0.030 A 
ATOM     16  C   UNL     1      -0.058  -3.254  -0.701  0.00  0.00    +0.089 A 
ATOM     17  N   UNL     1       0.280  -1.971  -0.411  0.00  0.00    -0.231 NA
ENDBRANCH   7   8
BRANCH   7  19
ATOM     18  C   UNL     1      -0.281   2.473  -0.492  0.00  0.00    +0.006 C 
ATOM     19  C   UNL     1      -0.435   0.957  -0.363  0.00  0.00    +0.027 C 
ENDBRANCH   7  19
ENDBRANCH   1   7
BRANCH   4  20
ATOM     20  C   UNL     1       4.188   3.120  -2.290  0.00  0.00    +0.144 C 
BRANCH  20  21
ATOM     21  C   UNL     1       5.670   3.141  -2.017  0.00  0.00    +0.008 A 
ATOM     22  C   UNL     1       6.184   3.917  -0.994  0.00  0.00    +0.010 A 
ATOM     23  C   UNL     1       7.556   3.906  -0.779  0.00  0.00    +0.018 A 
ATOM     24  C   UNL     1       8.360   3.126  -1.585  0.00  0.00    +0.084 A 
ATOM     25  N   UNL     1       7.842   2.395  -2.554  0.00  0.00    -0.349 N 
ATOM     26  C   UNL     1       6.539   2.374  -2.787  0.00  0.00    +0.103 A 
ATOM     27  H   UNL     1       8.430   1.856  -3.107  0.00  0.00    +0.167 HD
BRANCH  26  28
ATOM     28  N   UNL     1       6.035   1.585  -3.815  0.00  0.00    -0.323 N 
ATOM     29  C   UNL     1       5.838   2.158  -5.149  0.00  0.00    +0.130 C 
ATOM     30  C   UNL     1       5.701   0.181  -3.563  0.00  0.00    +0.130 C 
ENDBRANCH  26  28
ENDBRANCH  20  21
ENDBRANCH   4  20
TORSDOF 6
