REMARK  Name = ZINC39227468
REMARK  6 active torsions:
REMARK  status: ('A' for Active; 'I' for Inactive)
REMARK    1  A    between atoms: C_1  and  C_2
REMARK    2  A    between atoms: C_2  and  C_3
REMARK    3  A    between atoms: C_2  and  N_4
REMARK    4  A    between atoms: C_15  and  C_20
REMARK    5  A    between atoms: C_23  and  C_26
REMARK    6  A    between atoms: N_28  and  C_29
REMARK                            x       y       z     vdW  Elec       q    Type
REMARK                         _______ _______ _______ _____ _____    ______ ____
ROOT
ATOM      1  N   UNL     1      -1.376  -0.512   0.012  0.00  0.00    +0.381 N 
ATOM      2  C   UNL     1      -2.087  -0.018  -1.172  0.00  0.00    -0.075 C 
ATOM      3  C   UNL     1      -3.547  -0.477  -1.124  0.00  0.00    +0.030 C 
ATOM      4  C   UNL     1      -3.594  -2.006  -1.098  0.00  0.00    +0.114 C 
ATOM      5  C   UNL     1      -2.785  -2.516   0.097  0.00  0.00    +0.030 C 
ATOM      6  C   UNL     1      -1.355  -1.980   0.004  0.00  0.00    -0.075 C 
ATOM      7  C   UNL     1      -5.051  -2.467  -0.959  0.00  0.00    +0.127 C 
ATOM      8  C   UNL     1      -5.799  -1.958  -2.179  0.00  0.00    +0.170 C 
ATOM      9  O   UNL     1      -6.927  -1.519  -2.098  0.00  0.00    -0.292 OA
ATOM     10  C   UNL     1      -5.084  -2.027  -3.466  0.00  0.00    +0.060 A 
ATOM     11  C   UNL     1      -5.761  -1.817  -4.666  0.00  0.00    +0.023 A 
ATOM     12  C   UNL     1      -5.062  -1.880  -5.867  0.00  0.00    -0.017 A 
ATOM     13  C   UNL     1      -3.691  -2.151  -5.862  0.00  0.00    +0.012 A 
ATOM     14  C   UNL     1      -3.023  -2.362  -4.677  0.00  0.00    +0.047 A 
ATOM     15  C   UNL     1      -3.707  -2.306  -3.468  0.00  0.00    +0.132 A 
ATOM     16  O   UNL     1      -3.044  -2.525  -2.308  0.00  0.00    -0.485 OA
ATOM     17  H   UNL     1      -1.847  -0.189   0.844  0.00  0.00    -0.081 HD
ENDROOT
BRANCH  12  18
ATOM     18  C   UNL     1      -5.771  -1.658  -7.150  0.00  0.00    -0.018 A 
ATOM     19  C   UNL     1      -7.138  -1.381  -7.153  0.00  0.00    +0.009 A 
ATOM     20  C   UNL     1      -7.797  -1.175  -8.344  0.00  0.00    +0.013 A 
ATOM     21  C   UNL     1      -7.096  -1.244  -9.550  0.00  0.00    +0.037 A 
ATOM     22  C   UNL     1      -5.726  -1.521  -9.547  0.00  0.00    +0.013 A 
ATOM     23  C   UNL     1      -5.068  -1.721  -8.354  0.00  0.00    +0.009 A 
BRANCH  21  24
ATOM     24  C   UNL     1      -7.801  -1.024 -10.829  0.00  0.00    +0.245 C 
ATOM     25  O   UNL     1      -8.993  -0.783 -10.832  0.00  0.00    -0.270 OA
ATOM     26  N   UNL     1      -7.125  -1.091 -11.992  0.00  0.00    -0.305 N 
ATOM     27  H   UNL     1      -6.174  -1.283 -11.990  0.00  0.00    +0.150 HD
BRANCH  26  28
ATOM     28  C   UNL     1      -7.825  -0.873 -13.261  0.00  0.00    +0.104 C 
ATOM     29  C   UNL     1      -6.831  -0.415 -14.349  0.00  0.00    +0.032 C 
ATOM     30  C   UNL     1      -7.405  -1.075 -15.621  0.00  0.00    +0.037 C 
ATOM     31  C   UNL     1      -8.160  -2.291 -15.130  0.00  0.00    -0.042 A 
ATOM     32  C   UNL     1      -8.403  -2.175 -13.772  0.00  0.00    -0.024 A 
ATOM     33  C   UNL     1      -9.087  -3.176 -13.104  0.00  0.00    +0.006 A 
ATOM     34  C   UNL     1      -9.528  -4.293 -13.788  0.00  0.00    +0.000 A 
ATOM     35  C   UNL     1      -9.287  -4.410 -15.144  0.00  0.00    +0.000 A 
ATOM     36  C   UNL     1      -8.601  -3.411 -15.814  0.00  0.00    +0.004 A 
ENDBRANCH  26  28
ENDBRANCH  21  24
ENDBRANCH  12  18
BRANCH   1  38
ATOM     37  C   UNL     1      -0.019   1.526   0.010  0.00  0.00    -0.014 C 
ATOM     38  C   UNL     1       0.002  -0.004   0.002  0.00  0.00    -0.075 C 
ATOM     39  C   UNL     1       0.742  -0.511   1.242  0.00  0.00    -0.014 C 
ENDBRANCH   1  38
TORSDOF 4
