REMARK  Name = ZINC30979423
REMARK  4 active torsions:
REMARK  status: ('A' for Active; 'I' for Inactive)
REMARK    1  A    between atoms: C_12  and  C_14
REMARK    2  A    between atoms: N_17  and  C_20
REMARK    3  A    between atoms: C_20  and  C_21
REMARK    4  A    between atoms: C_23  and  C_26
REMARK                            x       y       z     vdW  Elec       q    Type
REMARK                         _______ _______ _______ _____ _____    ______ ____
ROOT
ATOM      1  C   UNL     1      -3.319   2.868   1.863  0.00  0.00    +0.072 C 
ATOM      2  C   UNL     1      -4.110   2.662   0.568  0.00  0.00    -0.006 C 
ATOM      3  C   UNL     1      -5.391   1.884   0.877  0.00  0.00    -0.077 C 
ATOM      4  N   UNL     1      -6.197   2.632   1.851  0.00  0.00    +0.386 N 
ATOM      5  C   UNL     1      -5.476   2.801   3.119  0.00  0.00    -0.077 C 
ATOM      6  C   UNL     1      -4.197   3.606   2.876  0.00  0.00    -0.006 C 
ATOM      7  H   UNL     1      -6.381   3.634   1.434  0.00  0.00    -0.081 HD
ENDROOT
BRANCH   1  19
ATOM      8  C   UNL     1       2.296   5.383  -0.173  0.00  0.00    +0.002 A 
ATOM      9  C   UNL     1       1.144   6.056   0.190  0.00  0.00    +0.002 A 
ATOM     10  C   UNL     1      -0.009   5.352   0.487  0.00  0.00    +0.025 A 
ATOM     11  C   UNL     1      -0.006   3.970   0.420  0.00  0.00    +0.058 A 
ATOM     12  C   UNL     1       1.157   3.288   0.058  0.00  0.00    +0.055 A 
ATOM     13  C   UNL     1       2.307   4.002  -0.240  0.00  0.00    +0.025 A 
ATOM     14  N   UNL     1       1.147   1.890   0.001  0.00  0.00    -0.283 N 
ATOM     15  C   UNL     1      -0.014   1.209   0.009  0.00  0.00    +0.235 C 
ATOM     16  O   UNL     1       0.002  -0.004   0.002  0.00  0.00    -0.274 OA
ATOM     17  C   UNL     1      -1.335   1.935   0.019  0.00  0.00    +0.209 C 
ATOM     18  N   UNL     1      -1.163   3.228   0.705  0.00  0.00    -0.261 N 
ATOM     19  C   UNL     1      -2.086   3.684   1.575  0.00  0.00    +0.223 C 
ATOM     20  O   UNL     1      -1.924   4.753   2.125  0.00  0.00    -0.275 OA
ATOM     21  H   UNL     1       2.095   1.335  -0.050  0.00  0.00    +0.155 HD
ENDBRANCH   1  19
BRANCH   4  22
ATOM     22  C   UNL     1      -7.497   1.984   2.067  0.00  0.00    +0.022 C 
BRANCH  22  23
ATOM     23  C   UNL     1      -8.308   2.048   0.798  0.00  0.00    +0.211 A 
ATOM     24  N   UNL     1      -8.318   1.160  -0.164  0.00  0.00    -0.193 NA
ATOM     25  C   UNL     1      -9.184   1.634  -1.087  0.00  0.00    +0.202 A 
ATOM     26  N   UNL     1      -9.645   2.772  -0.636  0.00  0.00    -0.056 NA
ATOM     27  O   UNL     1      -9.155   3.020   0.446  0.00  0.00    -0.340 OA
BRANCH  25  28
ATOM     28  C   UNL     1      -9.545   0.985  -2.373  0.00  0.00    +0.023 A 
ATOM     29  C   UNL     1      -8.966  -0.232  -2.728  0.00  0.00    +0.013 A 
ATOM     30  C   UNL     1      -9.309  -0.833  -3.921  0.00  0.00    +0.016 A 
ATOM     31  C   UNL     1     -10.217  -0.225  -4.770  0.00  0.00    +0.018 A 
ATOM     32  C   UNL     1     -10.790   0.987  -4.425  0.00  0.00    +0.016 A 
ATOM     33  C   UNL     1     -10.458   1.594  -3.231  0.00  0.00    +0.013 A 
ATOM     34 BR   UNL     1     -10.676  -1.051  -6.408  0.00  0.00    -0.050 Br
ENDBRANCH  25  28
ENDBRANCH  22  23
ENDBRANCH   4  22
TORSDOF 4
