REMARK  Name = ZINC38672522
REMARK  10 active torsions:
REMARK  status: ('A' for Active; 'I' for Inactive)
REMARK    1  A    between atoms: C_1  and  C_2
REMARK    2  A    between atoms: C_5  and  N_9
REMARK    3  A    between atoms: C_7  and  C_8
REMARK    4  A    between atoms: C_11  and  C_16
REMARK    5  A    between atoms: N_18  and  C_19
REMARK    6  A    between atoms: C_19  and  C_20
REMARK    7  A    between atoms: C_20  and  C_22
REMARK    8  A    between atoms: C_20  and  N_32
REMARK    9  A    between atoms: N_30  and  C_31
REMARK   10  A    between atoms: N_35  and  C_38
REMARK                            x       y       z     vdW  Elec       q    Type
REMARK                         _______ _______ _______ _____ _____    ______ ____
ROOT
ATOM      1  C   UNL     1      -1.200  -9.905  -1.591  0.00  0.00    +0.127 C 
ENDROOT
BRANCH   1   4
ATOM      2  C   UNL     1      -1.292  -7.692  -0.574  0.00  0.00    +0.218 C 
ATOM      3  O   UNL     1      -2.295  -7.470  -1.217  0.00  0.00    -0.275 OA
ATOM      4  N   UNL     1      -0.667  -8.881  -0.689  0.00  0.00    -0.313 N 
ATOM      5  H   UNL     1       0.136  -9.059  -0.174  0.00  0.00    +0.149 HD
BRANCH   2   8
ATOM      6  N   UNL     1      -1.617  -4.858   1.701  0.00  0.00    -0.271 N 
ATOM      7  C   UNL     1      -1.617  -5.366   0.324  0.00  0.00    +0.127 C 
ATOM      8  C   UNL     1      -0.743  -6.639   0.354  0.00  0.00    +0.101 C 
ATOM      9  C   UNL     1      -0.876  -7.078   1.831  0.00  0.00    +0.110 C 
ATOM     10  C   UNL     1      -1.205  -5.799   2.568  0.00  0.00    +0.221 C 
ATOM     11  O   UNL     1      -1.113  -5.645   3.768  0.00  0.00    -0.275 OA
BRANCH   6  16
ATOM     12  C   UNL     1      -3.136   0.406   3.171  0.00  0.00    +0.044 C 
ATOM     13  C   UNL     1      -2.733  -0.992   2.781  0.00  0.00    -0.047 A 
ATOM     14  C   UNL     1      -2.454  -1.929   3.760  0.00  0.00    +0.005 A 
ATOM     15  C   UNL     1      -2.084  -3.211   3.405  0.00  0.00    +0.024 A 
ATOM     16  C   UNL     1      -1.992  -3.560   2.064  0.00  0.00    +0.037 A 
ATOM     17  C   UNL     1      -2.273  -2.618   1.083  0.00  0.00    +0.027 A 
ATOM     18  C   UNL     1      -2.648  -1.338   1.445  0.00  0.00    -0.046 A 
ATOM     19  C   UNL     1      -2.959  -0.316   0.382  0.00  0.00    +0.044 C 
ENDBRANCH   6  16
ENDBRANCH   2   8
ENDBRANCH   1   4
BRANCH   1  20
ATOM     20  C   UNL     1      -0.382 -11.189  -1.446  0.00  0.00    +0.104 C 
BRANCH  20  21
ATOM     21  C   UNL     1      -0.980 -12.267  -2.312  0.00  0.00    -0.028 A 
ATOM     22  C   UNL     1      -2.215 -12.805  -1.996  0.00  0.00    +0.007 A 
ATOM     23  C   UNL     1      -2.765 -13.791  -2.785  0.00  0.00    +0.024 A 
ATOM     24  C   UNL     1      -2.081 -14.255  -3.911  0.00  0.00    +0.033 A 
ATOM     25  C   UNL     1      -0.845 -13.710  -4.220  0.00  0.00    -0.025 A 
ATOM     26  C   UNL     1      -0.300 -12.717  -3.428  0.00  0.00    +0.010 A 
ATOM     27  C   UNL     1      -0.323 -14.378  -5.472  0.00  0.00    +0.056 C 
ATOM     28  C   UNL     1      -1.418 -15.387  -5.856  0.00  0.00    +0.109 C 
ATOM     29  N   UNL     1      -2.456 -15.234  -4.833  0.00  0.00    -0.332 N 
ATOM     30  C   UNL     1      -3.706 -15.998  -4.785  0.00  0.00    +0.129 C 
ENDBRANCH  20  21
BRANCH  20  31
ATOM     31  N   UNL     1      -0.397 -11.623  -0.042  0.00  0.00    -0.297 NA
ATOM     32  C   UNL     1      -0.248 -13.082   0.059  0.00  0.00    +0.066 C 
ATOM     33  C   UNL     1      -0.209 -13.486   1.535  0.00  0.00    -0.064 C 
ATOM     34  N   UNL     1      -1.450 -13.057   2.193  0.00  0.00    +0.379 N 
ATOM     35  C   UNL     1      -1.574 -11.596   2.104  0.00  0.00    -0.064 C 
ATOM     36  C   UNL     1      -1.623 -11.176   0.634  0.00  0.00    +0.066 C 
ATOM     37  C   UNL     1      -1.421 -13.461   3.605  0.00  0.00    -0.096 C 
ATOM     38  H   UNL     1      -2.240 -13.489   1.736  0.00  0.00    -0.082 HD
ENDBRANCH  20  31
ENDBRANCH   1  20
TORSDOF 6
