REMARK  Name = ZINC35523545
REMARK  6 active torsions:
REMARK  status: ('A' for Active; 'I' for Inactive)
REMARK    1  A    between atoms: N_8  and  C_19
REMARK    2  A    between atoms: C_9  and  C_11
REMARK    3  A    between atoms: C_19  and  C_20
REMARK    4  A    between atoms: C_23  and  C_25
REMARK    5  A    between atoms: N_27  and  C_28
REMARK    6  A    between atoms: C_28  and  C_29
REMARK                            x       y       z     vdW  Elec       q    Type
REMARK                         _______ _______ _______ _____ _____    ______ ____
ROOT
ATOM      1  C   UNL     1       5.452  -0.896  -0.279  0.00  0.00    -0.002 C 
ENDROOT
BRANCH   1   9
ATOM      2  C   UNL     1      -0.016   1.347   0.009  0.00  0.00    +0.019 A 
ATOM      3  C   UNL     1       1.324   1.789  -0.001  0.00  0.00    +0.021 A 
ATOM      4  C   UNL     1       2.104   0.699  -0.015  0.00  0.00    +0.009 A 
ATOM      5  N   UNL     1       1.297  -0.409  -0.010  0.00  0.00    -0.353 N 
ATOM      6  C   UNL     1       0.002  -0.004   0.002  0.00  0.00    +0.086 A 
ATOM      7  C   UNL     1       1.820  -1.781  -0.014  0.00  0.00    +0.103 C 
ATOM      8  C   UNL     1       3.301  -1.724   0.382  0.00  0.00    -0.055 C 
ATOM      9  N   UNL     1       4.001  -0.733  -0.445  0.00  0.00    +0.394 N 
ATOM     10  C   UNL     1       3.611   0.627  -0.036  0.00  0.00    +0.014 C 
ATOM     11  H   UNL     1       3.758  -0.874  -1.415  0.00  0.00    -0.080 HD
BRANCH  10  12
ATOM     12  C   UNL     1       4.155   1.630  -1.021  0.00  0.00    -0.020 A 
ATOM     13  C   UNL     1       4.445   1.240  -2.315  0.00  0.00    +0.008 A 
ATOM     14  C   UNL     1       4.943   2.159  -3.219  0.00  0.00    +0.039 A 
ATOM     15  C   UNL     1       5.152   3.471  -2.830  0.00  0.00    +0.126 A 
ATOM     16  C   UNL     1       4.862   3.863  -1.534  0.00  0.00    +0.077 A 
ATOM     17  C   UNL     1       4.358   2.943  -0.631  0.00  0.00    +0.128 A 
ATOM     18  F   UNL     1       4.069   3.325   0.632  0.00  0.00    -0.205 F 
ATOM     19  F   UNL     1       5.640   4.369  -3.714  0.00  0.00    -0.205 F 
ENDBRANCH  10  12
ENDBRANCH   1   9
BRANCH   1  20
ATOM     20  C   UNL     1       5.872  -2.237  -0.822  0.00  0.00    +0.090 A 
ATOM     21  C   UNL     1       6.260  -2.485  -2.093  0.00  0.00    +0.043 A 
ATOM     22  C   UNL     1       6.564  -3.853  -2.172  0.00  0.00    +0.055 A 
ATOM     23  C   UNL     1       6.343  -4.377  -0.930  0.00  0.00    +0.189 A 
ATOM     24  O   UNL     1       5.928  -3.378  -0.124  0.00  0.00    -0.457 OA
BRANCH  23  25
ATOM     25  C   UNL     1       6.528  -5.779  -0.541  0.00  0.00    +0.280 C 
ATOM     26  O   UNL     1       6.913  -6.592  -1.360  0.00  0.00    -0.267 OA
ATOM     27  N   UNL     1       6.272  -6.166   0.724  0.00  0.00    -0.305 N 
ATOM     28  H   UNL     1       5.966  -5.518   1.377  0.00  0.00    +0.149 HD
BRANCH  27  29
ATOM     29  C   UNL     1       6.457  -7.566   1.113  0.00  0.00    +0.140 C 
BRANCH  29  30
ATOM     30  C   UNL     1       6.106  -7.734   2.569  0.00  0.00    -0.027 A 
ATOM     31  C   UNL     1       7.080  -7.571   3.537  0.00  0.00    +0.009 A 
ATOM     32  C   UNL     1       6.762  -7.723   4.874  0.00  0.00    +0.050 A 
ATOM     33  C   UNL     1       5.466  -8.040   5.247  0.00  0.00    +0.166 A 
ATOM     34  C   UNL     1       4.485  -8.204   4.272  0.00  0.00    +0.167 A 
ATOM     35  C   UNL     1       4.809  -8.044   2.934  0.00  0.00    +0.054 A 
ATOM     36  O   UNL     1       3.306  -8.509   4.887  0.00  0.00    -0.453 OA
ATOM     37  C   UNL     1       3.663  -8.931   6.216  0.00  0.00    +0.466 C 
ATOM     38  O   UNL     1       4.901  -8.242   6.473  0.00  0.00    -0.453 OA
ENDBRANCH  29  30
ENDBRANCH  27  29
ENDBRANCH  23  25
ENDBRANCH   1  20
TORSDOF 6
