REMARK  Name = ZINC44855446
REMARK  11 active torsions:
REMARK  status: ('A' for Active; 'I' for Inactive)
REMARK    1  A    between atoms: C_1  and  C_2
REMARK    2  A    between atoms: C_9  and  C_35
REMARK    3  A    between atoms: C_9  and  C_36
REMARK    4  A    between atoms: C_11  and  N_13
REMARK    5  A    between atoms: C_14  and  C_16
REMARK    6  A    between atoms: N_19  and  S_31
REMARK    7  A    between atoms: C_22  and  C_27
REMARK    8  A    between atoms: C_27  and  C_28
REMARK    9  A    between atoms: C_27  and  C_29
REMARK   10  A    between atoms: C_27  and  C_30
REMARK   11  A    between atoms: S_31  and  C_34
REMARK                            x       y       z     vdW  Elec       q    Type
REMARK                         _______ _______ _______ _____ _____    ______ ____
ROOT
ATOM      1  C   UNL     1      -1.415  -5.283  -3.482  0.00  0.00    +0.277 C 
ATOM      2  C   UNL     1      -1.768  -6.748  -3.187  0.00  0.00    +0.185 C 
ATOM      3  N   UNL     1      -2.625  -7.229  -4.284  0.00  0.00    -0.200 N 
ATOM      4  C   UNL     1      -2.277  -6.860  -5.593  0.00  0.00    +0.093 A 
ATOM      5  C   UNL     1      -2.859  -7.503  -6.674  0.00  0.00    +0.032 A 
ATOM      6  C   UNL     1      -2.515  -7.134  -7.962  0.00  0.00    -0.040 A 
ATOM      7  C   UNL     1      -1.593  -6.125  -8.170  0.00  0.00    +0.008 A 
ATOM      8  C   UNL     1      -1.008  -5.482  -7.096  0.00  0.00    +0.048 A 
ATOM      9  C   UNL     1      -1.345  -5.847  -5.801  0.00  0.00    +0.144 A 
ATOM     10  O   UNL     1      -0.761  -5.211  -4.750  0.00  0.00    -0.476 OA
ENDROOT
BRANCH   1  12
ATOM     11  N   UNL     1      -0.938  -4.643  -1.140  0.00  0.00    -0.305 N 
ATOM     12  C   UNL     1      -0.496  -4.760  -2.408  0.00  0.00    +0.256 C 
ATOM     13  O   UNL     1       0.641  -4.443  -2.686  0.00  0.00    -0.272 OA
ATOM     14  H   UNL     1      -1.848  -4.897  -0.919  0.00  0.00    +0.149 HD
BRANCH  11  25
ATOM     15  C   UNL     1      -0.171   1.649  -0.205  0.00  0.00    +0.044 C 
ATOM     16  C   UNL     1      -0.141   0.143  -0.167  0.00  0.00    -0.047 A 
ATOM     17  C   UNL     1      -0.106  -0.579  -1.346  0.00  0.00    +0.004 A 
ATOM     18  C   UNL     1      -0.076  -1.959  -1.309  0.00  0.00    +0.009 A 
ATOM     19  C   UNL     1      -0.082  -2.627  -0.096  0.00  0.00    +0.015 A 
ATOM     20  C   UNL     1      -0.120  -1.907   1.085  0.00  0.00    +0.126 A 
ATOM     21  C   UNL     1      -0.141  -0.517   1.045  0.00  0.00    +0.049 A 
ATOM     22  O   UNL     1      -0.139  -2.521   2.297  0.00  0.00    -0.486 OA
ATOM     23  C   UNL     1       0.256  -3.893   2.357  0.00  0.00    +0.107 C 
ATOM     24  C   UNL     1      -0.500  -4.662   1.266  0.00  0.00    +0.074 C 
ATOM     25  C   UNL     1      -0.045  -4.134  -0.097  0.00  0.00    +0.111 C 
ATOM     26  C   UNL     1      -0.094  -4.470   3.730  0.00  0.00    +0.055 C 
ATOM     27  C   UNL     1       1.763  -4.006   2.118  0.00  0.00    +0.055 C 
ENDBRANCH  11  25
ENDBRANCH   1  12
BRANCH   6  28
ATOM     28  C   UNL     1      -3.147  -7.832  -9.139  0.00  0.00    -0.013 C 
ATOM     29  C   UNL     1      -4.664  -7.640  -9.092  0.00  0.00    +0.015 C 
ATOM     30  C   UNL     1      -2.598  -7.238 -10.438  0.00  0.00    +0.015 C 
ATOM     31  C   UNL     1      -2.819  -9.325  -9.082  0.00  0.00    +0.015 C 
ENDBRANCH   6  28
BRANCH   3  32
ATOM     32  S   UNL     1      -3.952  -8.173  -3.985  0.00  0.00    +0.043 S 
ATOM     33  O   UNL     1      -4.240  -7.968  -2.608  0.00  0.00    -0.155 OA
ATOM     34  O   UNL     1      -4.892  -7.804  -4.984  0.00  0.00    -0.155 OA
ATOM     35  C   UNL     1      -3.385  -9.875  -4.257  0.00  0.00    +0.218 C 
ENDBRANCH   3  32
TORSDOF 4
