REMARK  Name = ZINC63975521
REMARK  9 active torsions:
REMARK  status: ('A' for Active; 'I' for Inactive)
REMARK    1  A    between atoms: C_1  and  C_2
REMARK    2  A    between atoms: C_3  and  C_9
REMARK    3  A    between atoms: C_4  and  C_8
REMARK    4  A    between atoms: N_5  and  C_7
REMARK    5  A    between atoms: C_9  and  C_11
REMARK    6  A    between atoms: C_9  and  N_12
REMARK    7  A    between atoms: C_18  and  C_21
REMARK    8  A    between atoms: C_27  and  O_31
REMARK    9  A    between atoms: O_31  and  C_32
REMARK                            x       y       z     vdW  Elec       q    Type
REMARK                         _______ _______ _______ _____ _____    ______ ____
ROOT
ATOM      1  N   UNL     1       1.152   0.244  -4.996  0.00  0.00    -0.293 N 
ATOM      2  C   UNL     1       1.494   1.003  -3.936  0.00  0.00    +0.303 C 
ATOM      3  O   UNL     1       0.938   0.839  -2.867  0.00  0.00    -0.253 OA
ATOM      4  N   UNL     1       2.451   1.943  -4.060  0.00  0.00    -0.286 N 
ATOM      5  C   UNL     1       2.919   2.695  -2.888  0.00  0.00    +0.110 C 
ATOM      6  C   UNL     1       2.805   4.193  -3.185  0.00  0.00    +0.027 C 
ATOM      7  C   UNL     1       3.559   4.512  -4.478  0.00  0.00    +0.024 C 
ATOM      8  C   UNL     1       2.931   3.740  -5.640  0.00  0.00    +0.027 C 
ATOM      9  C   UNL     1       3.050   2.232  -5.370  0.00  0.00    +0.110 C 
ATOM     10  H   UNL     1       1.542   0.423  -5.866  0.00  0.00    +0.151 HD
ENDROOT
BRANCH   7  11
ATOM     11  C   UNL     1       3.478   5.991  -4.755  0.00  0.00    -0.017 C 
ATOM     12  C   UNL     1       4.509   6.861  -4.869  0.00  0.00    +0.116 C 
ATOM     13  N   UNL     1       4.078   8.099  -5.118  0.00  0.00    -0.255 NA
ATOM     14  C   UNL     1       2.764   8.164  -5.190  0.00  0.00    +0.071 C 
ATOM     15  C   UNL     1       2.263   6.791  -4.964  0.00  0.00    +0.004 C 
ATOM     16  C   UNL     1       0.942   6.525  -4.981  0.00  0.00    +0.018 C 
ATOM     17  C   UNL     1      -0.028   7.655  -5.240  0.00  0.00    +0.164 C 
ATOM     18  C   UNL     1       0.513   9.045  -5.470  0.00  0.00    +0.010 C 
ATOM     19  C   UNL     1       1.825   9.263  -5.437  0.00  0.00    +0.027 C 
BRANCH  17  20
ATOM     20  O   UNL     1      -0.806   7.301  -6.385  0.00  0.00    -0.372 OA
ATOM     21  C   UNL     1      -2.128   7.843  -6.380  0.00  0.00    +0.195 C 
ENDBRANCH  17  20
ENDBRANCH   7  11
BRANCH   1  22
ATOM     22  C   UNL     1       0.191  -0.850  -4.835  0.00  0.00    +0.105 C 
ATOM     23  C   UNL     1       0.923  -2.106  -4.358  0.00  0.00    +0.033 C 
BRANCH  22  26
ATOM     24  C   UNL     1       1.639  -1.077  -7.645  0.00  0.00    +0.068 C 
ATOM     25  C   UNL     1       0.160  -1.230  -7.397  0.00  0.00    +0.065 A 
ATOM     26  C   UNL     1      -0.478  -1.129  -6.156  0.00  0.00    +0.016 A 
ATOM     27  C   UNL     1      -1.802  -1.327  -6.352  0.00  0.00    +0.041 A 
ATOM     28  N   UNL     1      -1.995  -1.546  -7.670  0.00  0.00    -0.271 N 
ATOM     29  N   UNL     1      -0.749  -1.475  -8.305  0.00  0.00    -0.176 NA
ATOM     30  C   UNL     1      -3.281  -1.807  -8.321  0.00  0.00    +0.172 C 
ATOM     31  C   UNL     1      -2.870  -1.308  -5.289  0.00  0.00    +0.065 C 
ENDBRANCH  22  26
ENDBRANCH   1  22
TORSDOF 4
