REMARK  Name = ZINC61090280
REMARK  4 active torsions:
REMARK  status: ('A' for Active; 'I' for Inactive)
REMARK    1  A    between atoms: N_5  and  C_9
REMARK    2  A    between atoms: C_7  and  N_8
REMARK    3  A    between atoms: C_9  and  C_10
REMARK    4  A    between atoms: N_12  and  C_13
REMARK                            x       y       z     vdW  Elec       q    Type
REMARK                         _______ _______ _______ _____ _____    ______ ____
ROOT
ATOM      1  C   UNL     1       4.081  -0.968   1.379  0.00  0.00    +0.233 C 
ATOM      2  O   UNL     1       3.407  -0.579   2.309  0.00  0.00    -0.274 OA
ATOM      3  N   UNL     1       5.230  -1.632   1.611  0.00  0.00    -0.311 N 
ATOM      4  H   UNL     1       5.769  -1.943   0.866  0.00  0.00    +0.149 HD
ENDROOT
BRANCH   3   5
ATOM      5  C   UNL     1       5.666  -1.884   2.986  0.00  0.00    +0.073 C 
ATOM      6  C   UNL     1       6.435  -0.668   3.508  0.00  0.00    +0.022 C 
ATOM      7  C   UNL     1       6.544  -0.750   5.032  0.00  0.00    +0.002 C 
ATOM      8  C   UNL     1       5.194  -1.165   5.619  0.00  0.00    +0.000 C 
ATOM      9  C   UNL     1       5.314  -2.559   6.239  0.00  0.00    +0.000 C 
ATOM     10  C   UNL     1       5.335  -3.610   5.127  0.00  0.00    +0.000 C 
ATOM     11  C   UNL     1       6.709  -3.614   4.456  0.00  0.00    +0.002 C 
ATOM     12  C   UNL     1       6.576  -3.114   3.016  0.00  0.00    +0.022 C 
ENDBRANCH   3   5
BRANCH   1  13
ATOM     13  C   UNL     1       3.632  -0.709  -0.036  0.00  0.00    +0.220 C 
BRANCH  13  18
ATOM     14  C   UNL     1      -0.017   1.402   0.010  0.00  0.00    +0.029 A 
ATOM     15  C   UNL     1       1.164   2.084   0.002  0.00  0.00    +0.072 A 
ATOM     16  C   UNL     1       2.373   1.370  -0.013  0.00  0.00    +0.252 A 
ATOM     17  O   UNL     1       3.436   1.972  -0.020  0.00  0.00    -0.268 OA
ATOM     18  N   UNL     1       2.364   0.024  -0.020  0.00  0.00    -0.305 N 
ATOM     19  C   UNL     1       1.190  -0.664  -0.013  0.00  0.00    +0.112 A 
ATOM     20  C   UNL     1       0.002  -0.004   0.002  0.00  0.00    +0.041 A 
BRANCH  20  21
ATOM     21  N   UNL     1      -1.202  -0.724   0.010  0.00  0.00    -0.357 N 
ATOM     22  H   UNL     1      -2.050  -0.252   0.021  0.00  0.00    +0.142 HD
ATOM     23  H   UNL     1      -1.188  -1.694   0.005  0.00  0.00    +0.142 HD
ENDBRANCH  20  21
ENDBRANCH  13  18
ENDBRANCH   1  13
TORSDOF 4
