REMARK  Name = ZINC25184783
REMARK  9 active torsions:
REMARK  status: ('A' for Active; 'I' for Inactive)
REMARK    1  A    between atoms: C_3  and  C_6
REMARK    2  A    between atoms: C_9  and  C_12
REMARK    3  A    between atoms: C_17  and  C_19
REMARK    4  A    between atoms: C_19  and  N_20
REMARK    5  A    between atoms: N_20  and  C_21
REMARK    6  A    between atoms: N_20  and  C_34
REMARK    7  A    between atoms: C_21  and  C_22
REMARK    8  A    between atoms: C_25  and  C_28
REMARK    9  A    between atoms: N_30  and  C_31
REMARK                            x       y       z     vdW  Elec       q    Type
REMARK                         _______ _______ _______ _____ _____    ______ ____
ROOT
ATOM      1  N   UNL     1      -2.150   0.936  -1.418  0.00  0.00    +0.390 N 
ATOM      2  H   UNL     1      -1.626   0.292  -2.139  0.00  0.00    -0.080 HD
ENDROOT
BRANCH   1   3
ATOM      3  C   UNL     1      -1.146   1.776  -0.750  0.00  0.00    -0.068 C 
ATOM      4  C   UNL     1       0.003   1.065  -0.030  0.00  0.00    -0.017 C 
ATOM      5  C   UNL     1      -1.103   1.745   0.780  0.00  0.00    -0.017 C 
ENDBRANCH   1   3
BRANCH   1   6
ATOM      6  C   UNL     1      -2.836   0.068  -0.453  0.00  0.00    +0.021 C 
BRANCH   6  12
ATOM      7  C   UNL     1      -5.388  -2.787   1.269  0.00  0.00    +0.104 C 
ATOM      8  N   UNL     1      -4.588  -1.862   0.856  0.00  0.00    -0.178 NA
ATOM      9  N   UNL     1      -4.351  -1.886  -0.516  0.00  0.00    -0.186 N 
ATOM     10  C   UNL     1      -5.115  -2.995  -1.112  0.00  0.00    +0.143 C 
ATOM     11  C   UNL     1      -5.830  -3.632   0.096  0.00  0.00    +0.090 C 
ATOM     12  C   UNL     1      -3.558  -1.031  -1.190  0.00  0.00    +0.219 C 
ATOM     13  O   UNL     1      -3.423  -1.145  -2.391  0.00  0.00    -0.276 OA
BRANCH   7  16
ATOM     14  C   UNL     1      -6.051  -2.780   4.861  0.00  0.00    +0.042 A 
ATOM     15  C   UNL     1      -5.411  -2.238   3.731  0.00  0.00    +0.051 A 
ATOM     16  C   UNL     1      -5.804  -2.988   2.661  0.00  0.00    +0.150 A 
ATOM     17  O   UNL     1      -6.637  -3.949   3.108  0.00  0.00    -0.462 OA
ATOM     18  C   UNL     1      -6.788  -3.826   4.436  0.00  0.00    +0.196 A 
ENDBRANCH   7  16
BRANCH  10  19
ATOM     19  C   UNL     1      -6.116  -2.473  -2.110  0.00  0.00    +0.013 A 
ATOM     20  C   UNL     1      -6.482  -2.997  -3.305  0.00  0.00    +0.013 A 
ATOM     21  C   UNL     1      -7.436  -2.340  -4.061  0.00  0.00    +0.008 A 
ATOM     22  C   UNL     1      -7.968  -1.187  -3.589  0.00  0.00    +0.045 A 
ATOM     23  S   UNL     1      -7.123  -1.001  -2.027  0.00  0.00    -0.100 S 
ENDBRANCH  10  19
ENDBRANCH   6  12
ENDBRANCH   1   6
BRANCH   1  24
ATOM     24  C   UNL     1      -3.112   1.759  -2.163  0.00  0.00    -0.042 C 
BRANCH  24  25
ATOM     25  C   UNL     1      -2.407   2.450  -3.301  0.00  0.00    -0.064 A 
ATOM     26  C   UNL     1      -1.847   3.700  -3.108  0.00  0.00    +0.002 A 
ATOM     27  C   UNL     1      -1.195   4.336  -4.144  0.00  0.00    +0.013 A 
ATOM     28  C   UNL     1      -1.111   3.719  -5.394  0.00  0.00    +0.037 A 
ATOM     29  C   UNL     1      -1.683   2.461  -5.584  0.00  0.00    +0.013 A 
ATOM     30  C   UNL     1      -2.327   1.834  -4.538  0.00  0.00    +0.002 A 
BRANCH  28  31
ATOM     31  C   UNL     1      -0.419   4.397  -6.511  0.00  0.00    +0.244 C 
ATOM     32  O   UNL     1      -0.348   3.858  -7.598  0.00  0.00    -0.270 OA
ATOM     33  N   UNL     1       0.132   5.613  -6.324  0.00  0.00    -0.308 N 
ATOM     34  H   UNL     1       0.068   6.100  -5.340  0.00  0.00    +0.149 HD
BRANCH  33  35
ATOM     35  C   UNL     1       0.817   6.285  -7.431  0.00  0.00    +0.073 C 
ATOM     36  C   UNL     1       2.152   6.967  -7.126  0.00  0.00    +0.024 C 
ATOM     37  C   UNL     1       0.903   7.811  -7.386  0.00  0.00    +0.024 C 
ENDBRANCH  33  35
ENDBRANCH  28  31
ENDBRANCH  24  25
ENDBRANCH   1  24
TORSDOF 9
