REMARK  Name = ZINC32124581
REMARK  12 active torsions:
REMARK  status: ('A' for Active; 'I' for Inactive)
REMARK    1  A    between atoms: C_1  and  C_2
REMARK    2  A    between atoms: C_2  and  C_3
REMARK    3  A    between atoms: C_2  and  C_4
REMARK    4  A    between atoms: C_2  and  C_5
REMARK    5  A    between atoms: C_12  and  N_16
REMARK    6  A    between atoms: C_13  and  C_14
REMARK    7  A    between atoms: C_17  and  C_19
REMARK    8  A    between atoms: C_19  and  O_20
REMARK    9  A    between atoms: O_20  and  C_21
REMARK   10  A    between atoms: C_21  and  C_23
REMARK   11  A    between atoms: C_25  and  C_30
REMARK   12  A    between atoms: C_33  and  C_35
REMARK                            x       y       z     vdW  Elec       q    Type
REMARK                         _______ _______ _______ _____ _____    ______ ____
ROOT
ATOM      1  N   UNL     1       0.002  -0.004   0.002  0.00  0.00    -0.276 N 
ATOM      2  C   UNL     1       1.178  -0.662  -0.012  0.00  0.00    +0.255 C 
ATOM      3  O   UNL     1       2.220  -0.041  -0.018  0.00  0.00    -0.272 OA
ATOM      4  H   UNL     1      -0.943  -0.567   0.007  0.00  0.00    +0.155 HD
ENDROOT
BRANCH   1  11
ATOM      5  C   UNL     1      -0.117   6.375   0.416  0.00  0.00    -0.000 C 
ATOM      6  C   UNL     1      -1.365   6.051  -0.410  0.00  0.00    +0.009 C 
ATOM      7  C   UNL     1      -1.959   4.717   0.045  0.00  0.00    +0.037 C 
ATOM      8  C   UNL     1      -0.861   3.661   0.030  0.00  0.00    -0.018 A 
ATOM      9  C   UNL     1       0.444   4.013   0.019  0.00  0.00    -0.004 A 
ATOM     10  S   UNL     1       1.326   2.479   0.003  0.00  0.00    -0.077 S 
ATOM     11  C   UNL     1      -0.017   1.384   0.010  0.00  0.00    +0.090 A 
ATOM     12  C   UNL     1      -1.115   2.231   0.019  0.00  0.00    +0.084 A 
ATOM     13  C   UNL     1       1.004   5.402   0.022  0.00  0.00    +0.047 C 
BRANCH   5  15
ATOM     14  C   UNL     1       0.633   7.965  -1.358  0.00  0.00    +0.011 C 
ATOM     15  C   UNL     1       0.327   7.811   0.133  0.00  0.00    -0.035 C 
ATOM     16  C   UNL     1      -0.791   8.778   0.527  0.00  0.00    +0.011 C 
ATOM     17  C   UNL     1       1.583   8.126   0.947  0.00  0.00    +0.011 C 
ENDBRANCH   5  15
BRANCH  12  18
ATOM     18  C   UNL     1      -2.451   1.714   0.021  0.00  0.00    +0.102 C 
ATOM     19  N   UNL     1      -3.510   1.304   0.023  0.00  0.00    -0.191 NA
ENDBRANCH  12  18
ENDBRANCH   1  11
BRANCH   2  20
ATOM     20  C   UNL     1       1.199  -2.169  -0.021  0.00  0.00    +0.328 C 
BRANCH  20  21
ATOM     21  O   UNL     1       2.574  -2.634  -0.036  0.00  0.00    -0.452 OA
BRANCH  21  22
ATOM     22  C   UNL     1       2.769  -3.967  -0.044  0.00  0.00    +0.341 C 
ATOM     23  O   UNL     1       1.815  -4.720  -0.040  0.00  0.00    -0.245 OA
BRANCH  22  24
ATOM     24  C   UNL     1       4.141  -4.513  -0.060  0.00  0.00    +0.078 A 
ATOM     25  C   UNL     1       5.236  -3.651  -0.071  0.00  0.00    +0.028 A 
ATOM     26  C   UNL     1       6.527  -4.174  -0.080  0.00  0.00    +0.018 A 
ATOM     27  C   UNL     1       6.717  -5.560  -0.089  0.00  0.00    +0.013 A 
ATOM     28  C   UNL     1       5.629  -6.409  -0.084  0.00  0.00    +0.021 A 
ATOM     29  C   UNL     1       4.345  -5.897  -0.069  0.00  0.00    +0.055 A 
ATOM     30 CL   UNL     1       2.983  -6.973  -0.063  0.00  0.00    -0.083 Cl
BRANCH  26  31
ATOM     31  C   UNL     1       7.693  -3.268  -0.086  0.00  0.00    +0.136 A 
ATOM     32  C   UNL     1       9.014  -3.658  -0.101  0.00  0.00    +0.050 A 
ATOM     33  C   UNL     1       9.783  -2.493  -0.102  0.00  0.00    +0.053 A 
ATOM     34  C   UNL     1       8.898  -1.430  -0.088  0.00  0.00    +0.168 A 
ATOM     35  O   UNL     1       7.642  -1.926  -0.085  0.00  0.00    -0.452 OA
BRANCH  34  36
ATOM     36  C   UNL     1       9.248  -0.063  -0.085  0.00  0.00    +0.296 C 
ATOM     37  O   UNL     1       8.379   0.786  -0.072  0.00  0.00    -0.292 OA
ENDBRANCH  34  36
ENDBRANCH  26  31
ENDBRANCH  22  24
ENDBRANCH  21  22
ENDBRANCH  20  21
ENDBRANCH   2  20
TORSDOF 9
