REMARK  Name = ZINC09439154
REMARK  13 active torsions:
REMARK  status: ('A' for Active; 'I' for Inactive)
REMARK    1  A    between atoms: C_1  and  C_2
REMARK    2  A    between atoms: C_5  and  O_9
REMARK    3  A    between atoms: C_7  and  C_8
REMARK    4  A    between atoms: O_9  and  C_10
REMARK    5  A    between atoms: C_10  and  C_11
REMARK    6  A    between atoms: C_11  and  O_12
REMARK    7  A    between atoms: O_12  and  C_13
REMARK    8  A    between atoms: C_14  and  O_35
REMARK    9  A    between atoms: C_16  and  C_20
REMARK   10  A    between atoms: C_30  and  C_32
REMARK   11  A    between atoms: C_32  and  C_33
REMARK   12  A    between atoms: C_32  and  C_34
REMARK   13  A    between atoms: O_35  and  C_36
REMARK                            x       y       z     vdW  Elec       q    Type
REMARK                         _______ _______ _______ _____ _____    ______ ____
ROOT
ATOM      1  C   UNL     1      -1.759  -7.940   0.488  0.00  0.00    +0.180 A 
ATOM      2  C   UNL     1      -2.089  -8.651  -0.666  0.00  0.00    +0.164 A 
ATOM      3  C   UNL     1      -2.077 -10.030  -0.656  0.00  0.00    +0.057 A 
ATOM      4  C   UNL     1      -1.734 -10.716   0.518  0.00  0.00    -0.019 A 
ATOM      5  C   UNL     1      -1.404  -9.995   1.674  0.00  0.00    +0.032 A 
ATOM      6  C   UNL     1      -1.413  -8.618   1.652  0.00  0.00    +0.087 A 
ATOM      7 CL   UNL     1      -0.997  -7.726   3.082  0.00  0.00    -0.080 Cl
ENDROOT
BRANCH   4   8
ATOM      8  C   UNL     1      -1.720 -12.181   0.536  0.00  0.00    +0.024 C 
ATOM      9  C   UNL     1      -0.764 -12.851   1.266  0.00  0.00    +0.081 C 
ATOM     10  C   UNL     1      -0.818 -14.328   1.462  0.00  0.00    +0.152 C 
ATOM     11  N   UNL     1      -1.292 -15.153   0.568  0.00  0.00    -0.283 NA
ATOM     12  N   UNL     1      -0.307 -14.745   2.710  0.00  0.00    -0.152 N 
ATOM     13  C   UNL     1       0.585 -13.909   3.345  0.00  0.00    +0.181 C 
ATOM     14  N   UNL     1       0.955 -12.708   2.976  0.00  0.00    -0.152 NA
ATOM     15  C   UNL     1       0.380 -12.143   1.893  0.00  0.00    +0.273 C 
ATOM     16  O   UNL     1       0.784 -11.083   1.445  0.00  0.00    -0.268 OA
ATOM     17  S   UNL     1       1.053 -14.869   4.760  0.00  0.00    -0.038 S 
ATOM     18  C   UNL     1      -0.033 -16.259   4.469  0.00  0.00    +0.102 C 
ATOM     19  N   UNL     1      -0.612 -15.928   3.351  0.00  0.00    -0.169 NA
ATOM     20  H   UNL     1      -1.304 -16.107   0.747  0.00  0.00    +0.188 HD
BRANCH  18  21
ATOM     21  C   UNL     1      -0.228 -17.498   5.304  0.00  0.00    +0.040 C 
ATOM     22  C   UNL     1      -1.252 -17.216   6.405  0.00  0.00    +0.014 C 
ATOM     23  C   UNL     1      -0.735 -18.637   4.416  0.00  0.00    +0.014 C 
ENDBRANCH  18  21
ENDBRANCH   4   8
BRANCH   2  24
ATOM     24  O   UNL     1      -2.422  -7.983  -1.803  0.00  0.00    -0.491 OA
ATOM     25  C   UNL     1      -2.748  -8.773  -2.948  0.00  0.00    +0.277 C 
ENDBRANCH   2  24
BRANCH   1  26
ATOM     26  O   UNL     1      -1.771  -6.583   0.474  0.00  0.00    -0.483 OA
BRANCH  26  27
ATOM     27  C   UNL     1      -0.555  -5.927   0.108  0.00  0.00    +0.270 C 
BRANCH  27  28
ATOM     28  C   UNL     1      -0.760  -4.412   0.148  0.00  0.00    +0.270 C 
BRANCH  28  29
ATOM     29  O   UNL     1      -1.021  -4.002   1.492  0.00  0.00    -0.489 OA
BRANCH  29  34
ATOM     30  C   UNL     1      -1.881   1.495   2.369  0.00  0.00    +0.044 C 
ATOM     31  C   UNL     1      -1.650   0.024   2.135  0.00  0.00    -0.047 A 
ATOM     32  C   UNL     1      -1.392  -0.439   0.857  0.00  0.00    +0.007 A 
ATOM     33  C   UNL     1      -1.181  -1.786   0.640  0.00  0.00    +0.046 A 
ATOM     34  C   UNL     1      -1.228  -2.675   1.704  0.00  0.00    +0.121 A 
ATOM     35  C   UNL     1      -1.486  -2.208   2.984  0.00  0.00    +0.049 A 
ATOM     36  C   UNL     1      -1.692  -0.859   3.197  0.00  0.00    -0.044 A 
ATOM     37  C   UNL     1      -1.967  -0.350   4.589  0.00  0.00    +0.044 C 
ENDBRANCH  29  34
ENDBRANCH  28  29
ENDBRANCH  27  28
ENDBRANCH  26  27
ENDBRANCH   1  26
TORSDOF 8
