REMARK  Name = ZINC37358662
REMARK  8 active torsions:
REMARK  status: ('A' for Active; 'I' for Inactive)
REMARK    1  A    between atoms: C_1  and  O_2
REMARK    2  A    between atoms: O_2  and  C_3
REMARK    3  A    between atoms: C_8  and  C_9
REMARK    4  A    between atoms: C_11  and  N_34
REMARK    5  A    between atoms: N_12  and  C_27
REMARK    6  A    between atoms: N_18  and  C_19
REMARK    7  A    between atoms: C_19  and  C_20
REMARK    8  A    between atoms: C_20  and  C_21
REMARK                            x       y       z     vdW  Elec       q    Type
REMARK                         _______ _______ _______ _____ _____    ______ ____
ROOT
ATOM      1  C   UNL     1      -0.030  -2.871  -0.325  0.00  0.00    +0.092 A 
ATOM      2  C   UNL     1      -0.057  -4.259  -0.059  0.00  0.00    +0.086 A 
ATOM      3  C   UNL     1      -1.043  -5.204   0.196  0.00  0.00    +0.131 A 
ATOM      4  N   UNL     1      -0.429  -6.391   0.376  0.00  0.00    -0.216 N 
ATOM      5  N   UNL     1       0.955  -6.236   0.241  0.00  0.00    -0.144 NA
ATOM      6  C   UNL     1       1.230  -4.977  -0.020  0.00  0.00    +0.189 A 
ATOM      7  N   UNL     1       2.354  -4.267  -0.240  0.00  0.00    -0.193 NA
ATOM      8  C   UNL     1       2.287  -2.974  -0.482  0.00  0.00    +0.218 A 
ATOM      9  N   UNL     1       1.147  -2.292  -0.530  0.00  0.00    -0.214 NA
ATOM     10  N   UNL     1       3.469  -2.289  -0.702  0.00  0.00    -0.313 N 
ATOM     11  H   UNL     1       3.450  -1.336  -0.882  0.00  0.00    +0.149 HD
ENDROOT
BRANCH   4  12
ATOM     12  C   UNL     1      -1.081  -7.598   0.655  0.00  0.00    +0.068 A 
ATOM     13  C   UNL     1      -2.225  -7.606   1.442  0.00  0.00    +0.029 A 
ATOM     14  C   UNL     1      -2.865  -8.798   1.717  0.00  0.00    +0.022 A 
ATOM     15  C   UNL     1      -2.367  -9.985   1.208  0.00  0.00    +0.041 A 
ATOM     16  C   UNL     1      -1.227  -9.981   0.424  0.00  0.00    +0.022 A 
ATOM     17  C   UNL     1      -0.587  -8.790   0.141  0.00  0.00    +0.029 A 
ATOM     18 CL   UNL     1      -3.174 -11.483   1.556  0.00  0.00    -0.084 Cl
ENDBRANCH   4  12
BRANCH   1  24
ATOM     19  C   UNL     1      -1.610  -1.365  -1.535  0.00  0.00    +0.129 A 
ATOM     20  C   UNL     1      -2.789  -0.635  -1.579  0.00  0.00    +0.046 A 
ATOM     21  C   UNL     1      -3.631  -0.615  -0.484  0.00  0.00    +0.004 A 
ATOM     22  C   UNL     1      -3.307  -1.322   0.662  0.00  0.00    +0.001 A 
ATOM     23  C   UNL     1      -2.139  -2.052   0.721  0.00  0.00    +0.013 A 
ATOM     24  C   UNL     1      -1.282  -2.084  -0.380  0.00  0.00    +0.043 A 
BRANCH  19  26
ATOM     25  C   UNL     1      -1.183  -0.627  -3.753  0.00  0.00    +0.277 C 
ATOM     26  O   UNL     1      -0.782  -1.386  -2.610  0.00  0.00    -0.494 OA
ENDBRANCH  19  26
ENDBRANCH   1  24
BRANCH   3  27
ATOM     27  N   UNL     1      -2.404  -4.970   0.255  0.00  0.00    -0.342 N 
ATOM     28  H   UNL     1      -2.747  -4.070   0.142  0.00  0.00    +0.144 HD
ATOM     29  H   UNL     1      -3.016  -5.707   0.409  0.00  0.00    +0.144 HD
ENDBRANCH   3  27
BRANCH  10  30
ATOM     30  C   UNL     1       4.747  -3.002  -0.663  0.00  0.00    +0.110 C 
BRANCH  30  31
ATOM     31  C   UNL     1       5.888  -2.019  -0.937  0.00  0.00    +0.074 C 
BRANCH  31  32
ATOM     32  C   UNL     1       7.204  -2.753  -0.896  0.00  0.00    +0.043 A 
ATOM     33  C   UNL     1       8.062  -2.677  -1.978  0.00  0.00    +0.023 A 
ATOM     34  C   UNL     1       9.269  -3.356  -1.931  0.00  0.00    +0.003 A 
ATOM     35  C   UNL     1       9.570  -4.089  -0.793  0.00  0.00    +0.020 A 
ATOM     36  C   UNL     1       8.663  -4.119   0.249  0.00  0.00    +0.111 A 
ATOM     37  N   UNL     1       7.525  -3.456   0.172  0.00  0.00    -0.260 NA
ENDBRANCH  31  32
ENDBRANCH  30  31
ENDBRANCH  10  30
TORSDOF 7
