REMARK  Name = ZINC64198107
REMARK  8 active torsions:
REMARK  status: ('A' for Active; 'I' for Inactive)
REMARK    1  A    between atoms: C_1  and  C_2
REMARK    2  A    between atoms: C_2  and  C_3
REMARK    3  A    between atoms: C_2  and  C_4
REMARK    4  A    between atoms: C_4  and  C_5
REMARK    5  A    between atoms: C_8  and  C_22
REMARK    6  A    between atoms: N_24  and  C_25
REMARK    7  A    between atoms: C_28  and  O_31
REMARK    8  A    between atoms: O_31  and  C_32
REMARK                            x       y       z     vdW  Elec       q    Type
REMARK                         _______ _______ _______ _____ _____    ______ ____
ROOT
ATOM      1  C   UNL     1      -0.976  -2.325   0.438  0.00  0.00    +0.056 C 
ATOM      2  C   UNL     1      -2.421  -2.684   0.010  0.00  0.00    +0.034 C 
ATOM      3  C   UNL     1      -2.602  -4.116   0.568  0.00  0.00    +0.110 C 
ATOM      4  C   UNL     1      -1.561  -4.236   1.687  0.00  0.00    +0.135 C 
ATOM      5  N   UNL     1      -0.845  -2.952   1.780  0.00  0.00    -0.296 NA
ATOM      6  C   UNL     1      -2.212  -4.594   2.996  0.00  0.00    +0.004 A 
ATOM      7  C   UNL     1      -3.166  -3.979   3.776  0.00  0.00    +0.023 A 
ATOM      8  C   UNL     1      -3.575  -4.567   4.961  0.00  0.00    +0.018 A 
ATOM      9  C   UNL     1      -3.022  -5.772   5.358  0.00  0.00    +0.017 A 
ATOM     10  C   UNL     1      -2.067  -6.391   4.579  0.00  0.00    +0.025 A 
ATOM     11  C   UNL     1      -1.650  -5.805   3.385  0.00  0.00    +0.039 A 
ATOM     12  N   UNL     1      -0.715  -6.230   2.439  0.00  0.00    -0.283 N 
ATOM     13  C   UNL     1      -0.603  -5.366   1.412  0.00  0.00    +0.243 C 
ATOM     14  O   UNL     1       0.128  -5.477   0.451  0.00  0.00    -0.273 OA
ATOM     15 BR   UNL     1      -4.885  -3.725   6.034  0.00  0.00    -0.050 Br
ATOM     16  H   UNL     1       0.124  -3.092   2.021  0.00  0.00    +0.123 HD
ATOM     17  H   UNL     1      -0.204  -7.051   2.513  0.00  0.00    +0.155 HD
ENDROOT
BRANCH   3  18
ATOM     18  C   UNL     1      -2.338  -5.136  -0.509  0.00  0.00    +0.223 C 
ATOM     19  O   UNL     1      -1.638  -4.849  -1.457  0.00  0.00    -0.275 OA
ATOM     20  N   UNL     1      -2.879  -6.367  -0.419  0.00  0.00    -0.285 N 
ATOM     21  H   UNL     1      -3.492  -6.576   0.304  0.00  0.00    +0.155 HD
BRANCH  20  22
ATOM     22  C   UNL     1      -2.556  -7.346  -1.368  0.00  0.00    +0.034 A 
ATOM     23  C   UNL     1      -2.447  -8.676  -0.985  0.00  0.00    +0.027 A 
ATOM     24  C   UNL     1      -2.129  -9.640  -1.921  0.00  0.00    +0.047 A 
ATOM     25  C   UNL     1      -1.918  -9.280  -3.244  0.00  0.00    +0.120 A 
ATOM     26  C   UNL     1      -2.026  -7.951  -3.627  0.00  0.00    +0.047 A 
ATOM     27  C   UNL     1      -2.350  -6.987  -2.693  0.00  0.00    +0.027 A 
BRANCH  25  28
ATOM     28  O   UNL     1      -1.604 -10.229  -4.165  0.00  0.00    -0.495 OA
ATOM     29  C   UNL     1      -1.400  -9.787  -5.509  0.00  0.00    +0.277 C 
ENDBRANCH  25  28
ENDBRANCH  20  22
ENDBRANCH   3  18
BRANCH   1  30
ATOM     30  C   UNL     1      -0.802  -0.808   0.531  0.00  0.00    +0.021 C 
BRANCH  30  32
ATOM     31  C   UNL     1       1.619  -0.924  -0.074  0.00  0.00    +0.007 C 
ATOM     32  C   UNL     1       0.619  -0.485   0.997  0.00  0.00    -0.016 C 
ATOM     33  C   UNL     1       0.750   1.022   1.230  0.00  0.00    +0.007 C 
ENDBRANCH  30  32
ENDBRANCH   1  30
TORSDOF 5
