REMARK  Name = ZINC12136607
REMARK  10 active torsions:
REMARK  status: ('A' for Active; 'I' for Inactive)
REMARK    1  A    between atoms: C_1  and  C_2
REMARK    2  A    between atoms: C_7  and  N_12
REMARK    3  A    between atoms: C_9  and  C_11
REMARK    4  A    between atoms: C_13  and  C_15
REMARK    5  A    between atoms: C_15  and  C_17
REMARK    6  A    between atoms: C_15  and  S_18
REMARK    7  A    between atoms: S_18  and  C_19
REMARK    8  A    between atoms: C_22  and  C_31
REMARK    9  A    between atoms: N_23  and  C_24
REMARK   10  A    between atoms: C_31  and  N_69
REMARK                            x       y       z     vdW  Elec       q    Type
REMARK                         _______ _______ _______ _____ _____    ______ ____
ROOT
ATOM      1  C   UNL     1       0.258  -0.160  -1.081  0.00  0.00    +0.197 A 
ATOM      2  N   UNL     1       0.284  -1.453  -0.852  0.00  0.00    -0.122 NA
ATOM      3  N   UNL     1      -0.088  -1.690   0.355  0.00  0.00    -0.135 NA
ATOM      4  C   UNL     1      -0.367  -0.574   0.967  0.00  0.00    +0.122 A 
ATOM      5  N   UNL     1      -0.153   0.443   0.075  0.00  0.00    -0.276 N 
ENDROOT
BRANCH   5   6
ATOM      6  C   UNL     1      -0.326   1.818   0.299  0.00  0.00    +0.050 A 
ATOM      7  C   UNL     1      -1.595   2.330   0.533  0.00  0.00    +0.029 A 
ATOM      8  C   UNL     1      -1.762   3.682   0.759  0.00  0.00    +0.040 A 
ATOM      9  C   UNL     1      -0.667   4.529   0.741  0.00  0.00    +0.124 A 
ATOM     10  C   UNL     1       0.599   4.021   0.502  0.00  0.00    +0.040 A 
ATOM     11  C   UNL     1       0.771   2.668   0.281  0.00  0.00    +0.029 A 
ATOM     12  F   UNL     1      -0.833   5.852   0.957  0.00  0.00    -0.205 F 
ENDBRANCH   5   6
BRANCH   1  13
ATOM     13  S   UNL     1       0.676   0.644  -2.592  0.00  0.00    -0.073 S 
BRANCH  13  14
ATOM     14  C   UNL     1       1.103  -0.793  -3.606  0.00  0.00    +0.137 C 
ATOM     15  C   UNL     1       2.346  -1.473  -3.027  0.00  0.00    +0.029 C 
BRANCH  14  17
ATOM     16  N   UNL     1       1.232  -1.209  -6.041  0.00  0.00    -0.311 N 
ATOM     17  C   UNL     1       1.387  -0.346  -5.017  0.00  0.00    +0.226 C 
ATOM     18  O   UNL     1       1.754   0.790  -5.231  0.00  0.00    -0.275 OA
ATOM     19  H   UNL     1       0.939  -2.117  -5.870  0.00  0.00    +0.149 HD
BRANCH  16  25
ATOM     20  C   UNL     1       0.316  -3.966  -9.207  0.00  0.00    +0.008 C 
ATOM     21  C   UNL     1       1.116  -3.103  -8.229  0.00  0.00    -0.009 C 
ATOM     22  C   UNL     1       2.610  -3.252  -8.521  0.00  0.00    +0.003 C 
ATOM     23  C   UNL     1       3.409  -2.389  -7.542  0.00  0.00    +0.002 C 
ATOM     24  C   UNL     1       3.002  -0.923  -7.705  0.00  0.00    +0.022 C 
ATOM     25  C   UNL     1       1.508  -0.774  -7.413  0.00  0.00    +0.076 C 
ATOM     26  C   UNL     1       0.708  -1.637  -8.391  0.00  0.00    +0.009 C 
ATOM     27  C   UNL     1      -0.786  -1.488  -8.099  0.00  0.00    +0.009 C 
ENDBRANCH  16  25
ENDBRANCH  14  17
ENDBRANCH  13  14
ENDBRANCH   1  13
BRANCH   4  28
ATOM     28  C   UNL     1      -0.837  -0.429   2.391  0.00  0.00    -0.001 C 
BRANCH  28  34
ATOM     29  C   UNL     1       1.144  -1.365   3.420  0.00  0.00    -0.078 C 
ATOM     30  C   UNL     1       2.407  -1.016   4.210  0.00  0.00    -0.019 C 
ATOM     31  C   UNL     1       2.009  -0.465   5.582  0.00  0.00    -0.004 C 
ATOM     32  C   UNL     1       1.106   0.757   5.391  0.00  0.00    -0.019 C 
ATOM     33  C   UNL     1      -0.119   0.356   4.566  0.00  0.00    -0.078 C 
ATOM     34  N   UNL     1       0.332  -0.142   3.249  0.00  0.00    +0.384 N 
ATOM     35  H   UNL     1       0.906   0.579   2.799  0.00  0.00    -0.081 HD
ENDBRANCH  28  34
ENDBRANCH   4  28
TORSDOF 7
