REMARK  Name = ZINC58911956
REMARK  9 active torsions:
REMARK  status: ('A' for Active; 'I' for Inactive)
REMARK    1  A    between atoms: C_1  and  C_2
REMARK    2  A    between atoms: C_4  and  C_16
REMARK    3  A    between atoms: C_5  and  C_15
REMARK    4  A    between atoms: N_6  and  C_7
REMARK    5  A    between atoms: N_17  and  N_18
REMARK    6  A    between atoms: C_19  and  C_21
REMARK    7  A    between atoms: N_23  and  C_24
REMARK    8  A    between atoms: C_24  and  C_26
REMARK    9  A    between atoms: C_24  and  C_27
REMARK                            x       y       z     vdW  Elec       q    Type
REMARK                         _______ _______ _______ _____ _____    ______ ____
ROOT
ATOM      1  C   UNL     1       0.043  -3.384  -1.462  0.00  0.00    +0.140 C 
ATOM      2  N   UNL     1       0.062  -4.556  -0.901  0.00  0.00    -0.187 NA
ENDROOT
BRANCH   1   6
ATOM      3  C   UNL     1      -0.018   1.503   0.010  0.00  0.00    +0.064 C 
ATOM      4  C   UNL     1       0.002  -0.004   0.002  0.00  0.00    +0.022 A 
ATOM      5  C   UNL     1       0.008  -0.780  -1.097  0.00  0.00    +0.032 A 
ATOM      6  C   UNL     1       0.030  -2.170  -0.628  0.00  0.00    +0.016 A 
ATOM      7  C   UNL     1       0.035  -2.112   0.738  0.00  0.00    +0.030 A 
ATOM      8  N   UNL     1       0.024  -0.804   1.109  0.00  0.00    -0.316 N 
ATOM      9  C   UNL     1       0.056  -3.295   1.671  0.00  0.00    +0.064 C 
BRANCH   8  10
ATOM     10  C   UNL     1       0.029  -0.344   2.433  0.00  0.00    +0.066 A 
ATOM     11  C   UNL     1      -1.169  -0.139   3.103  0.00  0.00    +0.047 A 
ATOM     12  C   UNL     1      -1.161   0.314   4.409  0.00  0.00    +0.043 A 
ATOM     13  C   UNL     1       0.041   0.563   5.048  0.00  0.00    +0.021 A 
ATOM     14  C   UNL     1       1.236   0.360   4.383  0.00  0.00    +0.023 A 
ATOM     15  C   UNL     1       1.234  -0.099   3.079  0.00  0.00    +0.065 A 
ATOM     16 CL   UNL     1       2.735  -0.360   2.248  0.00  0.00    -0.081 Cl
ATOM     17 CL   UNL     1      -2.659   0.571   5.248  0.00  0.00    -0.083 Cl
ENDBRANCH   8  10
ENDBRANCH   1   6
BRANCH   2  18
ATOM     18  N   UNL     1       0.074  -5.711  -1.694  0.00  0.00    -0.199 N 
ATOM     19  C   UNL     1       0.094  -6.927  -1.114  0.00  0.00    +0.318 C 
ATOM     20  O   UNL     1       0.100  -7.022   0.097  0.00  0.00    -0.263 OA
ATOM     21  H   UNL     1       0.070  -5.636  -2.662  0.00  0.00    +0.178 HD
BRANCH  19  22
ATOM     22  C   UNL     1       0.107  -8.157  -1.958  0.00  0.00    +0.301 C 
ATOM     23  O   UNL     1       0.101  -8.062  -3.168  0.00  0.00    -0.265 OA
ATOM     24  N   UNL     1       0.127  -9.373  -1.377  0.00  0.00    -0.301 N 
ATOM     25  H   UNL     1       0.132  -9.448  -0.410  0.00  0.00    +0.150 HD
BRANCH  24  26
ATOM     26  C   UNL     1       0.140 -10.580  -2.206  0.00  0.00    +0.101 C 
ATOM     27  C   UNL     1       1.580 -10.910  -2.604  0.00  0.00    +0.033 C 
BRANCH  26  28
ATOM     28  C   UNL     1      -0.441 -11.732  -1.427  0.00  0.00    -0.027 A 
ATOM     29  C   UNL     1      -0.145 -11.877  -0.084  0.00  0.00    +0.005 A 
ATOM     30  C   UNL     1      -0.679 -12.932   0.631  0.00  0.00    +0.000 A 
ATOM     31  C   UNL     1      -1.508 -13.843   0.004  0.00  0.00    +0.000 A 
ATOM     32  C   UNL     1      -1.805 -13.698  -1.338  0.00  0.00    +0.000 A 
ATOM     33  C   UNL     1      -1.275 -12.639  -2.053  0.00  0.00    +0.005 A 
ENDBRANCH  26  28
ENDBRANCH  24  26
ENDBRANCH  19  22
ENDBRANCH   2  18
TORSDOF 6
