REMARK  Name = ZINC46254559
REMARK  9 active torsions:
REMARK  status: ('A' for Active; 'I' for Inactive)
REMARK    1  A    between atoms: C_1  and  C_2
REMARK    2  A    between atoms: N_5  and  C_8
REMARK    3  A    between atoms: C_8  and  C_10
REMARK    4  A    between atoms: C_8  and  C_27
REMARK    5  A    between atoms: C_10  and  N_11
REMARK    6  A    between atoms: N_17  and  C_20
REMARK    7  A    between atoms: C_25  and  O_26
REMARK    8  A    between atoms: C_27  and  C_28
REMARK    9  A    between atoms: C_27  and  C_29
REMARK                            x       y       z     vdW  Elec       q    Type
REMARK                         _______ _______ _______ _____ _____    ______ ____
ROOT
ATOM      1  N   UNL     1       1.813  -3.823   2.308  0.00  0.00    -0.301 N 
ATOM      2  C   UNL     1       2.270  -4.154   3.532  0.00  0.00    +0.302 C 
ATOM      3  O   UNL     1       3.321  -4.753   3.647  0.00  0.00    -0.253 OA
ATOM      4  N   UNL     1       1.561  -3.820   4.629  0.00  0.00    -0.283 N 
ATOM      5  C   UNL     1       0.223  -3.225   4.502  0.00  0.00    +0.128 C 
ATOM      6  C   UNL     1      -0.770  -4.077   5.303  0.00  0.00    +0.124 C 
ATOM      7  N   UNL     1      -0.218  -4.301   6.647  0.00  0.00    -0.324 N 
ATOM      8  C   UNL     1       1.120  -4.895   6.774  0.00  0.00    +0.124 C 
ATOM      9  C   UNL     1       2.110  -4.048   5.973  0.00  0.00    +0.128 C 
ATOM     10  H   UNL     1       1.017  -3.276   2.219  0.00  0.00    +0.150 HD
ENDROOT
BRANCH   7  11
ATOM     11  C   UNL     1      -0.955  -3.954   7.786  0.00  0.00    +0.072 A 
ATOM     12  C   UNL     1      -1.805  -4.880   8.373  0.00  0.00    +0.027 A 
ATOM     13  C   UNL     1      -2.530  -4.535   9.498  0.00  0.00    +0.002 A 
ATOM     14  C   UNL     1      -2.411  -3.268  10.040  0.00  0.00    +0.004 A 
ATOM     15  C   UNL     1      -1.565  -2.341   9.460  0.00  0.00    +0.047 A 
ATOM     16  C   UNL     1      -0.831  -2.680   8.336  0.00  0.00    +0.138 A 
BRANCH  16  17
ATOM     17  O   UNL     1       0.005  -1.770   7.768  0.00  0.00    -0.505 OA
ATOM     18  H   UNL     1      -0.413  -1.221   7.090  0.00  0.00    +0.292 HD
ENDBRANCH  16  17
ENDBRANCH   7  11
BRANCH   1  19
ATOM     19  C   UNL     1       2.519  -4.289   1.112  0.00  0.00    +0.091 C 
BRANCH  19  20
ATOM     20  C   UNL     1       1.911  -3.631  -0.128  0.00  0.00    -0.048 C 
BRANCH  20  25
ATOM     21  C   UNL     1       3.655   1.700   0.898  0.00  0.00    +0.007 C 
ATOM     22  C   UNL     1       3.370   0.203   1.025  0.00  0.00    -0.018 C 
ATOM     23  C   UNL     1       1.859  -0.039   0.956  0.00  0.00    -0.016 C 
ATOM     24  C   UNL     1       1.586  -1.543   1.004  0.00  0.00    -0.078 C 
ATOM     25  N   UNL     1       2.241  -2.200  -0.135  0.00  0.00    +0.383 N 
ATOM     26  C   UNL     1       3.696  -2.034  -0.036  0.00  0.00    -0.078 C 
ATOM     27  C   UNL     1       4.050  -0.548  -0.123  0.00  0.00    -0.016 C 
ATOM     28  H   UNL     1       1.913  -1.785  -0.994  0.00  0.00    -0.081 HD
ENDBRANCH  20  25
BRANCH  20  29
ATOM     29  C   UNL     1       2.480  -4.291  -1.386  0.00  0.00    -0.029 C 
ATOM     30  C   UNL     1       2.030  -5.752  -1.443  0.00  0.00    +0.005 C 
ATOM     31  C   UNL     1       1.970  -3.552  -2.625  0.00  0.00    +0.005 C 
ENDBRANCH  20  29
ENDBRANCH  19  20
ENDBRANCH   1  19
TORSDOF 6
