REMARK  Name = ZINC13647406
REMARK  2 active torsions:
REMARK  status: ('A' for Active; 'I' for Inactive)
REMARK    1  A    between atoms: C_9  and  N_11
REMARK    2  A    between atoms: N_11  and  N_12
REMARK                            x       y       z     vdW  Elec       q    Type
REMARK                         _______ _______ _______ _____ _____    ______ ____
ROOT
ATOM      1  N   UNL     1       4.916  -2.509   0.009  0.00  0.00    -0.220 N 
ATOM      2  H   UNL     1       4.970  -3.457   0.207  0.00  0.00    +0.176 HD
ENDROOT
BRANCH   1   3
ATOM      3  N   UNL     1       5.994  -1.803  -0.064  0.00  0.00    -0.176 NA
ATOM      4  C   UNL     1       7.168  -2.386   0.021  0.00  0.00    +0.152 C 
ATOM      5  C   UNL     1       7.455  -3.840   0.022  0.00  0.00    +0.028 A 
ATOM      6  C   UNL     1       6.649  -4.970  -0.060  0.00  0.00    +0.012 A 
ATOM      7  C   UNL     1       7.224  -6.224  -0.033  0.00  0.00    +0.001 A 
ATOM      8  C   UNL     1       8.598  -6.355   0.076  0.00  0.00    +0.002 A 
ATOM      9  C   UNL     1       9.407  -5.240   0.158  0.00  0.00    +0.024 A 
ATOM     10  C   UNL     1       8.845  -3.968   0.131  0.00  0.00    +0.043 A 
ATOM     11  N   UNL     1       9.418  -2.703   0.196  0.00  0.00    -0.280 N 
ATOM     12  C   UNL     1       8.486  -1.737   0.130  0.00  0.00    +0.269 C 
ATOM     13  O   UNL     1       8.694  -0.538   0.158  0.00  0.00    -0.268 OA
ATOM     14  H   UNL     1      10.371  -2.538   0.275  0.00  0.00    +0.155 HD
ENDBRANCH   1   3
BRANCH   1  23
ATOM     15  C   UNL     1       0.013   1.250  -1.079  0.00  0.00    +0.001 A 
ATOM     16  C   UNL     1       1.200   1.975  -1.149  0.00  0.00    +0.002 A 
ATOM     17  C   UNL     1       2.404   1.372  -0.947  0.00  0.00    +0.028 A 
ATOM     18  C   UNL     1       2.456  -0.004  -0.663  0.00  0.00    +0.073 A 
ATOM     19  C   UNL     1       1.247  -0.739  -0.592  0.00  0.00    +0.001 A 
ATOM     20  C   UNL     1       0.024  -0.085  -0.805  0.00  0.00    +0.010 A 
ATOM     21  C   UNL     1       1.298  -2.119  -0.307  0.00  0.00    +0.013 A 
ATOM     22  C   UNL     1       2.519  -2.692  -0.110  0.00  0.00    +0.046 A 
ATOM     23  C   UNL     1       3.679  -1.910  -0.194  0.00  0.00    +0.139 A 
ATOM     24  N   UNL     1       3.624  -0.621  -0.460  0.00  0.00    -0.231 NA
ENDBRANCH   1  23
TORSDOF 2
