REMARK  Name = ZINC58117238
REMARK  4 active torsions:
REMARK  status: ('A' for Active; 'I' for Inactive)
REMARK    1  A    between atoms: C_1  and  C_2
REMARK    2  A    between atoms: C_7  and  C_8
REMARK    3  A    between atoms: C_8  and  C_10
REMARK    4  A    between atoms: C_8  and  O_15
REMARK                            x       y       z     vdW  Elec       q    Type
REMARK                         _______ _______ _______ _____ _____    ______ ____
ROOT
ATOM      1  C   UNL     1      -0.018   1.503   0.010  0.00  0.00    +0.044 C 
ATOM      2  C   UNL     1       0.002  -0.004   0.002  0.00  0.00    -0.042 A 
ATOM      3  C   UNL     1       0.006  -0.685  -1.200  0.00  0.00    +0.031 A 
ATOM      4  C   UNL     1       0.025  -2.071  -1.207  0.00  0.00    +0.067 A 
ATOM      5  C   UNL     1       0.040  -2.773   0.000  0.00  0.00    +0.067 A 
ATOM      6  C   UNL     1       0.035  -2.081   1.201  0.00  0.00    +0.034 A 
ATOM      7  C   UNL     1       0.023  -0.700   1.198  0.00  0.00    -0.007 A 
ATOM      8  N   UNL     1       0.057  -4.128  -0.322  0.00  0.00    -0.306 N 
ATOM      9  H   UNL     1       0.070  -4.862   0.312  0.00  0.00    +0.170 HD
ATOM     10  C   UNL     1       0.053  -4.245  -1.663  0.00  0.00    +0.325 A 
ATOM     11  O   UNL     1       0.065  -5.297  -2.275  0.00  0.00    -0.247 OA
ATOM     12  N   UNL     1       0.033  -3.022  -2.225  0.00  0.00    -0.306 N 
ATOM     13  H   UNL     1       0.026  -2.834  -3.177  0.00  0.00    +0.170 HD
ENDROOT
BRANCH   7  14
ATOM     14  C   UNL     1       0.025   0.053   2.504  0.00  0.00    +0.210 C 
BRANCH  14  15
ATOM     15  C   UNL     1       1.440   0.430   2.864  0.00  0.00    +0.138 A 
ATOM     16  C   UNL     1       2.002   1.638   2.680  0.00  0.00    +0.047 A 
ATOM     17  C   UNL     1       3.331   1.548   3.155  0.00  0.00    +0.041 A 
ATOM     18  C   UNL     1       3.500   0.289   3.600  0.00  0.00    +0.195 A 
ATOM     19  O   UNL     1       2.350  -0.381   3.426  0.00  0.00    -0.465 OA
ENDBRANCH  14  15
BRANCH  14  20
ATOM     20  O   UNL     1      -0.523  -0.774   3.532  0.00  0.00    -0.379 OA
ATOM     21  H   UNL     1      -0.036  -1.597   3.676  0.00  0.00    +0.211 HD
ENDBRANCH  14  20
ENDBRANCH   7  14
TORSDOF 3
