REMARK  Name = ZINC13655925
REMARK  13 active torsions:
REMARK  status: ('A' for Active; 'I' for Inactive)
REMARK    1  A    between atoms: C_1  and  C_2
REMARK    2  A    between atoms: C_12  and  C_13
REMARK    3  A    between atoms: C_13  and  C_14
REMARK    4  A    between atoms: C_14  and  C_15
REMARK    5  A    between atoms: N_17  and  C_18
REMARK    6  A    between atoms: C_18  and  C_19
REMARK    7  A    between atoms: C_19  and  C_20
REMARK    8  A    between atoms: C_19  and  C_21
REMARK    9  A    between atoms: C_19  and  C_22
REMARK   10  A    between atoms: C_22  and  N_66
REMARK   11  A    between atoms: C_23  and  N_66
REMARK   12  A    between atoms: C_24  and  N_66
REMARK   13  A    between atoms: C_27  and  C_28
REMARK                            x       y       z     vdW  Elec       q    Type
REMARK                         _______ _______ _______ _____ _____    ______ ____
ROOT
ATOM      1  C   UNL     1      -2.967  -1.837   0.156  0.00  0.00    +0.045 C 
ATOM      2  C   UNL     1      -1.887  -0.786   0.195  0.00  0.00    -0.030 A 
ATOM      3  C   UNL     1      -2.223   0.640   0.193  0.00  0.00    +0.022 A 
ATOM      4  C   UNL     1      -3.554   1.060   0.160  0.00  0.00    +0.024 A 
ATOM      5  C   UNL     1      -3.837   2.417   0.154  0.00  0.00    +0.029 A 
ATOM      6  C   UNL     1      -2.797   3.366   0.191  0.00  0.00    +0.139 A 
ATOM      7  C   UNL     1      -1.477   2.942   0.230  0.00  0.00    +0.093 A 
ATOM      8  C   UNL     1      -1.181   1.589   0.231  0.00  0.00    +0.143 A 
ATOM      9  O   UNL     1       0.104   1.171   0.268  0.00  0.00    -0.422 OA
ATOM     10  C   UNL     1       0.417  -0.134   0.270  0.00  0.00    +0.341 A 
ATOM     11  O   UNL     1       1.589  -0.462   0.303  0.00  0.00    -0.245 OA
ATOM     12  C   UNL     1      -0.576  -1.136   0.233  0.00  0.00    +0.041 A 
ATOM     13  O   UNL     1      -3.367   4.588   0.182  0.00  0.00    -0.462 OA
ATOM     14  C   UNL     1      -4.708   4.500   0.140  0.00  0.00    +0.204 A 
ATOM     15  C   UNL     1      -5.086   3.203   0.121  0.00  0.00    +0.028 A 
ENDROOT
BRANCH  15  16
ATOM     16  C   UNL     1      -6.472   2.677   0.075  0.00  0.00    -0.014 A 
ATOM     17  C   UNL     1      -6.824   1.714  -0.870  0.00  0.00    +0.011 A 
ATOM     18  C   UNL     1      -8.113   1.225  -0.906  0.00  0.00    +0.039 A 
ATOM     19  C   UNL     1      -9.060   1.696  -0.011  0.00  0.00    +0.123 A 
ATOM     20  C   UNL     1      -8.717   2.656   0.927  0.00  0.00    +0.039 A 
ATOM     21  C   UNL     1      -7.428   3.148   0.973  0.00  0.00    +0.011 A 
ATOM     22  F   UNL     1     -10.323   1.218  -0.053  0.00  0.00    -0.205 F 
ENDBRANCH  15  16
BRANCH  12  23
ATOM     23  C   UNL     1      -0.181  -2.591   0.236  0.00  0.00    +0.052 C 
BRANCH  23  24
ATOM     24  C   UNL     1      -0.003  -3.074  -1.204  0.00  0.00    +0.100 C 
BRANCH  24  25
ATOM     25  C   UNL     1       0.391  -4.528  -1.202  0.00  0.00    +0.213 C 
ATOM     26  O   UNL     1       0.517  -5.120  -0.150  0.00  0.00    -0.276 OA
ATOM     27  N   UNL     1       0.603  -5.171  -2.367  0.00  0.00    -0.315 N 
ATOM     28  H   UNL     1       0.502  -4.698  -3.207  0.00  0.00    +0.149 HD
BRANCH  27  29
ATOM     29  C   UNL     1       0.987  -6.585  -2.364  0.00  0.00    +0.108 C 
BRANCH  29  30
ATOM     30  C   UNL     1       1.165  -7.069  -3.804  0.00  0.00    -0.034 C 
ATOM     31  C   UNL     1      -0.152  -6.898  -4.566  0.00  0.00    +0.010 C 
ATOM     32  C   UNL     1       2.259  -6.245  -4.487  0.00  0.00    +0.010 C 
BRANCH  30  33
ATOM     33  C   UNL     1       1.565  -8.545  -3.801  0.00  0.00    -0.072 C 
BRANCH  33  36
ATOM     34  C   UNL     1       2.923  -8.763  -5.794  0.00  0.00    -0.097 C 
ATOM     35  C   UNL     1       1.304 -10.476  -5.239  0.00  0.00    -0.097 C 
ATOM     36  N   UNL     1       1.596  -9.027  -5.198  0.00  0.00    +0.376 N 
ATOM     37  H   UNL     1       0.881  -8.528  -5.740  0.00  0.00    -0.083 HD
ENDBRANCH  33  36
ENDBRANCH  30  33
ENDBRANCH  29  30
ENDBRANCH  27  29
ENDBRANCH  24  25
ENDBRANCH  23  24
ENDBRANCH  12  23
TORSDOF 8
