REMARK  Name = ZINC38660563
REMARK  15 active torsions:
REMARK  status: ('A' for Active; 'I' for Inactive)
REMARK    1  A    between atoms: C_1  and  O_2
REMARK    2  A    between atoms: O_2  and  C_3
REMARK    3  A    between atoms: C_5  and  C_13
REMARK    4  A    between atoms: C_7  and  O_11
REMARK    5  A    between atoms: C_8  and  O_9
REMARK    6  A    between atoms: O_9  and  C_10
REMARK    7  A    between atoms: O_11  and  C_12
REMARK    8  A    between atoms: C_18  and  O_27
REMARK    9  A    between atoms: C_22  and  N_26
REMARK   10  A    between atoms: C_23  and  C_24
REMARK   11  A    between atoms: O_27  and  C_28
REMARK   12  A    between atoms: C_28  and  C_30
REMARK   13  A    between atoms: C_33  and  O_36
REMARK   14  A    between atoms: O_36  and  C_37
REMARK   15  A    between atoms: C_37  and  C_38
REMARK                            x       y       z     vdW  Elec       q    Type
REMARK                         _______ _______ _______ _____ _____    ______ ____
ROOT
ATOM      1  C   UNL     1      -4.893   0.210   0.066  0.00  0.00    +0.098 C 
ATOM      2  C   UNL     1      -5.694  -0.102  -1.171  0.00  0.00    +0.008 A 
ATOM      3  C   UNL     1      -5.369   0.515  -2.366  0.00  0.00    +0.012 A 
ATOM      4  C   UNL     1      -6.092   0.241  -3.509  0.00  0.00    +0.047 A 
ATOM      5  C   UNL     1      -7.150  -0.657  -3.463  0.00  0.00    +0.135 A 
ATOM      6  C   UNL     1      -7.478  -1.277  -2.268  0.00  0.00    +0.093 A 
ATOM      7  C   UNL     1      -6.748  -1.000  -1.119  0.00  0.00    +0.138 A 
ATOM      8  O   UNL     1      -7.082  -1.615   0.043  0.00  0.00    -0.441 OA
ATOM      9  C   UNL     1      -6.674  -1.100   1.215  0.00  0.00    +0.199 C 
ATOM     10  C   UNL     1      -5.642  -0.231   1.292  0.00  0.00    +0.098 C 
ENDROOT
BRANCH   1  13
ATOM     11  C   UNL     1      -1.174  -0.457  -0.044  0.00  0.00    +0.165 A 
ATOM     12  C   UNL     1      -2.392   0.205   0.015  0.00  0.00    +0.054 A 
ATOM     13  C   UNL     1      -3.572  -0.514   0.001  0.00  0.00    -0.028 A 
ATOM     14  C   UNL     1      -3.545  -1.894  -0.071  0.00  0.00    +0.054 A 
ATOM     15  C   UNL     1      -2.332  -2.563  -0.131  0.00  0.00    +0.165 A 
ATOM     16  C   UNL     1      -1.143  -1.844  -0.123  0.00  0.00    +0.204 A 
BRANCH  11  18
ATOM     17  C   UNL     1      -0.121   1.673   0.052  0.00  0.00    +0.277 C 
ATOM     18  O   UNL     1      -0.013   0.251  -0.030  0.00  0.00    -0.491 OA
ENDBRANCH  11  18
BRANCH  16  19
ATOM     19  O   UNL     1       0.049  -2.497  -0.186  0.00  0.00    -0.488 OA
ATOM     20  C   UNL     1       0.646  -2.880   1.054  0.00  0.00    +0.277 C 
ENDBRANCH  16  19
BRANCH  15  21
ATOM     21  O   UNL     1      -2.307  -3.921  -0.202  0.00  0.00    -0.491 OA
ATOM     22  C   UNL     1      -3.567  -4.594  -0.211  0.00  0.00    +0.277 C 
ENDBRANCH  15  21
ENDBRANCH   1  13
BRANCH   9  23
ATOM     23  N   UNL     1      -7.324  -1.468   2.366  0.00  0.00    -0.328 N 
ATOM     24  H   UNL     1      -8.066  -2.092   2.326  0.00  0.00    +0.145 HD
ATOM     25  H   UNL     1      -7.041  -1.105   3.220  0.00  0.00    +0.145 HD
ENDBRANCH   9  23
BRANCH  10  26
ATOM     26  C   UNL     1      -5.256   0.281   2.572  0.00  0.00    +0.101 C 
ATOM     27  N   UNL     1      -4.950   0.687   3.588  0.00  0.00    -0.191 NA
ENDBRANCH  10  26
BRANCH   5  28
ATOM     28  O   UNL     1      -7.863  -0.928  -4.588  0.00  0.00    -0.422 OA
BRANCH  28  29
ATOM     29  C   UNL     1      -9.134  -0.486  -4.653  0.00  0.00    +0.344 C 
ATOM     30  O   UNL     1      -9.577   0.223  -3.771  0.00  0.00    -0.245 OA
BRANCH  29  31
ATOM     31  C   UNL     1      -9.988  -0.862  -5.795  0.00  0.00    +0.060 A 
ATOM     32  C   UNL     1      -9.482  -1.681  -6.808  0.00  0.00    +0.018 A 
ATOM     33  C   UNL     1     -10.283  -2.030  -7.873  0.00  0.00    +0.046 A 
ATOM     34  C   UNL     1     -11.592  -1.569  -7.940  0.00  0.00    +0.121 A 
ATOM     35  C   UNL     1     -12.099  -0.753  -6.935  0.00  0.00    +0.046 A 
ATOM     36  C   UNL     1     -11.307  -0.404  -5.864  0.00  0.00    +0.018 A 
BRANCH  34  37
ATOM     37  O   UNL     1     -12.378  -1.915  -8.991  0.00  0.00    -0.488 OA
BRANCH  37  38
ATOM     38  C   UNL     1     -13.714  -1.407  -8.998  0.00  0.00    +0.256 C 
BRANCH  38  39
ATOM     39  C   UNL     1     -14.430  -1.892 -10.232  0.00  0.00    +0.006 C 
ATOM     40  C   UNL     1     -15.651  -2.358 -10.139  0.00  0.00    +0.007 C 
ENDBRANCH  38  39
ENDBRANCH  37  38
ENDBRANCH  34  37
ENDBRANCH  29  31
ENDBRANCH  28  29
ENDBRANCH   5  28
TORSDOF 12
