REMARK  Name = ZINC17573845
REMARK  8 active torsions:
REMARK  status: ('A' for Active; 'I' for Inactive)
REMARK    1  A    between atoms: C_1  and  N_2
REMARK    2  A    between atoms: N_2  and  C_3
REMARK    3  A    between atoms: N_2  and  S_4
REMARK    4  A    between atoms: S_4  and  C_7
REMARK    5  A    between atoms: C_10  and  C_13
REMARK    6  A    between atoms: N_15  and  N_16
REMARK    7  A    between atoms: C_17  and  C_19
REMARK    8  A    between atoms: C_24  and  O_25
REMARK                            x       y       z     vdW  Elec       q    Type
REMARK                         _______ _______ _______ _____ _____    ______ ____
ROOT
ATOM      1  C   UNL     1       5.737  -1.626  -3.034  0.00  0.00    +0.260 C 
ATOM      2  O   UNL     1       6.302  -0.790  -3.713  0.00  0.00    -0.269 OA
ATOM      3  N   UNL     1       6.399  -2.732  -2.639  0.00  0.00    -0.230 N 
ATOM      4  H   UNL     1       5.948  -3.399  -2.097  0.00  0.00    +0.173 HD
ENDROOT
BRANCH   1   8
ATOM      5  C   UNL     1       1.682  -1.059  -1.905  0.00  0.00    +0.105 A 
ATOM      6  C   UNL     1       2.321  -0.106  -2.678  0.00  0.00    +0.029 A 
ATOM      7  C   UNL     1       3.638  -0.284  -3.048  0.00  0.00    +0.015 A 
ATOM      8  C   UNL     1       4.326  -1.429  -2.641  0.00  0.00    +0.038 A 
ATOM      9  C   UNL     1       3.675  -2.386  -1.861  0.00  0.00    +0.015 A 
ATOM     10  C   UNL     1       2.359  -2.194  -1.494  0.00  0.00    +0.029 A 
BRANCH   5  11
ATOM     11  S   UNL     1      -0.000  -0.824  -1.437  0.00  0.00    +0.060 S 
ATOM     12  O   UNL     1      -0.531  -2.115  -1.167  0.00  0.00    -0.153 OA
ATOM     13  O   UNL     1      -0.572   0.049  -2.401  0.00  0.00    -0.153 OA
BRANCH  11  15
ATOM     14  C   UNL     1      -0.018   1.461   0.010  0.00  0.00    +0.131 C 
ATOM     15  N   UNL     1       0.002  -0.004   0.002  0.00  0.00    -0.183 NA
ATOM     16  C   UNL     1       0.024  -0.743   1.267  0.00  0.00    +0.131 C 
ENDBRANCH  11  15
ENDBRANCH   5  11
ENDBRANCH   1   8
BRANCH   3  17
ATOM     17  N   UNL     1       7.736  -2.919  -3.012  0.00  0.00    -0.230 N 
ATOM     18  C   UNL     1       8.397  -4.025  -2.617  0.00  0.00    +0.264 C 
ATOM     19  O   UNL     1       7.833  -4.861  -1.938  0.00  0.00    -0.269 OA
ATOM     20  H   UNL     1       8.186  -2.252  -3.554  0.00  0.00    +0.173 HD
BRANCH  18  21
ATOM     21  C   UNL     1       9.806  -4.222  -3.010  0.00  0.00    +0.079 A 
ATOM     22  C   UNL     1      10.460  -3.261  -3.785  0.00  0.00    +0.017 A 
ATOM     23  C   UNL     1      11.776  -3.451  -4.148  0.00  0.00    +0.001 A 
ATOM     24  C   UNL     1      12.454  -4.591  -3.747  0.00  0.00    +0.004 A 
ATOM     25  C   UNL     1      11.819  -5.548  -2.981  0.00  0.00    +0.046 A 
ATOM     26  C   UNL     1      10.497  -5.371  -2.602  0.00  0.00    +0.129 A 
BRANCH  26  27
ATOM     27  O   UNL     1       9.874  -6.308  -1.844  0.00  0.00    -0.506 OA
ATOM     28  H   UNL     1       9.431  -6.997  -2.357  0.00  0.00    +0.292 HD
ENDBRANCH  26  27
ENDBRANCH  18  21
ENDBRANCH   3  17
TORSDOF 6
