REMARK  Name = ZINC40013556
REMARK  8 active torsions:
REMARK  status: ('A' for Active; 'I' for Inactive)
REMARK    1  A    between atoms: C_1  and  C_2
REMARK    2  A    between atoms: C_7  and  N_8
REMARK    3  A    between atoms: C_9  and  C_26
REMARK    4  A    between atoms: C_16  and  C_25
REMARK    5  A    between atoms: C_17  and  C_24
REMARK    6  A    between atoms: C_29  and  O_32
REMARK    7  A    between atoms: O_32  and  C_33
REMARK    8  A    between atoms: C_33  and  C_34
REMARK                            x       y       z     vdW  Elec       q    Type
REMARK                         _______ _______ _______ _____ _____    ______ ____
ROOT
ATOM      1  N   UNL     1       0.033  -0.215   2.505  0.00  0.00    -0.237 N 
ATOM      2  C   UNL     1       0.217  -0.912   3.788  0.00  0.00    +0.151 C 
ATOM      3  C   UNL     1       0.144   0.145   4.840  0.00  0.00    +0.072 A 
ATOM      4  C   UNL     1       0.245   0.064   6.301  0.00  0.00    +0.199 A 
ATOM      5  O   UNL     1       0.594  -0.944   6.890  0.00  0.00    -0.287 OA
ATOM      6  C   UNL     1      -0.115   1.327   6.993  0.00  0.00    +0.065 A 
ATOM      7  C   UNL     1      -0.261   1.356   8.380  0.00  0.00    +0.019 A 
ATOM      8  C   UNL     1      -0.598   2.526   9.002  0.00  0.00    -0.047 A 
ATOM      9  C   UNL     1      -0.797   3.680   8.258  0.00  0.00    -0.044 A 
ATOM     10  C   UNL     1      -0.655   3.671   6.889  0.00  0.00    +0.050 A 
ATOM     11  C   UNL     1      -0.308   2.491   6.231  0.00  0.00    +0.140 A 
ATOM     12  O   UNL     1      -0.165   2.506   4.886  0.00  0.00    -0.450 OA
ATOM     13  C   UNL     1      -0.059   1.343   4.214  0.00  0.00    +0.199 A 
ATOM     14  C   UNL     1      -0.123   1.100   2.763  0.00  0.00    +0.288 C 
ATOM     15  O   UNL     1      -0.294   1.959   1.920  0.00  0.00    -0.266 OA
ATOM     16  C   UNL     1      -1.172   4.961   8.958  0.00  0.00    +0.044 C 
ATOM     17  C   UNL     1      -0.756   2.561  10.500  0.00  0.00    +0.044 C 
ENDROOT
BRANCH   1  24
ATOM     18  C   UNL     1       2.538  -0.663   1.232  0.00  0.00    +0.047 C 
ATOM     19  C   UNL     1       1.230  -1.044   0.589  0.00  0.00    -0.010 A 
ATOM     20  C   UNL     1       1.210  -1.639  -0.660  0.00  0.00    +0.008 A 
ATOM     21  C   UNL     1      -0.018  -1.974  -1.215  0.00  0.00    +0.020 A 
ATOM     22  C   UNL     1      -1.175  -1.705  -0.509  0.00  0.00    +0.113 A 
ATOM     23  N   UNL     1      -1.125  -1.137   0.680  0.00  0.00    -0.240 NA
ATOM     24  C   UNL     1       0.027  -0.808   1.245  0.00  0.00    +0.132 A 
ENDBRANCH   1  24
BRANCH   2  25
ATOM     25  C   UNL     1      -0.879  -1.926   3.991  0.00  0.00    -0.022 A 
ATOM     26  C   UNL     1      -2.177  -1.623   3.623  0.00  0.00    +0.009 A 
ATOM     27  C   UNL     1      -3.183  -2.551   3.808  0.00  0.00    +0.046 A 
ATOM     28  C   UNL     1      -2.891  -3.788   4.363  0.00  0.00    +0.121 A 
ATOM     29  C   UNL     1      -1.588  -4.090   4.731  0.00  0.00    +0.046 A 
ATOM     30  C   UNL     1      -0.584  -3.161   4.539  0.00  0.00    +0.009 A 
BRANCH  28  31
ATOM     31  O   UNL     1      -3.879  -4.702   4.546  0.00  0.00    -0.483 OA
BRANCH  31  32
ATOM     32  C   UNL     1      -3.505  -5.955   5.123  0.00  0.00    +0.324 C 
BRANCH  32  33
ATOM     33  C   UNL     1      -4.723  -6.834   5.249  0.00  0.00    +0.248 C 
ATOM     34  O   UNL     1      -5.805  -6.427   4.881  0.00  0.00    -0.272 OA
ATOM     35  N   UNL     1      -4.610  -8.072   5.770  0.00  0.00    -0.327 N 
ATOM     36  H   UNL     1      -3.745  -8.397   6.064  0.00  0.00    +0.145 HD
ATOM     37  H   UNL     1      -5.394  -8.637   5.851  0.00  0.00    +0.145 HD
ENDBRANCH  32  33
ENDBRANCH  31  32
ENDBRANCH  28  31
ENDBRANCH   2  25
TORSDOF 5
