REMARK  Name = ZINC40323072
REMARK  7 active torsions:
REMARK  status: ('A' for Active; 'I' for Inactive)
REMARK    1  A    between atoms: C_3  and  C_6
REMARK    2  A    between atoms: C_6  and  C_8
REMARK    3  A    between atoms: C_6  and  N_27
REMARK    4  A    between atoms: C_8  and  N_9
REMARK    5  A    between atoms: C_10  and  C_12
REMARK    6  A    between atoms: C_15  and  S_17
REMARK    7  A    between atoms: S_17  and  C_20
REMARK                            x       y       z     vdW  Elec       q    Type
REMARK                         _______ _______ _______ _____ _____    ______ ____
ROOT
ATOM      1  N   UNL     1       5.785   2.168  -1.371  0.00  0.00    -0.310 N 
ATOM      2  C   UNL     1       6.521   2.208  -2.499  0.00  0.00    +0.279 C 
ATOM      3  O   UNL     1       6.042   1.827  -3.552  0.00  0.00    -0.267 OA
ATOM      4  H   UNL     1       6.166   2.472  -0.532  0.00  0.00    +0.149 HD
ENDROOT
BRANCH   2   5
ATOM      5  C   UNL     1       7.898   2.709  -2.459  0.00  0.00    +0.192 A 
ATOM      6  C   UNL     1       8.748   2.808  -3.524  0.00  0.00    +0.056 A 
ATOM      7  C   UNL     1       9.952   3.336  -3.032  0.00  0.00    +0.070 A 
ATOM      8  C   UNL     1       9.787   3.534  -1.706  0.00  0.00    +0.246 A 
ATOM      9  O   UNL     1       8.546   3.160  -1.365  0.00  0.00    -0.433 OA
BRANCH   8  10
ATOM     10  S   UNL     1      11.001   4.182  -0.606  0.00  0.00    +0.058 S 
ATOM     11  O   UNL     1      10.662   3.717   0.694  0.00  0.00    -0.161 OA
ATOM     12  O   UNL     1      12.266   3.925  -1.200  0.00  0.00    -0.161 OA
BRANCH  10  13
ATOM     13  C   UNL     1      10.802   5.932  -0.582  0.00  0.00    +0.097 A 
ATOM     14  C   UNL     1      11.490   6.718  -1.488  0.00  0.00    +0.028 A 
ATOM     15  C   UNL     1      11.334   8.092  -1.470  0.00  0.00    +0.017 A 
ATOM     16  C   UNL     1      10.488   8.679  -0.546  0.00  0.00    +0.018 A 
ATOM     17  C   UNL     1       9.799   7.892   0.359  0.00  0.00    +0.017 A 
ATOM     18  C   UNL     1       9.952   6.519   0.337  0.00  0.00    +0.028 A 
ATOM     19 BR   UNL     1      10.274  10.558  -0.521  0.00  0.00    -0.050 Br
ENDBRANCH  10  13
ENDBRANCH   8  10
ENDBRANCH   2   5
BRANCH   1  20
ATOM     20  C   UNL     1       4.409   1.667  -1.411  0.00  0.00    +0.094 C 
BRANCH  20  21
ATOM     21  C   UNL     1       3.759   1.852  -0.038  0.00  0.00    -0.013 C 
BRANCH  21  22
ATOM     22  N   UNL     1       2.426   1.234  -0.041  0.00  0.00    +0.386 N 
ATOM     23  C   UNL     1       2.539  -0.229  -0.271  0.00  0.00    -0.078 C 
ATOM     24  C   UNL     1       1.210  -0.782   0.302  0.00  0.00    -0.020 C 
ATOM     25  C   UNL     1       0.973   0.107   1.544  0.00  0.00    -0.020 C 
ATOM     26  C   UNL     1       1.791   1.386   1.286  0.00  0.00    -0.078 C 
ATOM     27  H   UNL     1       1.848   1.655  -0.753  0.00  0.00    -0.081 HD
ENDBRANCH  21  22
BRANCH  21  30
ATOM     28  C   UNL     1       4.106   5.446   1.173  0.00  0.00    +0.008 A 
ATOM     29  C   UNL     1       4.418   4.106   1.040  0.00  0.00    +0.009 A 
ATOM     30  C   UNL     1       3.630   3.323   0.263  0.00  0.00    -0.022 A 
ATOM     31  S   UNL     1       2.403   4.485  -0.310  0.00  0.00    -0.103 S 
ATOM     32  C   UNL     1       3.022   5.937   0.524  0.00  0.00    +0.045 A 
ENDBRANCH  21  30
ENDBRANCH  20  21
ENDBRANCH   1  20
TORSDOF 7
