REMARK  Name = ZINC13065269
REMARK  12 active torsions:
REMARK  status: ('A' for Active; 'I' for Inactive)
REMARK    1  A    between atoms: C_1  and  C_2
REMARK    2  A    between atoms: C_2  and  C_3
REMARK    3  A    between atoms: C_3  and  C_5
REMARK    4  A    between atoms: C_3  and  N_70
REMARK    5  A    between atoms: N_9  and  C_10
REMARK    6  A    between atoms: C_10  and  C_11
REMARK    7  A    between atoms: C_18  and  C_19
REMARK    8  A    between atoms: C_18  and  N_70
REMARK    9  A    between atoms: C_22  and  C_32
REMARK   10  A    between atoms: C_25  and  C_31
REMARK   11  A    between atoms: C_33  and  C_34
REMARK   12  A    between atoms: C_33  and  N_70
REMARK                            x       y       z     vdW  Elec       q    Type
REMARK                         _______ _______ _______ _____ _____    ______ ____
ROOT
ATOM      1  N   UNL     1      -4.032   6.326   1.185  0.00  0.00    +0.391 N 
ATOM      2  H   UNL     1      -3.278   6.744   1.743  0.00  0.00    -0.080 HD
ENDROOT
BRANCH   1   3
ATOM      3  C   UNL     1      -5.205   7.225   1.215  0.00  0.00    +0.003 C 
BRANCH   3   4
ATOM      4  C   UNL     1      -6.281   6.720   0.287  0.00  0.00    +0.138 A 
ATOM      5  N   UNL     1      -6.111   6.244  -0.922  0.00  0.00    -0.115 NA
ATOM      6  N   UNL     1      -7.268   5.919  -1.387  0.00  0.00    -0.023 NA
ATOM      7  N   UNL     1      -8.171   6.176  -0.506  0.00  0.00    -0.044 NA
ATOM      8  N   UNL     1      -7.601   6.666   0.542  0.00  0.00    -0.226 N 
BRANCH   8   9
ATOM      9  C   UNL     1      -8.267   7.087   1.777  0.00  0.00    +0.182 C 
BRANCH   9  10
ATOM     10  C   UNL     1      -8.652   8.540   1.670  0.00  0.00    -0.026 A 
ATOM     11  C   UNL     1      -7.772   9.521   2.089  0.00  0.00    +0.008 A 
ATOM     12  C   UNL     1      -8.122  10.854   1.987  0.00  0.00    +0.038 A 
ATOM     13  C   UNL     1      -9.359  11.207   1.474  0.00  0.00    +0.123 A 
ATOM     14  C   UNL     1     -10.241  10.224   1.059  0.00  0.00    +0.038 A 
ATOM     15  C   UNL     1      -9.887   8.892   1.157  0.00  0.00    +0.008 A 
ATOM     16  F   UNL     1      -9.704  12.509   1.377  0.00  0.00    -0.205 F 
ENDBRANCH   9  10
ENDBRANCH   8   9
ENDBRANCH   3   4
BRANCH   3  18
ATOM     17  C   UNL     1      -3.761   9.183   1.782  0.00  0.00    +0.002 C 
ATOM     18  C   UNL     1      -4.768   8.624   0.775  0.00  0.00    -0.011 C 
ENDBRANCH   3  18
ENDBRANCH   1   3
BRANCH   1  19
ATOM     19  C   UNL     1      -3.562   6.155  -0.206  0.00  0.00    -0.036 C 
BRANCH  19  20
ATOM     20  C   UNL     1      -2.180   5.554  -0.179  0.00  0.00    +0.001 A 
ATOM     21  C   UNL     1      -2.024   4.214  -0.311  0.00  0.00    +0.017 A 
ATOM     22  C   UNL     1      -0.668   3.662  -0.280  0.00  0.00    +0.002 A 
ATOM     23  C   UNL     1      -0.443   2.288  -0.416  0.00  0.00    -0.041 A 
ATOM     24  C   UNL     1       0.834   1.804  -0.378  0.00  0.00    +0.004 A 
ATOM     25  C   UNL     1       1.911   2.664  -0.216  0.00  0.00    +0.005 A 
ATOM     26  C   UNL     1       1.713   4.022  -0.085  0.00  0.00    -0.026 A 
ATOM     27  C   UNL     1       0.422   4.537  -0.116  0.00  0.00    +0.052 A 
ATOM     28  N   UNL     1       0.195   5.891   0.014  0.00  0.00    -0.322 N 
ATOM     29  H   UNL     1       0.947   6.493   0.127  0.00  0.00    +0.169 HD
ATOM     30  C   UNL     1      -1.054   6.389  -0.016  0.00  0.00    +0.251 A 
ATOM     31  O   UNL     1      -1.217   7.591   0.101  0.00  0.00    -0.268 OA
ATOM     32  C   UNL     1       2.892   4.944   0.090  0.00  0.00    +0.046 C 
ATOM     33  C   UNL     1      -1.605   1.345  -0.599  0.00  0.00    +0.044 C 
ENDBRANCH  19  20
ENDBRANCH   1  19
BRANCH   1  34
ATOM     34  C   UNL     1      -4.387   5.013   1.764  0.00  0.00    -0.045 C 
BRANCH  34  35
ATOM     35  C   UNL     1      -4.459   5.152   3.286  0.00  0.00    +0.102 C 
ATOM     36  C   UNL     1      -4.663   3.768   3.943  0.00  0.00    +0.032 C 
ATOM     37  C   UNL     1      -5.612   4.052   5.129  0.00  0.00    +0.030 C 
ATOM     38  C   UNL     1      -5.868   5.573   5.048  0.00  0.00    +0.160 C 
ATOM     39  O   UNL     1      -5.623   5.916   3.667  0.00  0.00    -0.378 OA
ENDBRANCH  34  35
ENDBRANCH   1  34
TORSDOF 9
