REMARK  Name = ZINC54444484
REMARK  3 active torsions:
REMARK  status: ('A' for Active; 'I' for Inactive)
REMARK    1  A    between atoms: C_5  and  C_7
REMARK    2  A    between atoms: C_9  and  C_12
REMARK    3  A    between atoms: C_14  and  N_19
REMARK                            x       y       z     vdW  Elec       q    Type
REMARK                         _______ _______ _______ _____ _____    ______ ____
ROOT
ATOM      1  C   UNL     1       1.245  -2.166  -0.022  0.00  0.00    +0.205 A 
ATOM      2  N   UNL     1       0.167  -2.966  -0.021  0.00  0.00    -0.187 NA
ATOM      3  C   UNL     1       0.544  -4.224  -0.030  0.00  0.00    +0.262 A 
ATOM      4  O   UNL     1       1.888  -4.261  -0.037  0.00  0.00    -0.332 OA
ATOM      5  N   UNL     1       2.325  -2.910  -0.037  0.00  0.00    -0.056 NA
ENDROOT
BRANCH   1  10
ATOM      6  C   UNL     1      -0.017   1.376   0.010  0.00  0.00    +0.001 A 
ATOM      7  C   UNL     1       1.170   2.087   0.002  0.00  0.00    +0.003 A 
ATOM      8  C   UNL     1       2.381   1.422  -0.013  0.00  0.00    +0.039 A 
ATOM      9  C   UNL     1       2.413   0.039  -0.021  0.00  0.00    +0.134 A 
ATOM     10  C   UNL     1       1.219  -0.682  -0.013  0.00  0.00    +0.058 A 
ATOM     11  C   UNL     1       0.002  -0.004   0.002  0.00  0.00    +0.014 A 
ATOM     12  F   UNL     1       3.598  -0.611  -0.036  0.00  0.00    -0.205 F 
ENDBRANCH   1  10
BRANCH   3  13
ATOM     13  C   UNL     1      -0.355  -5.396  -0.033  0.00  0.00    +0.076 A 
ATOM     14  C   UNL     1       0.177  -6.687  -0.037  0.00  0.00    +0.038 A 
ATOM     15  C   UNL     1      -0.671  -7.782  -0.038  0.00  0.00    +0.025 A 
ATOM     16  C   UNL     1      -2.049  -7.595  -0.035  0.00  0.00    +0.025 A 
ATOM     17  C   UNL     1      -2.579  -6.319  -0.031  0.00  0.00    +0.041 A 
ATOM     18  C   UNL     1      -1.741  -5.218  -0.024  0.00  0.00    +0.136 A 
ATOM     19  F   UNL     1      -2.262  -3.972  -0.015  0.00  0.00    -0.205 F 
BRANCH  15  20
ATOM     20  N   UNL     1      -0.142  -9.076  -0.043  0.00  0.00    -0.358 N 
ATOM     21  H   UNL     1       0.819  -9.207  -0.045  0.00  0.00    +0.142 HD
ATOM     22  H   UNL     1      -0.736  -9.843  -0.044  0.00  0.00    +0.142 HD
ENDBRANCH  15  20
ENDBRANCH   3  13
TORSDOF 3
