REMARK  Name = ZINC32911104
REMARK  13 active torsions:
REMARK  status: ('A' for Active; 'I' for Inactive)
REMARK    1  A    between atoms: C_1  and  C_2
REMARK    2  A    between atoms: C_2  and  N_3
REMARK    3  A    between atoms: N_3  and  C_4
REMARK    4  A    between atoms: C_5  and  N_20
REMARK    5  A    between atoms: N_6  and  C_13
REMARK    6  A    between atoms: C_13  and  C_14
REMARK    7  A    between atoms: C_21  and  C_23
REMARK    8  A    between atoms: C_23  and  S_24
REMARK    9  A    between atoms: S_24  and  C_25
REMARK   10  A    between atoms: N_33  and  C_34
REMARK   11  A    between atoms: C_34  and  C_35
REMARK   12  A    between atoms: C_35  and  C_36
REMARK   13  A    between atoms: C_35  and  C_37
REMARK                            x       y       z     vdW  Elec       q    Type
REMARK                         _______ _______ _______ _____ _____    ______ ____
ROOT
ATOM      1  N   UNL     1      -0.332   1.241   2.418  0.00  0.00    -0.264 N 
ATOM      2  C   UNL     1      -0.963   1.437   1.242  0.00  0.00    +0.230 C 
ATOM      3  O   UNL     1      -2.063   1.948   1.222  0.00  0.00    -0.274 OA
ENDROOT
BRANCH   1   4
ATOM      4  C   UNL     1      -0.907   1.718   3.615  0.00  0.00    +0.140 A 
ATOM      5  C   UNL     1      -1.094   3.070   3.814  0.00  0.00    +0.128 A 
ATOM      6  N   UNL     1      -1.660   3.505   4.990  0.00  0.00    -0.276 N 
ATOM      7  C   UNL     1      -2.019   2.621   5.939  0.00  0.00    +0.331 A 
ATOM      8  O   UNL     1      -2.514   3.026   6.974  0.00  0.00    -0.246 OA
ATOM      9  N   UNL     1      -1.840   1.300   5.765  0.00  0.00    -0.273 N 
ATOM     10  H   UNL     1      -2.140   0.596   6.555  0.00  0.00    +0.173 HD
ATOM     11  C   UNL     1      -1.293   0.822   4.630  0.00  0.00    +0.277 A 
ATOM     12  O   UNL     1      -1.135  -0.378   4.482  0.00  0.00    -0.266 OA
BRANCH   5  13
ATOM     13  N   UNL     1      -0.722   3.973   2.846  0.00  0.00    -0.343 N 
ATOM     14  H   UNL     1      -0.875   5.050   3.011  0.00  0.00    +0.144 HD
ATOM     15  H   UNL     1      -0.273   3.619   1.907  0.00  0.00    +0.144 HD
ENDBRANCH   5  13
BRANCH   6  16
ATOM     16  C   UNL     1      -1.869   4.937   5.212  0.00  0.00    +0.163 C 
BRANCH  16  17
ATOM     17  C   UNL     1      -0.647   5.527   5.868  0.00  0.00    -0.028 A 
ATOM     18  C   UNL     1      -0.555   5.568   7.247  0.00  0.00    +0.005 A 
ATOM     19  C   UNL     1       0.568   6.105   7.848  0.00  0.00    +0.000 A 
ATOM     20  C   UNL     1       1.593   6.610   7.071  0.00  0.00    +0.000 A 
ATOM     21  C   UNL     1       1.499   6.574   5.693  0.00  0.00    +0.000 A 
ATOM     22  C   UNL     1       0.378   6.033   5.091  0.00  0.00    +0.005 A 
ENDBRANCH  16  17
ENDBRANCH   6  16
ENDBRANCH   1   4
BRANCH   1  24
ATOM     23  C   UNL     1       2.094   1.544   2.342  0.00  0.00    +0.025 C 
ATOM     24  C   UNL     1       0.950   0.533   2.452  0.00  0.00    +0.110 C 
ENDBRANCH   1  24
BRANCH   2  25
ATOM     25  C   UNL     1      -0.302   1.020  -0.047  0.00  0.00    +0.173 C 
BRANCH  25  26
ATOM     26  S   UNL     1      -1.392   1.412  -1.438  0.00  0.00    -0.078 S 
BRANCH  26  27
ATOM     27  C   UNL     1      -0.399   0.837  -2.776  0.00  0.00    +0.170 A 
ATOM     28  N   UNL     1       0.787   0.293  -2.654  0.00  0.00    -0.222 NA
ATOM     29  C   UNL     1       1.267  -0.034  -3.882  0.00  0.00    +0.090 A 
ATOM     30  C   UNL     1       2.455  -0.624  -4.322  0.00  0.00    +0.030 A 
ATOM     31  C   UNL     1       2.658  -0.832  -5.668  0.00  0.00    +0.002 A 
ATOM     32  C   UNL     1       1.692  -0.458  -6.591  0.00  0.00    +0.002 A 
ATOM     33  C   UNL     1       0.514   0.127  -6.173  0.00  0.00    +0.028 A 
ATOM     34  C   UNL     1       0.293   0.343  -4.821  0.00  0.00    +0.069 A 
ATOM     35  N   UNL     1      -0.754   0.886  -4.094  0.00  0.00    -0.318 N 
BRANCH  35  36
ATOM     36  C   UNL     1      -2.006   1.417  -4.638  0.00  0.00    +0.127 C 
BRANCH  36  37
ATOM     37  C   UNL     1      -1.838   2.907  -4.942  0.00  0.00    +0.003 C 
ATOM     38  C   UNL     1      -0.804   3.088  -6.055  0.00  0.00    +0.009 C 
ATOM     39  C   UNL     1      -3.180   3.490  -5.392  0.00  0.00    +0.009 C 
ENDBRANCH  36  37
ENDBRANCH  35  36
ENDBRANCH  26  27
ENDBRANCH  25  26
ENDBRANCH   2  25
TORSDOF 10
