REMARK  Name = ZINC33449033
REMARK  6 active torsions:
REMARK  status: ('A' for Active; 'I' for Inactive)
REMARK    1  A    between atoms: C_1  and  C_2
REMARK    2  A    between atoms: C_2  and  C_3
REMARK    3  A    between atoms: C_2  and  N_4
REMARK    4  A    between atoms: C_5  and  C_7
REMARK    5  A    between atoms: C_13  and  C_15
REMARK    6  A    between atoms: C_20  and  N_23
REMARK                            x       y       z     vdW  Elec       q    Type
REMARK                         _______ _______ _______ _____ _____    ______ ____
ROOT
ATOM      1  C   UNL     1       0.214   4.271  -6.741  0.00  0.00    +0.087 C 
ATOM      2  C   UNL     1       1.250   5.190  -6.090  0.00  0.00    +0.013 C 
ATOM      3  C   UNL     1       2.477   4.370  -5.688  0.00  0.00    +0.001 C 
ATOM      4  C   UNL     1       2.061   3.284  -4.693  0.00  0.00    +0.001 C 
ATOM      5  C   UNL     1       1.026   2.365  -5.344  0.00  0.00    +0.013 C 
ATOM      6  C   UNL     1      -0.202   3.186  -5.747  0.00  0.00    +0.087 C 
ENDROOT
BRANCH   6   7
ATOM      7  C   UNL     1      -0.800   3.828  -4.522  0.00  0.00    +0.219 C 
ATOM      8  O   UNL     1      -0.726   5.029  -4.370  0.00  0.00    -0.275 OA
ATOM      9  N   UNL     1      -1.417   3.069  -3.596  0.00  0.00    -0.301 N 
ATOM     10  C   UNL     1      -1.901   3.663  -2.342  0.00  0.00    +0.106 C 
ATOM     11  C   UNL     1      -1.324   2.869  -1.165  0.00  0.00    +0.003 C 
ATOM     12  C   UNL     1      -1.671   1.389  -1.335  0.00  0.00    -0.072 C 
ATOM     13  C   UNL     1      -1.045   0.860  -2.627  0.00  0.00    +0.003 C 
ATOM     14  C   UNL     1      -1.619   1.631  -3.820  0.00  0.00    +0.106 C 
BRANCH  12  15
ATOM     15  N   UNL     1      -1.148   0.629  -0.191  0.00  0.00    +0.380 N 
ATOM     16  H   UNL     1      -1.397  -0.435  -0.312  0.00  0.00    -0.090 HD
ATOM     17  H   UNL     1      -1.599   1.008   0.738  0.00  0.00    -0.090 HD
ATOM     18  H   UNL     1      -0.055   0.747  -0.142  0.00  0.00    -0.090 HD
ENDBRANCH  12  15
ENDBRANCH   6   7
BRANCH   1  20
ATOM     19  N   UNL     1      -0.868   6.098  -8.011  0.00  0.00    -0.313 N 
ATOM     20  C   UNL     1      -0.995   5.079  -7.138  0.00  0.00    +0.217 C 
ATOM     21  O   UNL     1      -2.082   4.812  -6.671  0.00  0.00    -0.275 OA
ATOM     22  H   UNL     1       0.118   6.340  -8.434  0.00  0.00    +0.149 HD
BRANCH  19  24
ATOM     23  C   UNL     1      -2.278   7.989  -7.366  0.00  0.00    +0.027 C 
ATOM     24  C   UNL     1      -2.044   6.883  -8.396  0.00  0.00    +0.067 C 
ATOM     25  C   UNL     1      -1.810   7.509  -9.772  0.00  0.00    +0.027 C 
ENDBRANCH  19  24
ENDBRANCH   1  20
TORSDOF 4
