REMARK  Name = ZINC08861130
REMARK  7 active torsions:
REMARK  status: ('A' for Active; 'I' for Inactive)
REMARK    1  A    between atoms: C_6  and  S_11
REMARK    2  A    between atoms: S_11  and  N_14
REMARK    3  A    between atoms: N_14  and  N_15
REMARK    4  A    between atoms: C_16  and  C_17
REMARK    5  A    between atoms: C_21  and  O_23
REMARK    6  A    between atoms: O_23  and  C_24
REMARK    7  A    between atoms: C_24  and  C_25
REMARK                            x       y       z     vdW  Elec       q    Type
REMARK                         _______ _______ _______ _____ _____    ______ ____
ROOT
ATOM      1  C   UNL     1      -7.318   2.924   0.088  0.00  0.00    -0.002 A 
ATOM      2  C   UNL     1      -7.541   4.303   0.097  0.00  0.00    +0.010 A 
ATOM      3  C   UNL     1      -6.470   5.174   0.091  0.00  0.00    +0.004 A 
ATOM      4  C   UNL     1      -5.176   4.686   0.082  0.00  0.00    +0.046 A 
ATOM      5  C   UNL     1      -4.945   3.317   0.067  0.00  0.00    +0.122 A 
ATOM      6  C   UNL     1      -6.011   2.433   0.073  0.00  0.00    +0.055 A 
ENDROOT
BRANCH   1   8
ATOM      7  N   UNL     1      -9.673   2.448   0.108  0.00  0.00    -0.174 NA
ATOM      8  C   UNL     1      -8.460   1.990   0.094  0.00  0.00    +0.139 C 
BRANCH   7   9
ATOM      9  N   UNL     1     -10.757   1.561   0.113  0.00  0.00    -0.137 N 
ATOM     10  H   UNL     1     -10.601   0.604   0.107  0.00  0.00    +0.197 HD
BRANCH   9  11
ATOM     11  S   UNL     1     -12.306   2.147   0.131  0.00  0.00    +0.086 S 
ATOM     12  O   UNL     1     -13.166   1.024  -0.012  0.00  0.00    -0.149 OA
ATOM     13  O   UNL     1     -12.392   3.036   1.236  0.00  0.00    -0.149 OA
BRANCH  11  19
ATOM     14  C   UNL     1     -13.427   4.897  -5.885  0.00  0.00    +0.001 A 
ATOM     15  C   UNL     1     -13.724   3.536  -5.928  0.00  0.00    +0.001 A 
ATOM     16  C   UNL     1     -13.578   2.752  -4.826  0.00  0.00    +0.008 A 
ATOM     17  C   UNL     1     -13.119   3.319  -3.625  0.00  0.00    -0.016 A 
ATOM     18  C   UNL     1     -12.955   2.541  -2.466  0.00  0.00    +0.037 A 
ATOM     19  C   UNL     1     -12.510   3.125  -1.320  0.00  0.00    +0.111 A 
ATOM     20  C   UNL     1     -12.217   4.487  -1.276  0.00  0.00    +0.029 A 
ATOM     21  C   UNL     1     -12.358   5.271  -2.380  0.00  0.00    +0.010 A 
ATOM     22  C   UNL     1     -12.817   4.703  -3.581  0.00  0.00    -0.018 A 
ATOM     23  C   UNL     1     -12.981   5.481  -4.740  0.00  0.00    +0.008 A 
ENDBRANCH  11  19
ENDBRANCH   9  11
ENDBRANCH   7   9
ENDBRANCH   1   8
BRANCH   5  24
ATOM     24  O   UNL     1      -3.671   2.843   0.053  0.00  0.00    -0.487 OA
BRANCH  24  25
ATOM     25  C   UNL     1      -2.620   3.811   0.048  0.00  0.00    +0.265 C 
BRANCH  25  26
ATOM     26  C   UNL     1      -1.288   3.106   0.032  0.00  0.00    -0.003 A 
ATOM     27  C   UNL     1      -1.234   1.746   0.017  0.00  0.00    +0.007 A 
ATOM     28  C   UNL     1      -0.013   1.076   0.008  0.00  0.00    +0.001 A 
ATOM     29  C   UNL     1       1.163   1.762   0.000  0.00  0.00    +0.008 A 
ATOM     30  C   UNL     1       1.147   3.167   0.008  0.00  0.00    -0.018 A 
ATOM     31  C   UNL     1      -0.095   3.848   0.024  0.00  0.00    -0.011 A 
ATOM     32  C   UNL     1      -0.111   5.254   0.031  0.00  0.00    +0.009 A 
ATOM     33  C   UNL     1       1.064   5.940   0.023  0.00  0.00    +0.001 A 
ATOM     34  C   UNL     1       2.287   5.270   0.008  0.00  0.00    +0.001 A 
ATOM     35  C   UNL     1       2.340   3.910   0.000  0.00  0.00    +0.008 A 
ENDBRANCH  25  26
ENDBRANCH  24  25
ENDBRANCH   5  24
TORSDOF 7
