REMARK  Name = ZINC32071590
REMARK  9 active torsions:
REMARK  status: ('A' for Active; 'I' for Inactive)
REMARK    1  A    between atoms: C_1  and  C_2
REMARK    2  A    between atoms: C_2  and  C_3
REMARK    3  A    between atoms: C_2  and  C_4
REMARK    4  A    between atoms: C_4  and  C_6
REMARK    5  A    between atoms: C_4  and  N_18
REMARK    6  A    between atoms: N_8  and  C_9
REMARK    7  A    between atoms: C_12  and  C_15
REMARK    8  A    between atoms: C_15  and  C_17
REMARK    9  A    between atoms: N_21  and  C_22
REMARK                            x       y       z     vdW  Elec       q    Type
REMARK                         _______ _______ _______ _____ _____    ______ ____
ROOT
ATOM      1  C   UNL     1      -0.848   2.059   1.213  0.00  0.00    +0.163 C 
ENDROOT
BRANCH   1   2
ATOM      2  N   UNL     1      -0.388   2.471   2.541  0.00  0.00    -0.288 N 
ATOM      3  C   UNL     1       0.575   3.406   2.661  0.00  0.00    +0.300 C 
ATOM      4  O   UNL     1       1.061   3.909   1.667  0.00  0.00    -0.253 OA
ATOM      5  N   UNL     1       0.998   3.785   3.883  0.00  0.00    -0.295 N 
ATOM      6  H   UNL     1      -0.828   2.016   3.441  0.00  0.00    +0.151 HD
ATOM      7  H   UNL     1       0.558   3.331   4.783  0.00  0.00    +0.151 HD
BRANCH   5   8
ATOM      8  C   UNL     1       2.044   4.802   4.014  0.00  0.00    +0.097 C 
ATOM      9  C   UNL     1       1.405   6.200   3.974  0.00  0.00    +0.046 C 
ATOM     10  C   UNL     1       2.475   7.236   4.423  0.00  0.00    +0.168 C 
ATOM     11  S   UNL     1       3.268   6.319   5.811  0.00  0.00    -0.029 S 
ATOM     12  O   UNL     1       2.621   6.671   7.026  0.00  0.00    -0.174 OA
ATOM     13  O   UNL     1       4.679   6.450   5.706  0.00  0.00    -0.174 OA
ATOM     14  C   UNL     1       2.791   4.603   5.354  0.00  0.00    +0.188 C 
ENDBRANCH   5   8
ENDBRANCH   1   2
BRANCH   1  15
ATOM     15  C   UNL     1      -2.253   1.524   1.311  0.00  0.00    +0.238 C 
ATOM     16  O   UNL     1      -2.676   1.122   2.374  0.00  0.00    -0.273 OA
ATOM     17  N   UNL     1      -3.040   1.493   0.217  0.00  0.00    -0.284 N 
ATOM     18  H   UNL     1      -2.687   1.930  -0.728  0.00  0.00    +0.155 HD
BRANCH  17  19
ATOM     19  C   UNL     1      -4.302   0.905   0.284  0.00  0.00    +0.033 A 
ATOM     20  C   UNL     1      -4.800   0.205  -0.811  0.00  0.00    +0.024 A 
ATOM     21  C   UNL     1      -6.039  -0.379  -0.748  0.00  0.00    +0.013 A 
ATOM     22  C   UNL     1      -6.808  -0.260   0.416  0.00  0.00    +0.017 A 
ATOM     23  C   UNL     1      -6.306   0.451   1.513  0.00  0.00    +0.013 A 
ATOM     24  C   UNL     1      -5.063   1.026   1.443  0.00  0.00    +0.024 A 
BRANCH  22  25
ATOM     25  C   UNL     1      -8.138  -0.879   0.486  0.00  0.00    +0.160 C 
ATOM     26  O   UNL     1      -8.803  -0.775   1.495  0.00  0.00    -0.292 OA
ATOM     27  C   UNL     1      -8.677  -1.643  -0.696  0.00  0.00    +0.091 C 
ENDBRANCH  22  25
ENDBRANCH  17  19
ENDBRANCH   1  15
BRANCH   1  29
ATOM     28  C   UNL     1       0.161  -0.179   1.678  0.00  0.00    +0.009 C 
ATOM     29  C   UNL     1       0.076   0.968   0.669  0.00  0.00    +0.012 C 
ATOM     30  C   UNL     1       1.473   1.549   0.439  0.00  0.00    +0.009 C 
ENDBRANCH   1  29
TORSDOF 6
