REMARK  Name = ZINC50818456
REMARK  4 active torsions:
REMARK  status: ('A' for Active; 'I' for Inactive)
REMARK    1  A    between atoms: N_4  and  C_8
REMARK    2  A    between atoms: C_8  and  C_9
REMARK    3  A    between atoms: C_11  and  N_16
REMARK    4  A    between atoms: C_14  and  N_15
REMARK                            x       y       z     vdW  Elec       q    Type
REMARK                         _______ _______ _______ _____ _____    ______ ____
ROOT
ATOM      1  C   UNL     1       4.206  -1.005   1.333  0.00  0.00    -0.005 A 
ATOM      2  C   UNL     1       5.141  -0.175   1.922  0.00  0.00    +0.040 A 
ATOM      3  C   UNL     1       5.640  -0.474   3.176  0.00  0.00    +0.127 A 
ATOM      4  C   UNL     1       5.205  -1.604   3.846  0.00  0.00    +0.034 A 
ATOM      5  C   UNL     1       4.271  -2.437   3.263  0.00  0.00    +0.025 A 
ATOM      6  C   UNL     1       3.763  -2.137   2.005  0.00  0.00    +0.030 A 
ENDROOT
BRANCH   6   7
ATOM      7  N   UNL     1       2.814  -2.974   1.415  0.00  0.00    -0.358 N 
ATOM      8  H   UNL     1       2.518  -2.808   0.506  0.00  0.00    +0.142 HD
ATOM      9  H   UNL     1       2.450  -3.722   1.914  0.00  0.00    +0.142 HD
ENDBRANCH   6   7
BRANCH   3  10
ATOM     10  N   UNL     1       6.641   0.416   3.804  0.00  0.00    +0.056 N 
ATOM     11  O   UNL     1       7.023   1.403   3.220  0.00  0.00    -0.126 OA
ATOM     12  O   UNL     1       7.079   0.156   4.901  0.00  0.00    -0.126 OA
ENDBRANCH   3  10
BRANCH   1  13
ATOM     13  C   UNL     1       3.663  -0.678  -0.034  0.00  0.00    +0.161 C 
BRANCH  13  17
ATOM     14  C   UNL     1       5.715   2.650  -1.601  0.00  0.00    +0.007 A 
ATOM     15  C   UNL     1       6.222   1.352  -1.755  0.00  0.00    +0.018 A 
ATOM     16  C   UNL     1       5.545   0.297  -1.243  0.00  0.00    +0.089 A 
ATOM     17  N   UNL     1       4.376   0.480  -0.579  0.00  0.00    -0.311 N 
ATOM     18  C   UNL     1       3.863   1.715  -0.415  0.00  0.00    +0.252 A 
ATOM     19  O   UNL     1       2.810   1.863   0.185  0.00  0.00    -0.268 OA
ATOM     20  C   UNL     1       4.540   2.832  -0.933  0.00  0.00    +0.070 A 
ENDBRANCH  13  17
ENDBRANCH   1  13
TORSDOF 4
