REMARK  Name = ZINC35427332
REMARK  5 active torsions:
REMARK  status: ('A' for Active; 'I' for Inactive)
REMARK    1  A    between atoms: C_1  and  N_2
REMARK    2  A    between atoms: C_16  and  C_30
REMARK    3  A    between atoms: N_22  and  C_23
REMARK    4  A    between atoms: C_34  and  O_36
REMARK    5  A    between atoms: O_36  and  C_37
REMARK                            x       y       z     vdW  Elec       q    Type
REMARK                         _______ _______ _______ _____ _____    ______ ____
ROOT
ATOM      1  C   UNL     1       1.104   1.289  -1.572  0.00  0.00    -0.096 C 
ATOM      2  N   UNL     1       0.895  -0.140  -1.304  0.00  0.00    +0.381 N 
ATOM      3  C   UNL     1      -0.526  -0.468  -1.478  0.00  0.00    -0.074 C 
ATOM      4  C   UNL     1      -0.721  -1.986  -1.519  0.00  0.00    +0.018 C 
ATOM      5  C   UNL     1      -0.049  -2.581  -0.283  0.00  0.00    -0.034 A 
ATOM      6  C   UNL     1      -0.325  -3.878   0.190  0.00  0.00    +0.004 A 
ATOM      7  C   UNL     1       0.355  -4.281   1.298  0.00  0.00    +0.090 A 
ATOM      8  S   UNL     1       1.363  -2.896   1.730  0.00  0.00    -0.077 S 
ATOM      9  C   UNL     1       0.858  -1.834   0.403  0.00  0.00    -0.021 A 
ATOM     10  C   UNL     1       1.303  -0.446   0.080  0.00  0.00    -0.036 C 
ATOM     11  N   UNL     1       0.226  -5.538   1.876  0.00  0.00    -0.312 N 
ATOM     12  C   UNL     1       0.082  -5.920   3.166  0.00  0.00    +0.092 A 
ATOM     13  C   UNL     1      -0.071  -7.264   3.190  0.00  0.00    +0.020 A 
ATOM     14  C   UNL     1       0.002  -7.724   1.857  0.00  0.00    +0.025 A 
ATOM     15  C   UNL     1       0.209  -6.656   1.073  0.00  0.00    +0.049 A 
ATOM     16  C   UNL     1       0.439  -6.590  -0.407  0.00  0.00    +0.155 C 
ATOM     17  N   UNL     1      -0.702  -5.961  -1.115  0.00  0.00    -0.268 N 
ATOM     18  C   UNL     1      -1.332  -4.800  -0.461  0.00  0.00    +0.148 C 
ATOM     19  C   UNL     1      -1.143  -6.429  -2.300  0.00  0.00    +0.308 C 
ATOM     20  O   UNL     1      -0.601  -7.389  -2.813  0.00  0.00    -0.252 OA
ATOM     21  N   UNL     1      -2.183  -5.833  -2.915  0.00  0.00    -0.267 N 
ATOM     22  H   UNL     1      -2.572  -5.028  -2.540  0.00  0.00    +0.156 HD
ATOM     23  H   UNL     1       1.448  -0.687  -1.947  0.00  0.00    -0.082 HD
ENDROOT
BRANCH  21  24
ATOM     24  C   UNL     1      -2.702  -6.376  -4.097  0.00  0.00    +0.070 A 
ATOM     25  C   UNL     1      -1.885  -7.117  -4.940  0.00  0.00    +0.026 A 
ATOM     26  C   UNL     1      -2.400  -7.652  -6.105  0.00  0.00    +0.002 A 
ATOM     27  C   UNL     1      -3.728  -7.450  -6.434  0.00  0.00    +0.003 A 
ATOM     28  C   UNL     1      -4.546  -6.713  -5.597  0.00  0.00    +0.040 A 
ATOM     29  C   UNL     1      -4.039  -6.179  -4.426  0.00  0.00    +0.145 A 
ATOM     30  F   UNL     1      -4.839  -5.464  -3.606  0.00  0.00    -0.204 F 
ENDBRANCH  21  24
BRANCH  16  31
ATOM     31  C   UNL     1       1.684  -5.785  -0.675  0.00  0.00    -0.018 A 
ATOM     32  C   UNL     1       2.746  -5.840   0.210  0.00  0.00    +0.006 A 
ATOM     33  C   UNL     1       3.890  -5.102  -0.033  0.00  0.00    +0.004 A 
ATOM     34  C   UNL     1       3.975  -4.308  -1.160  0.00  0.00    +0.045 A 
ATOM     35  C   UNL     1       2.911  -4.251  -2.049  0.00  0.00    +0.120 A 
ATOM     36  C   UNL     1       1.767  -4.997  -1.806  0.00  0.00    +0.051 A 
BRANCH  35  37
ATOM     37  O   UNL     1       2.992  -3.471  -3.159  0.00  0.00    -0.495 OA
ATOM     38  C   UNL     1       4.203  -2.735  -3.347  0.00  0.00    +0.277 C 
ENDBRANCH  35  37
ENDBRANCH  16  31
TORSDOF 3
