REMARK  Name = ZINC01204507
REMARK  11 active torsions:
REMARK  status: ('A' for Active; 'I' for Inactive)
REMARK    1  A    between atoms: C_1  and  C_2
REMARK    2  A    between atoms: C_3  and  C_32
REMARK    3  A    between atoms: C_4  and  C_23
REMARK    4  A    between atoms: C_10  and  C_15
REMARK    5  A    between atoms: C_18  and  O_21
REMARK    6  A    between atoms: O_21  and  C_22
REMARK    7  A    between atoms: C_26  and  O_31
REMARK    8  A    between atoms: C_27  and  O_29
REMARK    9  A    between atoms: O_29  and  C_30
REMARK   10  A    between atoms: C_32  and  O_34
REMARK   11  A    between atoms: O_34  and  C_35
REMARK                            x       y       z     vdW  Elec       q    Type
REMARK                         _______ _______ _______ _____ _____    ______ ____
ROOT
ATOM      1  C   UNL     1       7.477   1.651   2.533  0.00  0.00    +0.061 C 
ATOM      2  C   UNL     1       6.503   2.610   1.897  0.00  0.00    +0.016 C 
ATOM      3  C   UNL     1       6.081   2.396   0.639  0.00  0.00    +0.065 C 
ATOM      4  C   UNL     1       5.106   3.325  -0.024  0.00  0.00    +0.092 C 
ATOM      5  C   UNL     1       5.044   4.648   0.697  0.00  0.00    +0.024 C 
ATOM      6  C   UNL     1       5.508   4.768   1.959  0.00  0.00    +0.016 C 
ATOM      7  N   UNL     1       6.055   3.691   2.604  0.00  0.00    -0.321 N 
ATOM      8  C   UNL     1       5.431   6.083   2.693  0.00  0.00    +0.059 C 
ATOM      9  C   UNL     1       5.540   7.237   1.694  0.00  0.00    +0.032 C 
ATOM     10  C   UNL     1       4.407   7.102   0.671  0.00  0.00    +0.088 C 
ATOM     11  C   UNL     1       4.493   5.750   0.019  0.00  0.00    +0.162 C 
ATOM     12  O   UNL     1       4.079   5.606  -1.114  0.00  0.00    -0.292 OA
ATOM     13  H   UNL     1       6.132   3.701   3.701  0.00  0.00    +0.152 HD
ENDROOT
BRANCH   9  14
ATOM     14  C   UNL     1       5.413   8.551   2.420  0.00  0.00    -0.043 A 
ATOM     15  C   UNL     1       4.261   8.839   3.129  0.00  0.00    +0.007 A 
ATOM     16  C   UNL     1       4.145  10.040   3.801  0.00  0.00    +0.046 A 
ATOM     17  C   UNL     1       5.180  10.963   3.755  0.00  0.00    +0.120 A 
ATOM     18  C   UNL     1       6.332  10.674   3.038  0.00  0.00    +0.046 A 
ATOM     19  C   UNL     1       6.446   9.468   2.373  0.00  0.00    +0.007 A 
BRANCH  17  20
ATOM     20  O   UNL     1       5.066  12.148   4.410  0.00  0.00    -0.495 OA
ATOM     21  C   UNL     1       3.852  12.378   5.128  0.00  0.00    +0.277 C 
ENDBRANCH  17  20
ENDBRANCH   9  14
BRANCH   4  22
ATOM     22  C   UNL     1       3.738   2.693  -0.018  0.00  0.00    -0.032 A 
ATOM     23  C   UNL     1       3.120   2.397   1.183  0.00  0.00    +0.008 A 
ATOM     24  C   UNL     1       1.863   1.823   1.193  0.00  0.00    +0.049 A 
ATOM     25  C   UNL     1       1.224   1.533  -0.001  0.00  0.00    +0.158 A 
ATOM     26  C   UNL     1       1.845   1.831  -1.210  0.00  0.00    +0.162 A 
ATOM     27  C   UNL     1       3.103   2.412  -1.214  0.00  0.00    +0.054 A 
BRANCH  26  28
ATOM     28  O   UNL     1       1.220   1.554  -2.385  0.00  0.00    -0.491 OA
ATOM     29  C   UNL     1       1.917   1.888  -3.587  0.00  0.00    +0.277 C 
ENDBRANCH  26  28
BRANCH  25  30
ATOM     30  O   UNL     1      -0.011   0.963   0.007  0.00  0.00    -0.503 OA
ATOM     31  H   UNL     1      -0.517   0.733  -0.942  0.00  0.00    +0.292 HD
ENDBRANCH  25  30
ENDBRANCH   4  22
BRANCH   3  32
ATOM     32  C   UNL     1       6.564   1.274  -0.074  0.00  0.00    +0.337 C 
ATOM     33  O   UNL     1       7.354   0.513   0.452  0.00  0.00    -0.245 OA
BRANCH  32  34
ATOM     34  O   UNL     1       6.149   1.047  -1.338  0.00  0.00    -0.465 OA
ATOM     35  C   UNL     1       6.678  -0.105  -1.998  0.00  0.00    +0.280 C 
ENDBRANCH  32  34
ENDBRANCH   3  32
TORSDOF 7
