REMARK  Name = ZINC33863331
REMARK  3 active torsions:
REMARK  status: ('A' for Active; 'I' for Inactive)
REMARK    1  A    between atoms: C_10  and  C_12
REMARK    2  A    between atoms: C_15  and  C_17
REMARK    3  A    between atoms: C_22  and  N_23
REMARK                            x       y       z     vdW  Elec       q    Type
REMARK                         _______ _______ _______ _____ _____    ______ ____
ROOT
ATOM      1  C   UNL     1       5.168   0.983  -0.117  0.00  0.00    +0.164 A 
ATOM      2  C   UNL     1       6.393   1.509  -0.397  0.00  0.00    +0.230 A 
ATOM      3  O   UNL     1       6.239   2.840  -0.497  0.00  0.00    -0.443 OA
ATOM      4  C   UNL     1       4.943   3.130  -0.284  0.00  0.00    +0.230 A 
ATOM      5  N   UNL     1       4.289   2.018  -0.060  0.00  0.00    -0.204 NA
ENDROOT
BRANCH   1  15
ATOM      6  C   UNL     1       1.909  -4.638   0.573  0.00  0.00    +0.000 A 
ATOM      7  C   UNL     1       3.279  -4.564   0.402  0.00  0.00    +0.002 A 
ATOM      8  C   UNL     1       3.899  -3.338   0.288  0.00  0.00    +0.024 A 
ATOM      9  C   UNL     1       3.149  -2.162   0.344  0.00  0.00    +0.040 A 
ATOM     10  C   UNL     1       1.776  -2.247   0.515  0.00  0.00    -0.024 A 
ATOM     11  C   UNL     1       1.159  -3.478   0.629  0.00  0.00    +0.005 A 
ATOM     12  C   UNL     1       1.207  -0.847   0.540  0.00  0.00    +0.056 C 
ATOM     13  C   UNL     1       2.428   0.071   0.362  0.00  0.00    +0.119 C 
ATOM     14  N   UNL     1       3.575  -0.834   0.249  0.00  0.00    -0.266 N 
ATOM     15  C   UNL     1       4.853  -0.443   0.080  0.00  0.00    +0.272 C 
ATOM     16  O   UNL     1       5.747  -1.268   0.090  0.00  0.00    -0.268 OA
ENDBRANCH   1  15
BRANCH   4  17
ATOM     17  C   UNL     1       4.353   4.483  -0.305  0.00  0.00    +0.057 A 
ATOM     18  C   UNL     1       3.172   4.723  -1.009  0.00  0.00    +0.015 A 
ATOM     19  C   UNL     1       2.625   5.989  -1.025  0.00  0.00    +0.001 A 
ATOM     20  C   UNL     1       3.242   7.025  -0.344  0.00  0.00    +0.002 A 
ATOM     21  C   UNL     1       4.411   6.802   0.357  0.00  0.00    +0.023 A 
ATOM     22  C   UNL     1       4.972   5.533   0.388  0.00  0.00    +0.037 A 
BRANCH  22  23
ATOM     23  N   UNL     1       6.148   5.305   1.099  0.00  0.00    -0.357 N 
ATOM     24  H   UNL     1       6.496   4.404   1.184  0.00  0.00    +0.142 HD
ATOM     25  H   UNL     1       6.618   6.048   1.508  0.00  0.00    +0.142 HD
ENDBRANCH  22  23
ENDBRANCH   4  17
TORSDOF 3
