REMARK  Name = ZINC39860112
REMARK  5 active torsions:
REMARK  status: ('A' for Active; 'I' for Inactive)
REMARK    1  A    between atoms: C_1  and  C_2
REMARK    2  A    between atoms: C_5  and  C_23
REMARK    3  A    between atoms: C_6  and  N_8
REMARK    4  A    between atoms: C_12  and  C_13
REMARK    5  A    between atoms: C_16  and  O_19
REMARK                            x       y       z     vdW  Elec       q    Type
REMARK                         _______ _______ _______ _____ _____    ______ ____
ROOT
ATOM      1  N   UNL     1       0.179  -3.766   1.954  0.00  0.00    -0.196 N 
ATOM      2  C   UNL     1       1.299  -3.756   2.657  0.00  0.00    +0.265 C 
ATOM      3  O   UNL     1       2.355  -3.394   2.172  0.00  0.00    -0.269 OA
ATOM      4  C   UNL     1       1.204  -4.204   4.060  0.00  0.00    +0.080 C 
ATOM      5  C   UNL     1       2.172  -4.298   5.006  0.00  0.00    +0.028 C 
ATOM      6  S   UNL     1      -0.539  -4.589   4.170  0.00  0.00    -0.025 S 
ATOM      7  C   UNL     1      -0.990  -4.162   2.497  0.00  0.00    +0.290 C 
ATOM      8  O   UNL     1      -2.086  -4.217   1.972  0.00  0.00    -0.262 OA
ENDROOT
BRANCH   1  14
ATOM      9  C   UNL     1      -0.203  -0.160  -1.369  0.00  0.00    +0.044 C 
ATOM     10  C   UNL     1       0.025  -1.609  -1.023  0.00  0.00    -0.049 A 
ATOM     11  C   UNL     1       0.261  -2.531  -2.027  0.00  0.00    +0.004 A 
ATOM     12  C   UNL     1       0.469  -3.861  -1.713  0.00  0.00    +0.005 A 
ATOM     13  C   UNL     1       0.443  -4.273  -0.395  0.00  0.00    -0.029 A 
ATOM     14  C   UNL     1       0.207  -3.351   0.615  0.00  0.00    +0.048 A 
ATOM     15  C   UNL     1       0.003  -2.014   0.297  0.00  0.00    +0.027 A 
ATOM     16  C   UNL     1       0.670  -5.723  -0.054  0.00  0.00    +0.045 C 
ENDBRANCH   1  14
BRANCH   5  17
ATOM     17  C   UNL     1       1.878  -4.932   6.298  0.00  0.00    -0.024 A 
ATOM     18  C   UNL     1       0.738  -5.732   6.444  0.00  0.00    +0.011 A 
ATOM     19  C   UNL     1       0.467  -6.324   7.657  0.00  0.00    +0.046 A 
ATOM     20  C   UNL     1       1.323  -6.128   8.735  0.00  0.00    +0.117 A 
ATOM     21  C   UNL     1       2.455  -5.335   8.595  0.00  0.00    +0.046 A 
ATOM     22  C   UNL     1       2.739  -4.743   7.385  0.00  0.00    +0.011 A 
BRANCH  20  23
ATOM     23  O   UNL     1       1.050  -6.714   9.930  0.00  0.00    -0.507 OA
ATOM     24  H   UNL     1       1.439  -7.594  10.034  0.00  0.00    +0.292 HD
ENDBRANCH  20  23
ENDBRANCH   5  17
TORSDOF 3
