REMARK  Name = ZINC43128239
REMARK  3 active torsions:
REMARK  status: ('A' for Active; 'I' for Inactive)
REMARK    1  A    between atoms: C_1  and  C_2
REMARK    2  A    between atoms: C_2  and  C_4
REMARK    3  A    between atoms: C_2  and  N_10
REMARK                            x       y       z     vdW  Elec       q    Type
REMARK                         _______ _______ _______ _____ _____    ______ ____
ROOT
ATOM      1  N   UNL     1      -1.372  -0.511   0.012  0.00  0.00    -0.294 N 
ATOM      2  C   UNL     1      -2.051  -0.643  -1.145  0.00  0.00    +0.306 C 
ATOM      3  O   UNL     1      -1.522  -0.341  -2.197  0.00  0.00    -0.252 OA
ATOM      4  N   UNL     1      -3.315  -1.109  -1.135  0.00  0.00    -0.247 N 
ATOM      5  C   UNL     1      -4.015  -1.245  -2.329  0.00  0.00    +0.189 A 
ATOM      6  N   UNL     1      -3.621  -0.980  -3.559  0.00  0.00    -0.126 NA
ATOM      7  N   UNL     1      -4.378  -1.157  -4.555  0.00  0.00    -0.148 NA
ATOM      8  C   UNL     1      -5.597  -1.619  -4.361  0.00  0.00    +0.183 A 
ATOM      9  S   UNL     1      -5.588  -1.798  -2.583  0.00  0.00    -0.039 S 
ATOM     10  H   UNL     1      -1.794  -0.752   0.852  0.00  0.00    +0.151 HD
ATOM     11  H   UNL     1      -3.737  -1.350  -0.295  0.00  0.00    +0.158 HD
ENDROOT
BRANCH   1  13
ATOM     12  C   UNL     1      -0.019   1.526   0.010  0.00  0.00    +0.030 C 
ATOM     13  C   UNL     1       0.002  -0.004   0.002  0.00  0.00    +0.100 C 
BRANCH  13  14
ATOM     14  C   UNL     1       0.742  -0.511   1.242  0.00  0.00    +0.138 C 
ATOM     15  C   UNL     1       2.224  -0.061   1.204  0.00  0.00    +0.035 C 
ATOM     16  C   UNL     1       2.576  -0.081   2.717  0.00  0.00    +0.031 C 
ATOM     17  C   UNL     1       1.245   0.351   3.369  0.00  0.00    +0.160 C 
ATOM     18  O   UNL     1       0.196   0.087   2.428  0.00  0.00    -0.375 OA
ENDBRANCH  13  14
ENDBRANCH   1  13
TORSDOF 2
