REMARK  Name = ZINC52884320
REMARK  6 active torsions:
REMARK  status: ('A' for Active; 'I' for Inactive)
REMARK    1  A    between atoms: C_1  and  C_2
REMARK    2  A    between atoms: C_2  and  C_3
REMARK    3  A    between atoms: C_2  and  C_4
REMARK    4  A    between atoms: N_7  and  C_9
REMARK    5  A    between atoms: C_12  and  C_16
REMARK    6  A    between atoms: N_17  and  O_18
REMARK                            x       y       z     vdW  Elec       q    Type
REMARK                         _______ _______ _______ _____ _____    ______ ____
ROOT
ATOM      1  C   UNL     1       1.017  -1.721   4.542  0.00  0.00    +0.100 A 
ATOM      2  C   UNL     1       2.121  -2.079   5.306  0.00  0.00    +0.031 A 
ATOM      3  C   UNL     1       1.950  -2.530   6.598  0.00  0.00    +0.013 A 
ATOM      4  C   UNL     1       0.668  -2.625   7.140  0.00  0.00    +0.021 A 
ATOM      5  C   UNL     1      -0.440  -2.265   6.372  0.00  0.00    +0.052 A 
ATOM      6  C   UNL     1      -0.264  -1.810   5.081  0.00  0.00    +0.149 A 
ATOM      7  F   UNL     1      -1.335  -1.455   4.337  0.00  0.00    -0.203 F 
ENDROOT
BRANCH   1  11
ATOM      8  C   UNL     1       0.731  -0.503   1.223  0.00  0.00    +0.066 A 
ATOM      9  C   UNL     1       2.116  -0.660   1.344  0.00  0.00    +0.045 A 
ATOM     10  C   UNL     1       2.375  -1.128   2.587  0.00  0.00    +0.115 A 
ATOM     11  N   UNL     1       1.194  -1.263   3.231  0.00  0.00    -0.237 N 
ATOM     12  N   UNL     1       0.178  -0.859   2.354  0.00  0.00    -0.171 NA
BRANCH   8  14
ATOM     13  C   UNL     1      -0.019   1.526   0.010  0.00  0.00    +0.014 C 
ATOM     14  C   UNL     1       0.002  -0.004   0.002  0.00  0.00    +0.033 C 
ATOM     15  C   UNL     1       0.718  -0.497  -1.257  0.00  0.00    +0.014 C 
ENDBRANCH   8  14
ENDBRANCH   1  11
BRANCH   4  16
ATOM     16  C   UNL     1       0.483  -3.109   8.526  0.00  0.00    +0.162 C 
ATOM     17  N   UNL     1       1.517  -3.445   9.241  0.00  0.00    -0.072 NA
ATOM     18  N   UNL     1      -0.790  -3.203   9.062  0.00  0.00    -0.340 N 
ATOM     19  H   UNL     1      -1.561  -2.953   8.529  0.00  0.00    +0.144 HD
ATOM     20  H   UNL     1      -0.911  -3.520   9.971  0.00  0.00    +0.144 HD
BRANCH  17  21
ATOM     21  O   UNL     1       1.340  -3.908  10.567  0.00  0.00    -0.408 OA
ATOM     22  H   UNL     1       2.165  -4.133  11.018  0.00  0.00    +0.328 HD
ENDBRANCH  17  21
ENDBRANCH   4  16
TORSDOF 4
