REMARK  Name = ZINC22283627
REMARK  5 active torsions:
REMARK  status: ('A' for Active; 'I' for Inactive)
REMARK    1  A    between atoms: C_4  and  C_7
REMARK    2  A    between atoms: C_7  and  N_8
REMARK    3  A    between atoms: N_16  and  C_17
REMARK    4  A    between atoms: C_17  and  C_19
REMARK    5  A    between atoms: N_25  and  C_26
REMARK                            x       y       z     vdW  Elec       q    Type
REMARK                         _______ _______ _______ _____ _____    ______ ____
ROOT
ATOM      1  N   UNL     1       2.647   5.894  -1.062  0.00  0.00    +0.386 N 
ATOM      2  C   UNL     1       3.897   6.641  -1.260  0.00  0.00    -0.072 C 
ATOM      3  C   UNL     1       4.510   6.301  -2.622  0.00  0.00    +0.035 C 
ATOM      4  C   UNL     1       3.437   6.493  -3.688  0.00  0.00    +0.024 A 
ATOM      5  C   UNL     1       2.129   6.542  -3.316  0.00  0.00    -0.004 A 
ATOM      6  S   UNL     1       1.296   6.773  -4.861  0.00  0.00    -0.059 S 
ATOM      7  C   UNL     1       2.713   6.787  -5.868  0.00  0.00    +0.164 A 
ATOM      8  N   UNL     1       3.680   6.621  -4.987  0.00  0.00    -0.339 N 
ATOM      9  N   UNL     1       2.804   6.935  -7.246  0.00  0.00    -0.151 NA
ATOM     10  C   UNL     1       1.581   6.423  -1.936  0.00  0.00    -0.033 C 
ATOM     11  H   UNL     1       4.715   6.590  -5.359  0.00  0.00    +0.167 HD
ATOM     12  H   UNL     1       2.831   4.844  -1.334  0.00  0.00    -0.081 HD
ENDROOT
BRANCH   9  13
ATOM     13  C   UNL     1       4.009   6.918  -7.848  0.00  0.00    +0.288 C 
ATOM     14  O   UNL     1       5.024   6.866  -7.177  0.00  0.00    -0.266 OA
BRANCH  13  15
ATOM     15  C   UNL     1       4.099   6.963  -9.310  0.00  0.00    +0.129 A 
ATOM     16  C   UNL     1       5.232   7.069 -10.041  0.00  0.00    +0.116 A 
ATOM     17  N   UNL     1       4.879   7.073 -11.364  0.00  0.00    -0.339 N 
ATOM     18  H   UNL     1       5.655   7.145 -12.140  0.00  0.00    +0.167 HD
ATOM     19  C   UNL     1       3.539   6.980 -11.455  0.00  0.00    +0.163 A 
ATOM     20  S   UNL     1       2.635   6.953 -12.908  0.00  0.00    -0.013 S 
ATOM     21  N   UNL     1       3.029   6.911 -10.209  0.00  0.00    -0.284 N 
BRANCH  21  22
ATOM     22  C   UNL     1       1.673   6.806  -9.876  0.00  0.00    +0.049 A 
ATOM     23  C   UNL     1       1.176   5.621  -9.349  0.00  0.00    +0.026 A 
ATOM     24  C   UNL     1      -0.161   5.522  -9.016  0.00  0.00    +0.002 A 
ATOM     25  C   UNL     1      -1.006   6.598  -9.218  0.00  0.00    +0.000 A 
ATOM     26  C   UNL     1      -0.515   7.777  -9.747  0.00  0.00    +0.002 A 
ATOM     27  C   UNL     1       0.822   7.884 -10.077  0.00  0.00    +0.026 A 
ENDBRANCH  21  22
ENDBRANCH  13  15
ENDBRANCH   9  13
BRANCH   1  28
ATOM     28  C   UNL     1       2.235   5.923   0.348  0.00  0.00    -0.043 C 
BRANCH  28  32
ATOM     29  C   UNL     1      -1.719   4.344   0.702  0.00  0.00    +0.000 A 
ATOM     30  C   UNL     1      -0.627   3.503   0.803  0.00  0.00    +0.000 A 
ATOM     31  C   UNL     1       0.652   4.013   0.687  0.00  0.00    +0.002 A 
ATOM     32  C   UNL     1       0.840   5.366   0.474  0.00  0.00    -0.064 A 
ATOM     33  C   UNL     1      -0.252   6.209   0.379  0.00  0.00    +0.002 A 
ATOM     34  C   UNL     1      -1.531   5.698   0.495  0.00  0.00    +0.000 A 
ENDBRANCH  28  32
ENDBRANCH   1  28
TORSDOF 5
