REMARK  Name = ZINC39698609
REMARK  12 active torsions:
REMARK  status: ('A' for Active; 'I' for Inactive)
REMARK    1  A    between atoms: C_1  and  C_2
REMARK    2  A    between atoms: C_7  and  N_12
REMARK    3  A    between atoms: C_9  and  C_11
REMARK    4  A    between atoms: C_13  and  C_15
REMARK    5  A    between atoms: C_15  and  C_17
REMARK    6  A    between atoms: C_15  and  S_18
REMARK    7  A    between atoms: S_18  and  C_19
REMARK    8  A    between atoms: C_23  and  C_35
REMARK    9  A    between atoms: N_29  and  C_30
REMARK   10  A    between atoms: C_30  and  C_31
REMARK   11  A    between atoms: C_31  and  C_33
REMARK   12  A    between atoms: C_31  and  O_34
REMARK                            x       y       z     vdW  Elec       q    Type
REMARK                         _______ _______ _______ _____ _____    ______ ____
ROOT
ATOM      1  C   UNL     1       1.385  -0.526   8.885  0.00  0.00    +0.173 A 
ATOM      2  N   UNL     1       2.395  -1.307   8.591  0.00  0.00    -0.223 NA
ATOM      3  C   UNL     1       3.108  -1.936   9.555  0.00  0.00    +0.080 A 
ATOM      4  C   UNL     1       4.186  -2.769   9.238  0.00  0.00    +0.043 A 
ATOM      5  C   UNL     1       4.889  -3.393  10.261  0.00  0.00    +0.065 A 
ATOM      6  C   UNL     1       4.525  -3.193  11.600  0.00  0.00    +0.016 A 
ATOM      7  C   UNL     1       3.474  -2.382  11.920  0.00  0.00    +0.016 A 
ATOM      8  C   UNL     1       2.755  -1.745  10.909  0.00  0.00    +0.065 A 
ATOM      9  C   UNL     1       1.616  -0.862  11.210  0.00  0.00    +0.262 A 
ATOM     10  O   UNL     1       1.262  -0.657  12.357  0.00  0.00    -0.267 OA
ATOM     11  N   UNL     1       0.980  -0.282  10.166  0.00  0.00    -0.285 N 
ENDROOT
BRANCH   5  12
ATOM     12  C   UNL     1       6.030  -4.275   9.936  0.00  0.00    +0.387 C 
ATOM     13  O   UNL     1       6.352  -4.453   8.770  0.00  0.00    -0.241 OA
ATOM     14  O   UNL     1       6.652  -4.827  10.832  0.00  0.00    -0.241 OA
ENDBRANCH   5  12
BRANCH   1  15
ATOM     15  S   UNL     1       0.513   0.252   7.566  0.00  0.00    -0.075 S 
BRANCH  15  16
ATOM     16  C   UNL     1       1.363  -0.333   6.074  0.00  0.00    +0.137 C 
ATOM     17  C   UNL     1       2.798   0.197   6.063  0.00  0.00    +0.029 C 
BRANCH  16  19
ATOM     18  N   UNL     1       0.735  -0.503   3.687  0.00  0.00    -0.311 N 
ATOM     19  C   UNL     1       0.634   0.166   4.853  0.00  0.00    +0.226 C 
ATOM     20  O   UNL     1      -0.044   1.170   4.919  0.00  0.00    -0.275 OA
ATOM     21  H   UNL     1       1.276  -1.306   3.634  0.00  0.00    +0.149 HD
BRANCH  18  27
ATOM     22  C   UNL     1      -0.019   1.526   0.010  0.00  0.00    +0.008 C 
ATOM     23  C   UNL     1       0.002  -0.004   0.002  0.00  0.00    -0.009 C 
ATOM     24  C   UNL     1      -1.433  -0.534   0.013  0.00  0.00    +0.003 C 
ATOM     25  C   UNL     1      -2.149  -0.040   1.272  0.00  0.00    +0.002 C 
ATOM     26  C   UNL     1      -1.409  -0.547   2.511  0.00  0.00    +0.022 C 
ATOM     27  C   UNL     1       0.026  -0.018   2.500  0.00  0.00    +0.076 C 
ATOM     28  C   UNL     1       0.742  -0.511   1.242  0.00  0.00    +0.009 C 
ATOM     29  C   UNL     1       2.178   0.019   1.231  0.00  0.00    +0.009 C 
ENDBRANCH  18  27
ENDBRANCH  16  19
ENDBRANCH  15  16
ENDBRANCH   1  15
BRANCH  11  30
ATOM     30  C   UNL     1      -0.156   0.610  10.412  0.00  0.00    +0.158 C 
BRANCH  30  31
ATOM     31  C   UNL     1      -1.450  -0.205  10.427  0.00  0.00    +0.131 C 
ATOM     32  C   UNL     1      -2.637   0.727  10.684  0.00  0.00    +0.039 C 
BRANCH  31  33
ATOM     33  O   UNL     1      -1.619  -0.855   9.166  0.00  0.00    -0.390 OA
ATOM     34  H   UNL     1      -1.673  -0.248   8.415  0.00  0.00    +0.210 HD
ENDBRANCH  31  33
ENDBRANCH  30  31
ENDBRANCH  11  30
TORSDOF 8
