REMARK  Name = ZINC36357998
REMARK  2 active torsions:
REMARK  status: ('A' for Active; 'I' for Inactive)
REMARK    1  A    between atoms: C_5  and  N_7
REMARK    2  A    between atoms: C_16  and  C_18
REMARK                            x       y       z     vdW  Elec       q    Type
REMARK                         _______ _______ _______ _____ _____    ______ ____
ROOT
ATOM      1  N   UNL     1       1.236  -2.083  -0.022  0.00  0.00    -0.286 N 
ATOM      2  C   UNL     1       0.780  -2.899  -1.020  0.00  0.00    +0.205 A 
ATOM      3  N   UNL     1       0.971  -4.144  -0.664  0.00  0.00    -0.238 NA
ATOM      4  C   UNL     1       1.538  -4.177   0.539  0.00  0.00    +0.089 A 
ATOM      5  C   UNL     1       1.720  -2.892   0.957  0.00  0.00    +0.133 A 
ATOM      6  N   UNL     1       2.308  -2.589   2.186  0.00  0.00    -0.270 N 
ATOM      7  C   UNL     1       2.451  -3.588   3.084  0.00  0.00    +0.219 C 
ATOM      8  O   UNL     1       3.062  -3.374   4.109  0.00  0.00    -0.275 OA
ATOM      9  C   UNL     1       1.875  -4.956   2.853  0.00  0.00    +0.110 C 
ATOM     10  C   UNL     1       1.952  -5.357   1.381  0.00  0.00    +0.080 C 
ATOM     11  H   UNL     1       2.606  -1.688   2.389  0.00  0.00    +0.156 HD
ENDROOT
BRANCH   1  16
ATOM     12  C   UNL     1      -0.017   1.377   0.010  0.00  0.00    +0.002 A 
ATOM     13  C   UNL     1       1.171   2.086   0.002  0.00  0.00    +0.001 A 
ATOM     14  C   UNL     1       2.380   1.416  -0.013  0.00  0.00    +0.017 A 
ATOM     15  C   UNL     1       2.405   0.034  -0.022  0.00  0.00    +0.042 A 
ATOM     16  C   UNL     1       1.214  -0.680  -0.014  0.00  0.00    +0.063 A 
ATOM     17  C   UNL     1       0.002  -0.004   0.002  0.00  0.00    +0.027 A 
ATOM     18 BR   UNL     1       4.059  -0.882  -0.044  0.00  0.00    -0.048 Br
ENDBRANCH   1  16
BRANCH  10  19
ATOM     19  C   UNL     1       3.369  -5.746   1.048  0.00  0.00    -0.031 A 
ATOM     20  C   UNL     1       3.654  -7.007   0.559  0.00  0.00    +0.012 A 
ATOM     21  C   UNL     1       4.940  -7.325   0.270  0.00  0.00    +0.045 A 
ATOM     22  S   UNL     1       5.797  -5.817   0.692  0.00  0.00    -0.105 S 
ATOM     23  C   UNL     1       4.383  -4.863   1.219  0.00  0.00    +0.049 A 
ENDBRANCH  10  19
TORSDOF 2
