REMARK  Name = ZINC19520742
REMARK  5 active torsions:
REMARK  status: ('A' for Active; 'I' for Inactive)
REMARK    1  A    between atoms: C_1  and  C_2
REMARK    2  A    between atoms: C_2  and  C_3
REMARK    3  A    between atoms: C_6  and  C_28
REMARK    4  A    between atoms: C_11  and  C_13
REMARK    5  A    between atoms: C_19  and  C_21
REMARK                            x       y       z     vdW  Elec       q    Type
REMARK                         _______ _______ _______ _____ _____    ______ ____
ROOT
ATOM      1  C   UNL     1       0.002  -0.004   0.002  0.00  0.00    +0.074 C 
ATOM      2  C   UNL     1       0.805  -0.501  -1.205  0.00  0.00    +0.058 C 
ATOM      3  C   UNL     1       0.882  -2.032  -1.185  0.00  0.00    +0.214 C 
ATOM      4  N   UNL     1      -0.467  -2.573  -0.997  0.00  0.00    -0.239 N 
ATOM      5  C   UNL     1      -1.506  -1.854  -0.497  0.00  0.00    +0.118 A 
ATOM      6  C   UNL     1      -2.591  -2.658  -0.465  0.00  0.00    +0.070 A 
ATOM      7  C   UNL     1      -2.205  -3.910  -0.960  0.00  0.00    +0.085 A 
ATOM      8  N   UNL     1      -0.934  -3.857  -1.276  0.00  0.00    -0.172 NA
ATOM      9  N   UNL     1      -1.377  -0.518  -0.109  0.00  0.00    -0.326 N 
ATOM     10  H   UNL     1      -2.229   0.142   0.110  0.00  0.00    +0.148 HD
ENDROOT
BRANCH   7  11
ATOM     11  C   UNL     1      -3.099  -5.115  -1.105  0.00  0.00    +0.127 C 
ATOM     12  C   UNL     1      -3.059  -5.626  -2.560  0.00  0.00    +0.030 C 
ATOM     13  C   UNL     1      -3.088  -7.168  -2.387  0.00  0.00    +0.021 C 
ATOM     14  C   UNL     1      -2.252  -7.352  -1.097  0.00  0.00    +0.109 C 
ATOM     15  N   UNL     1      -2.614  -6.204  -0.245  0.00  0.00    -0.288 N 
ATOM     16  C   UNL     1      -2.515  -6.161   1.098  0.00  0.00    +0.267 C 
ATOM     17  O   UNL     1      -2.843  -5.157   1.700  0.00  0.00    -0.268 OA
BRANCH  16  18
ATOM     18  C   UNL     1      -2.008  -7.333   1.840  0.00  0.00    +0.147 A 
ATOM     19  C   UNL     1      -1.848  -7.438   3.242  0.00  0.00    +0.054 A 
ATOM     20  C   UNL     1      -1.359  -8.682   3.458  0.00  0.00    +0.105 A 
ATOM     21  N   UNL     1      -1.237  -9.279   2.253  0.00  0.00    -0.284 N 
ATOM     22  H   UNL     1      -0.850 -10.306   2.186  0.00  0.00    +0.188 HD
ATOM     23  N   UNL     1      -1.624  -8.483   1.322  0.00  0.00    -0.169 NA
ENDBRANCH  16  18
ENDBRANCH   7  11
BRANCH   3  24
ATOM     24  C   UNL     1       1.455  -2.534  -2.512  0.00  0.00    +0.412 C 
ATOM     25  F   UNL     1       0.634  -2.113  -3.563  0.00  0.00    -0.168 F 
ATOM     26  F   UNL     1       2.742  -2.017  -2.689  0.00  0.00    -0.168 F 
ATOM     27  F   UNL     1       1.512  -3.932  -2.496  0.00  0.00    -0.168 F 
ENDBRANCH   3  24
BRANCH   1  29
ATOM     28  C   UNL     1      -0.735   2.019   1.269  0.00  0.00    +0.006 C 
ATOM     29  C   UNL     1      -0.019   1.526   0.010  0.00  0.00    +0.019 C 
ENDBRANCH   1  29
TORSDOF 4
