REMARK  Name = ZINC40150917
REMARK  6 active torsions:
REMARK  status: ('A' for Active; 'I' for Inactive)
REMARK    1  A    between atoms: C_7  and  C_11
REMARK    2  A    between atoms: C_11  and  C_12
REMARK    3  A    between atoms: C_12  and  C_13
REMARK    4  A    between atoms: N_15  and  C_16
REMARK    5  A    between atoms: N_22  and  S_25
REMARK    6  A    between atoms: S_25  and  N_28
REMARK                            x       y       z     vdW  Elec       q    Type
REMARK                         _______ _______ _______ _____ _____    ______ ____
ROOT
ATOM      1  C   UNL     1      -0.700  -4.770  -1.452  0.00  0.00    +0.218 C 
ATOM      2  O   UNL     1      -0.988  -5.312  -0.406  0.00  0.00    -0.275 OA
ATOM      3  N   UNL     1      -1.212  -5.228  -2.612  0.00  0.00    -0.285 N 
ATOM      4  H   UNL     1      -1.036  -4.754  -3.440  0.00  0.00    +0.155 HD
ENDROOT
BRANCH   3   5
ATOM      5  C   UNL     1      -1.997  -6.386  -2.621  0.00  0.00    +0.035 A 
ATOM      6  C   UNL     1      -2.845  -6.657  -1.555  0.00  0.00    +0.024 A 
ATOM      7  C   UNL     1      -3.619  -7.801  -1.569  0.00  0.00    +0.007 A 
ATOM      8  C   UNL     1      -3.552  -8.674  -2.638  0.00  0.00    -0.023 A 
ATOM      9  C   UNL     1      -2.710  -8.415  -3.709  0.00  0.00    +0.057 A 
ATOM     10  C   UNL     1      -1.933  -7.256  -3.696  0.00  0.00    +0.048 A 
ATOM     11  N   UNL     1      -2.790  -9.414  -4.681  0.00  0.00    -0.193 N 
ATOM     12  C   UNL     1      -3.749 -10.442  -4.268  0.00  0.00    +0.137 C 
ATOM     13  C   UNL     1      -4.278  -9.975  -2.902  0.00  0.00    +0.058 C 
BRANCH  11  14
ATOM     14  S   UNL     1      -1.927  -9.434  -6.094  0.00  0.00    +0.109 S 
ATOM     15  O   UNL     1      -2.661 -10.239  -7.006  0.00  0.00    -0.138 OA
ATOM     16  O   UNL     1      -1.580  -8.086  -6.377  0.00  0.00    -0.138 OA
BRANCH  14  17
ATOM     17  N   UNL     1      -0.510 -10.235  -5.791  0.00  0.00    -0.190 NA
ATOM     18  H   UNL     1      -0.330 -10.584  -4.904  0.00  0.00    +0.146 HD
ATOM     19  H   UNL     1       0.141 -10.354  -6.500  0.00  0.00    +0.146 HD
ENDBRANCH  14  17
ENDBRANCH  11  14
ENDBRANCH   3   5
BRANCH   1  20
ATOM     20  C   UNL     1       0.231  -3.585  -1.455  0.00  0.00    +0.101 C 
BRANCH  20  21
ATOM     21  C   UNL     1       0.664  -3.273  -0.021  0.00  0.00    +0.046 C 
BRANCH  21  28
ATOM     22  C   UNL     1      -0.044   1.360   0.027  0.00  0.00    +0.001 A 
ATOM     23  C   UNL     1       1.138   2.088   0.018  0.00  0.00    +0.002 A 
ATOM     24  C   UNL     1       2.357   1.448  -0.004  0.00  0.00    +0.026 A 
ATOM     25  C   UNL     1       2.407   0.058  -0.016  0.00  0.00    +0.047 A 
ATOM     26  C   UNL     1       1.207  -0.675  -0.007  0.00  0.00    +0.003 A 
ATOM     27  C   UNL     1      -0.018  -0.006   0.015  0.00  0.00    +0.010 A 
ATOM     28  C   UNL     1       1.595  -2.088  -0.024  0.00  0.00    -0.022 A 
ATOM     29  C   UNL     1       2.936  -2.126  -0.042  0.00  0.00    +0.087 A 
ATOM     30  N   UNL     1       3.439  -0.854  -0.038  0.00  0.00    -0.360 N 
ATOM     31  H   UNL     1       4.382  -0.627  -0.048  0.00  0.00    +0.165 HD
ENDBRANCH  21  28
ENDBRANCH  20  21
ENDBRANCH   1  20
TORSDOF 6
