REMARK  Name = ZINC39676602
REMARK  9 active torsions:
REMARK  status: ('A' for Active; 'I' for Inactive)
REMARK    1  A    between atoms: C_1  and  O_2
REMARK    2  A    between atoms: O_2  and  C_3
REMARK    3  A    between atoms: C_6  and  C_9
REMARK    4  A    between atoms: C_9  and  C_10
REMARK    5  A    between atoms: C_9  and  N_18
REMARK    6  A    between atoms: C_13  and  O_16
REMARK    7  A    between atoms: O_16  and  C_17
REMARK    8  A    between atoms: C_19  and  C_21
REMARK    9  A    between atoms: C_32  and  C_34
REMARK                            x       y       z     vdW  Elec       q    Type
REMARK                         _______ _______ _______ _____ _____    ______ ____
ROOT
ATOM      1  N   UNL     1       4.673  -2.914   4.034  0.00  0.00    -0.304 N 
ATOM      2  C   UNL     1       4.414  -4.150   4.504  0.00  0.00    +0.219 C 
ATOM      3  O   UNL     1       3.550  -4.312   5.339  0.00  0.00    -0.275 OA
ATOM      4  H   UNL     1       5.365  -2.784   3.367  0.00  0.00    +0.150 HD
ENDROOT
BRANCH   2   5
ATOM      5  C   UNL     1       5.199  -5.330   3.993  0.00  0.00    +0.100 C 
ATOM      6  C   UNL     1       4.347  -6.617   4.070  0.00  0.00    +0.121 C 
ATOM      7  N   UNL     1       5.305  -7.678   4.459  0.00  0.00    -0.300 N 
ATOM      8  C   UNL     1       6.194  -7.027   5.451  0.00  0.00    +0.115 C 
ATOM      9  C   UNL     1       6.410  -5.603   4.901  0.00  0.00    -0.004 C 
ATOM     10  C   UNL     1       6.449  -4.596   6.046  0.00  0.00    -0.010 C 
ATOM     11  C   UNL     1       7.693  -4.850   6.902  0.00  0.00    -0.082 C 
ATOM     12  N   UNL     1       8.895  -4.723   6.070  0.00  0.00    +0.379 N 
ATOM     13  C   UNL     1       8.895  -5.756   5.027  0.00  0.00    -0.082 C 
ATOM     14  C   UNL     1       7.702  -5.540   4.092  0.00  0.00    -0.010 C 
ATOM     15  C   UNL     1       5.358  -8.948   4.011  0.00  0.00    +0.219 C 
ATOM     16  O   UNL     1       6.210  -9.704   4.429  0.00  0.00    -0.275 OA
ATOM     17  H   UNL     1       8.909  -3.811   5.638  0.00  0.00    -0.086 HD
ATOM     18  H   UNL     1       9.715  -4.831   6.648  0.00  0.00    -0.086 HD
BRANCH  15  19
ATOM     19  C   UNL     1       4.359  -9.430   2.990  0.00  0.00    +0.079 C 
ATOM     20  C   UNL     1       2.943  -9.307   3.562  0.00  0.00    +0.041 C 
ATOM     21  C   UNL     1       1.942  -9.871   2.551  0.00  0.00    +0.160 C 
ATOM     22  O   UNL     1       2.276 -11.230   2.258  0.00  0.00    -0.380 OA
ATOM     23  C   UNL     1       3.571 -11.400   1.677  0.00  0.00    +0.160 C 
ATOM     24  C   UNL     1       4.637 -10.898   2.654  0.00  0.00    +0.041 C 
ENDBRANCH  15  19
ENDBRANCH   2   5
BRANCH   1  25
ATOM     25  C   UNL     1       3.911  -1.766   4.532  0.00  0.00    +0.134 C 
BRANCH  25  29
ATOM     26  C   UNL     1       6.228   1.794   4.064  0.00  0.00    +0.120 A 
ATOM     27  C   UNL     1       5.469   1.605   5.210  0.00  0.00    +0.046 A 
ATOM     28  C   UNL     1       4.720   0.453   5.359  0.00  0.00    +0.009 A 
ATOM     29  C   UNL     1       4.728  -0.510   4.367  0.00  0.00    -0.023 A 
ATOM     30  C   UNL     1       5.484  -0.324   3.224  0.00  0.00    +0.009 A 
ATOM     31  C   UNL     1       6.229   0.829   3.068  0.00  0.00    +0.046 A 
BRANCH  26  33
ATOM     32  C   UNL     1       6.915   3.877   4.982  0.00  0.00    +0.277 C 
ATOM     33  O   UNL     1       6.965   2.926   3.916  0.00  0.00    -0.495 OA
ENDBRANCH  26  33
ENDBRANCH  25  29
BRANCH  25  34
ATOM     34  C   UNL     1       2.629  -1.638   3.750  0.00  0.00    -0.023 A 
ATOM     35  C   UNL     1       2.627  -1.863   2.385  0.00  0.00    +0.009 A 
ATOM     36  C   UNL     1       1.454  -1.746   1.666  0.00  0.00    +0.046 A 
ATOM     37  C   UNL     1       0.276  -1.402   2.314  0.00  0.00    +0.120 A 
ATOM     38  C   UNL     1       0.280  -1.177   3.683  0.00  0.00    +0.046 A 
ATOM     39  C   UNL     1       1.456  -1.300   4.399  0.00  0.00    +0.009 A 
BRANCH  37  40
ATOM     40  O   UNL     1      -0.880  -1.286   1.609  0.00  0.00    -0.495 OA
ATOM     41  C   UNL     1      -2.054  -0.929   2.341  0.00  0.00    +0.277 C 
ENDBRANCH  37  40
ENDBRANCH  25  34
ENDBRANCH   1  25
TORSDOF 7
