REMARK  Name = ZINC24935827
REMARK  3 active torsions:
REMARK  status: ('A' for Active; 'I' for Inactive)
REMARK    1  A    between atoms: C_8  and  C_11
REMARK    2  A    between atoms: C_19  and  S_23
REMARK    3  A    between atoms: S_23  and  N_26
REMARK                            x       y       z     vdW  Elec       q    Type
REMARK                         _______ _______ _______ _____ _____    ______ ____
ROOT
ATOM      1  C   UNL     1       3.801  -3.223   0.240  0.00  0.00    +0.260 C 
ATOM      2  O   UNL     1       4.671  -2.940   1.035  0.00  0.00    -0.271 OA
ATOM      3  N   UNL     1       3.519  -4.515  -0.018  0.00  0.00    -0.262 N 
ATOM      4  C   UNL     1       4.223  -5.520   0.625  0.00  0.00    +0.166 A 
ATOM      5  N   UNL     1       5.185  -5.413   1.512  0.00  0.00    -0.225 NA
ATOM      6  C   UNL     1       5.788  -6.490   2.062  0.00  0.00    +0.080 A 
ATOM      7  C   UNL     1       6.828  -6.513   3.019  0.00  0.00    +0.031 A 
ATOM      8  C   UNL     1       7.332  -7.703   3.476  0.00  0.00    +0.030 A 
ATOM      9  C   UNL     1       6.845  -8.919   3.021  0.00  0.00    +0.107 A 
ATOM     10  C   UNL     1       5.827  -8.934   2.085  0.00  0.00    +0.045 A 
ATOM     11  C   UNL     1       5.316  -7.747   1.621  0.00  0.00    +0.043 A 
ATOM     12  S   UNL     1       4.047  -7.292   0.464  0.00  0.00    -0.052 S 
ATOM     13  H   UNL     1       2.822  -4.742  -0.654  0.00  0.00    +0.157 HD
ENDROOT
BRANCH   1  21
ATOM     14  C   UNL     1      -0.017   1.379   0.010  0.00  0.00    +0.000 A 
ATOM     15  C   UNL     1       1.174   2.082   0.002  0.00  0.00    +0.004 A 
ATOM     16  C   UNL     1       2.379   1.411  -0.009  0.00  0.00    +0.046 A 
ATOM     17  C   UNL     1       2.407   0.019  -0.014  0.00  0.00    +0.125 A 
ATOM     18  C   UNL     1       1.204  -0.676  -0.014  0.00  0.00    -0.002 A 
ATOM     19  C   UNL     1       0.002  -0.004   0.002  0.00  0.00    +0.007 A 
ATOM     20  C   UNL     1       1.545  -2.154  -0.045  0.00  0.00    +0.093 C 
ATOM     21  C   UNL     1       3.035  -2.130  -0.460  0.00  0.00    +0.263 C 
ATOM     22  O   UNL     1       3.469  -0.834  -0.014  0.00  0.00    -0.479 OA
ENDBRANCH   1  21
BRANCH   9  23
ATOM     23  S   UNL     1       7.516 -10.431   3.630  0.00  0.00    +0.061 S 
ATOM     24  O   UNL     1       7.259 -11.417   2.639  0.00  0.00    -0.153 OA
ATOM     25  O   UNL     1       8.828 -10.136   4.089  0.00  0.00    -0.153 OA
BRANCH  23  26
ATOM     26  N   UNL     1       6.631 -10.857   4.963  0.00  0.00    -0.177 NA
ATOM     27  C   UNL     1       6.923 -10.459   6.348  0.00  0.00    +0.109 C 
ATOM     28  C   UNL     1       5.851 -11.110   7.247  0.00  0.00    +0.018 C 
ATOM     29  C   UNL     1       5.349 -12.298   6.385  0.00  0.00    +0.018 C 
ATOM     30  C   UNL     1       5.418 -11.695   4.958  0.00  0.00    +0.109 C 
ENDBRANCH  23  26
ENDBRANCH   9  23
TORSDOF 3
