REMARK  Name = ZINC38767282
REMARK  11 active torsions:
REMARK  status: ('A' for Active; 'I' for Inactive)
REMARK    1  A    between atoms: C_1  and  C_2
REMARK    2  A    between atoms: C_2  and  O_3
REMARK    3  A    between atoms: O_3  and  C_4
REMARK    4  A    between atoms: C_9  and  O_10
REMARK    5  A    between atoms: O_10  and  C_11
REMARK    6  A    between atoms: C_12  and  C_33
REMARK    7  A    between atoms: C_15  and  C_17
REMARK    8  A    between atoms: C_20  and  O_24
REMARK    9  A    between atoms: C_22  and  O_23
REMARK   10  A    between atoms: O_24  and  C_25
REMARK   11  A    between atoms: C_25  and  C_26
REMARK                            x       y       z     vdW  Elec       q    Type
REMARK                         _______ _______ _______ _____ _____    ______ ____
ROOT
ATOM      1  C   UNL     1       2.688  -2.001   4.406  0.00  0.00    +0.156 C 
ATOM      2  C   UNL     1       2.983  -3.283   4.705  0.00  0.00    +0.098 C 
ATOM      3  N   UNL     1       3.682  -3.355   5.844  0.00  0.00    -0.179 NA
ATOM      4  N   UNL     1       3.913  -2.269   6.381  0.00  0.00    -0.294 N 
ATOM      5  C   UNL     1       3.317  -1.214   5.543  0.00  0.00    +0.200 C 
ATOM      6  C   UNL     1       2.580  -4.471   3.871  0.00  0.00    +0.071 C 
ATOM      7  H   UNL     1       4.403  -2.134   7.207  0.00  0.00    +0.184 HD
ENDROOT
BRANCH   5   8
ATOM      8  C   UNL     1       4.379  -0.280   5.022  0.00  0.00    +0.025 A 
ATOM      9  C   UNL     1       5.703  -0.676   5.014  0.00  0.00    +0.013 A 
ATOM     10  C   UNL     1       6.679   0.178   4.537  0.00  0.00    +0.046 A 
ATOM     11  C   UNL     1       6.331   1.437   4.065  0.00  0.00    +0.124 A 
ATOM     12  C   UNL     1       5.004   1.836   4.073  0.00  0.00    +0.091 A 
ATOM     13  C   UNL     1       4.026   0.975   4.547  0.00  0.00    +0.126 A 
BRANCH  13  14
ATOM     14  O   UNL     1       2.723   1.361   4.550  0.00  0.00    -0.506 OA
ATOM     15  H   UNL     1       2.447   1.809   5.361  0.00  0.00    +0.292 HD
ENDBRANCH  13  14
BRANCH  11  16
ATOM     16  O   UNL     1       7.291   2.276   3.597  0.00  0.00    -0.487 OA
BRANCH  16  17
ATOM     17  C   UNL     1       8.638   1.799   3.619  0.00  0.00    +0.267 C 
BRANCH  17  18
ATOM     18  C   UNL     1       9.556   2.859   3.066  0.00  0.00    +0.025 A 
ATOM     19  C   UNL     1       9.039   4.068   2.642  0.00  0.00    +0.010 A 
ATOM     20  C   UNL     1       9.881   5.040   2.135  0.00  0.00    +0.001 A 
ATOM     21  C   UNL     1      11.240   4.804   2.051  0.00  0.00    +0.003 A 
ATOM     22  C   UNL     1      11.759   3.595   2.474  0.00  0.00    +0.039 A 
ATOM     23  C   UNL     1      10.918   2.623   2.988  0.00  0.00    +0.130 A 
ATOM     24  F   UNL     1      11.425   1.443   3.407  0.00  0.00    -0.205 F 
ENDBRANCH  17  18
ENDBRANCH  16  17
ENDBRANCH  11  16
ENDBRANCH   5   8
BRANCH   1  25
ATOM     25  O   UNL     1       2.002  -1.528   3.344  0.00  0.00    -0.452 OA
BRANCH  25  31
ATOM     26  C   UNL     1       0.109  -0.331   2.528  0.00  0.00    +0.162 A 
ATOM     27  C   UNL     1      -1.121   0.262   2.766  0.00  0.00    +0.049 A 
ATOM     28  C   UNL     1      -1.659   0.252   4.039  0.00  0.00    +0.004 A 
ATOM     29  C   UNL     1      -0.972  -0.349   5.079  0.00  0.00    +0.004 A 
ATOM     30  C   UNL     1       0.255  -0.941   4.849  0.00  0.00    +0.050 A 
ATOM     31  C   UNL     1       0.797  -0.941   3.573  0.00  0.00    +0.170 A 
BRANCH  26  32
ATOM     32  O   UNL     1       0.639  -0.321   1.276  0.00  0.00    -0.489 OA
BRANCH  32  34
ATOM     33  C   UNL     1       0.629   0.232  -1.076  0.00  0.00    +0.048 C 
ATOM     34  C   UNL     1      -0.123   0.323   0.254  0.00  0.00    +0.226 C 
ENDBRANCH  32  34
ENDBRANCH  26  32
ENDBRANCH  25  31
ENDBRANCH   1  25
TORSDOF 9
