REMARK  Name = ZINC06973354
REMARK  11 active torsions:
REMARK  status: ('A' for Active; 'I' for Inactive)
REMARK    1  A    between atoms: C_1  and  C_2
REMARK    2  A    between atoms: C_5  and  N_8
REMARK    3  A    between atoms: C_9  and  C_11
REMARK    4  A    between atoms: C_11  and  N_12
REMARK    5  A    between atoms: N_12  and  C_13
REMARK    6  A    between atoms: C_14  and  C_16
REMARK    7  A    between atoms: C_16  and  S_17
REMARK    8  A    between atoms: S_17  and  C_18
REMARK    9  A    between atoms: C_20  and  C_30
REMARK   10  A    between atoms: C_21  and  C_29
REMARK   11  A    between atoms: N_22  and  C_23
REMARK                            x       y       z     vdW  Elec       q    Type
REMARK                         _______ _______ _______ _____ _____    ______ ____
ROOT
ATOM      1  N   UNL     1       0.420  -6.845   2.495  0.00  0.00    -0.295 N 
ATOM      2  C   UNL     1      -0.787  -7.205   3.244  0.00  0.00    +0.132 C 
ATOM      3  C   UNL     1       1.632  -6.969   3.071  0.00  0.00    +0.226 C 
ATOM      4  O   UNL     1       2.631  -6.670   2.452  0.00  0.00    -0.275 OA
ENDROOT
BRANCH   1   5
ATOM      5  C   UNL     1       0.309  -6.349   1.121  0.00  0.00    +0.203 C 
BRANCH   5   7
ATOM      6  N   UNL     1       0.059  -4.170  -0.021  0.00  0.00    -0.284 N 
ATOM      7  C   UNL     1       0.175  -4.848   1.138  0.00  0.00    +0.235 C 
ATOM      8  O   UNL     1       0.173  -4.251   2.193  0.00  0.00    -0.274 OA
ATOM      9  H   UNL     1      -0.017  -4.651  -0.860  0.00  0.00    +0.155 HD
BRANCH   6  14
ATOM     10  C   UNL     1       0.008   1.503   0.007  0.00  0.00    +0.044 C 
ATOM     11  C   UNL     1       0.022  -0.004  -0.001  0.00  0.00    -0.050 A 
ATOM     12  C   UNL     1       0.777  -0.692   0.931  0.00  0.00    +0.005 A 
ATOM     13  C   UNL     1       0.791  -2.073   0.927  0.00  0.00    +0.023 A 
ATOM     14  C   UNL     1       0.046  -2.771  -0.014  0.00  0.00    +0.033 A 
ATOM     15  C   UNL     1      -0.712  -2.077  -0.948  0.00  0.00    +0.023 A 
ATOM     16  C   UNL     1      -0.726  -0.696  -0.936  0.00  0.00    +0.005 A 
ENDBRANCH   6  14
ENDBRANCH   5   7
ENDBRANCH   1   5
BRANCH   3  17
ATOM     17  C   UNL     1       1.746  -7.479   4.485  0.00  0.00    +0.173 C 
BRANCH  17  18
ATOM     18  S   UNL     1       3.493  -7.531   4.970  0.00  0.00    -0.080 S 
BRANCH  18  19
ATOM     19  C   UNL     1       3.459  -8.139   6.623  0.00  0.00    +0.148 A 
ATOM     20  N   UNL     1       2.382  -8.469   7.298  0.00  0.00    -0.338 N 
ATOM     21  C   UNL     1       2.737  -8.891   8.523  0.00  0.00    +0.034 A 
ATOM     22  C   UNL     1       4.076  -8.824   8.622  0.00  0.00    +0.037 A 
ATOM     23  N   UNL     1       4.544  -8.352   7.416  0.00  0.00    -0.321 N 
ATOM     24  C   UNL     1       4.907  -9.199   9.822  0.00  0.00    +0.065 C 
ATOM     25  C   UNL     1       1.796  -9.359   9.602  0.00  0.00    +0.065 C 
ATOM     26  H   UNL     1       1.473  -8.417   6.964  0.00  0.00    +0.168 HD
BRANCH  23  27
ATOM     27  C   UNL     1       5.945  -8.119   7.056  0.00  0.00    +0.089 C 
ATOM     28  C   UNL     1       6.144  -6.643   6.707  0.00  0.00    +0.025 C 
ATOM     29  C   UNL     1       7.607  -6.400   6.331  0.00  0.00    +0.002 C 
ATOM     30  C   UNL     1       7.973  -7.263   5.123  0.00  0.00    +0.000 C 
ATOM     31  C   UNL     1       7.775  -8.740   5.472  0.00  0.00    +0.002 C 
ATOM     32  C   UNL     1       6.312  -8.983   5.848  0.00  0.00    +0.025 C 
ENDBRANCH  23  27
ENDBRANCH  18  19
ENDBRANCH  17  18
ENDBRANCH   3  17
TORSDOF 7
