REMARK  Name = ZINC56532936
REMARK  8 active torsions:
REMARK  status: ('A' for Active; 'I' for Inactive)
REMARK    1  A    between atoms: C_1  and  C_2
REMARK    2  A    between atoms: C_4  and  C_8
REMARK    3  A    between atoms: C_5  and  C_7
REMARK    4  A    between atoms: N_10  and  C_11
REMARK    5  A    between atoms: C_11  and  C_12
REMARK    6  A    between atoms: N_14  and  C_15
REMARK    7  A    between atoms: C_15  and  C_16
REMARK    8  A    between atoms: C_19  and  N_22
REMARK                            x       y       z     vdW  Elec       q    Type
REMARK                         _______ _______ _______ _____ _____    ______ ____
ROOT
ATOM      1  C   UNL     1      -4.967  -4.253   0.022  0.00  0.00    +0.230 C 
ATOM      2  O   UNL     1      -5.320  -3.092   0.018  0.00  0.00    -0.274 OA
ATOM      3  N   UNL     1      -5.887  -5.237   0.018  0.00  0.00    -0.310 N 
ATOM      4  H   UNL     1      -5.605  -6.165   0.021  0.00  0.00    +0.149 HD
ENDROOT
BRANCH   1   5
ATOM      5  C   UNL     1      -3.499  -4.593   0.033  0.00  0.00    +0.200 C 
BRANCH   5   8
ATOM      6  C   UNL     1      -1.364  -3.418   0.045  0.00  0.00    +0.248 C 
ATOM      7  O   UNL     1      -0.804  -4.498   0.051  0.00  0.00    -0.270 OA
ATOM      8  N   UNL     1      -2.711  -3.359   0.036  0.00  0.00    -0.303 N 
ATOM      9  H   UNL     1      -3.158  -2.498   0.032  0.00  0.00    +0.150 HD
BRANCH   6  13
ATOM     10  C   UNL     1      -0.018   1.503   0.047  0.00  0.00    +0.086 C 
ATOM     11  C   UNL     1       0.002  -0.004   0.050  0.00  0.00    +0.103 A 
ATOM     12  C   UNL     1      -1.081  -0.797   0.044  0.00  0.00    +0.057 A 
ATOM     13  C   UNL     1      -0.571  -2.176   0.049  0.00  0.00    +0.077 A 
ATOM     14  C   UNL     1       0.788  -2.066   0.057  0.00  0.00    +0.114 A 
ATOM     15  O   UNL     1       1.106  -0.767   0.053  0.00  0.00    -0.464 OA
ATOM     16  C   UNL     1       1.766  -3.212   0.065  0.00  0.00    +0.087 C 
ENDBRANCH   6  13
ENDBRANCH   5   8
ENDBRANCH   1   5
BRANCH   3  17
ATOM     17  C   UNL     1      -7.314  -4.905   0.008  0.00  0.00    +0.139 C 
BRANCH  17  18
ATOM     18  C   UNL     1      -8.125  -6.176   0.004  0.00  0.00    -0.030 A 
ATOM     19  C   UNL     1      -8.483  -6.762  -1.196  0.00  0.00    +0.007 A 
ATOM     20  C   UNL     1      -9.226  -7.926  -1.203  0.00  0.00    +0.023 A 
ATOM     21  C   UNL     1      -9.614  -8.508  -0.002  0.00  0.00    +0.030 A 
ATOM     22  C   UNL     1      -9.252  -7.917   1.201  0.00  0.00    +0.023 A 
ATOM     23  C   UNL     1      -8.504  -6.755   1.201  0.00  0.00    +0.007 A 
BRANCH  21  24
ATOM     24  N   UNL     1     -10.365  -9.685  -0.006  0.00  0.00    -0.320 N 
ATOM     25  C   UNL     1     -10.690 -10.391   1.246  0.00  0.00    +0.124 C 
ATOM     26  C   UNL     1     -12.212 -10.417   1.399  0.00  0.00    +0.123 C 
ATOM     27  N   UNL     1     -12.849 -10.819   0.153  0.00  0.00    -0.313 N 
ATOM     28  C   UNL     1     -12.284 -10.725  -1.052  0.00  0.00    +0.230 C 
ATOM     29  O   UNL     1     -12.946 -11.018  -2.026  0.00  0.00    -0.274 OA
ATOM     30  C   UNL     1     -10.870 -10.267  -1.258  0.00  0.00    +0.200 C 
ATOM     31  H   UNL     1     -13.748 -11.182   0.202  0.00  0.00    +0.149 HD
ENDBRANCH  21  24
ENDBRANCH  17  18
ENDBRANCH   3  17
TORSDOF 6
