REMARK  Name = ZINC40057722
REMARK  7 active torsions:
REMARK  status: ('A' for Active; 'I' for Inactive)
REMARK    1  A    between atoms: C_1  and  C_2
REMARK    2  A    between atoms: C_2  and  O_3
REMARK    3  A    between atoms: O_3  and  C_4
REMARK    4  A    between atoms: C_14  and  C_31
REMARK    5  A    between atoms: C_20  and  C_30
REMARK    6  A    between atoms: C_22  and  C_29
REMARK    7  A    between atoms: C_34  and  O_37
REMARK                            x       y       z     vdW  Elec       q    Type
REMARK                         _______ _______ _______ _____ _____    ______ ____
ROOT
ATOM      1  C   UNL     1      -1.498  -1.849   0.006  0.00  0.00    +0.122 A 
ATOM      2  C   UNL     1      -0.389  -2.689  -0.003  0.00  0.00    +0.048 A 
ATOM      3  C   UNL     1      -0.521  -4.043  -0.009  0.00  0.00    +0.032 A 
ATOM      4  C   UNL     1      -1.798  -4.649  -0.005  0.00  0.00    +0.081 A 
ATOM      5  C   UNL     1      -2.907  -3.771   0.005  0.00  0.00    +0.044 A 
ATOM      6  C   UNL     1      -2.769  -2.405   0.016  0.00  0.00    +0.063 A 
ATOM      7  S   UNL     1      -4.281  -4.897   0.007  0.00  0.00    -0.052 S 
ATOM      8  C   UNL     1      -3.332  -6.411  -0.005  0.00  0.00    +0.169 A 
ATOM      9  N   UNL     1      -2.097  -5.967  -0.009  0.00  0.00    -0.224 NA
ATOM     10  N   UNL     1      -3.784  -7.719  -0.009  0.00  0.00    -0.232 N 
ATOM     11  C   UNL     1      -2.940  -8.926  -0.013  0.00  0.00    +0.151 C 
ATOM     12  C   UNL     1      -3.885 -10.083  -0.018  0.00  0.00    +0.072 A 
ATOM     13  C   UNL     1      -3.642 -11.529  -0.033  0.00  0.00    +0.199 A 
ATOM     14  O   UNL     1      -2.540 -12.022   0.132  0.00  0.00    -0.287 OA
ATOM     15  C   UNL     1      -4.866 -12.335  -0.269  0.00  0.00    +0.067 A 
ATOM     16  C   UNL     1      -4.774 -13.706  -0.509  0.00  0.00    -0.036 A 
ATOM     17  C   UNL     1      -5.911 -14.433  -0.729  0.00  0.00    +0.007 A 
ATOM     18  C   UNL     1      -7.152 -13.812  -0.716  0.00  0.00    -0.047 A 
ATOM     19  C   UNL     1      -7.261 -12.460  -0.479  0.00  0.00    +0.050 A 
ATOM     20  C   UNL     1      -6.117 -11.696  -0.248  0.00  0.00    +0.140 A 
ATOM     21  O   UNL     1      -6.249 -10.372  -0.008  0.00  0.00    -0.450 OA
ATOM     22  C   UNL     1      -5.156  -9.582  -0.012  0.00  0.00    +0.199 A 
ATOM     23  C   UNL     1      -5.074  -8.112  -0.003  0.00  0.00    +0.289 C 
ATOM     24  O   UNL     1      -6.029  -7.361   0.006  0.00  0.00    -0.266 OA
ATOM     25  C   UNL     1      -8.395 -14.627  -0.964  0.00  0.00    +0.044 C 
ATOM     26  C   UNL     1      -3.428 -14.382  -0.525  0.00  0.00    +0.044 C 
ENDROOT
BRANCH  11  27
ATOM     27  C   UNL     1      -2.079  -8.962   1.223  0.00  0.00    -0.022 A 
ATOM     28  C   UNL     1      -2.596  -8.549   2.437  0.00  0.00    +0.009 A 
ATOM     29  C   UNL     1      -1.808  -8.581   3.572  0.00  0.00    +0.046 A 
ATOM     30  C   UNL     1      -0.497  -9.028   3.492  0.00  0.00    +0.117 A 
ATOM     31  C   UNL     1       0.019  -9.443   2.273  0.00  0.00    +0.046 A 
ATOM     32  C   UNL     1      -0.774  -9.414   1.142  0.00  0.00    +0.009 A 
BRANCH  30  33
ATOM     33  O   UNL     1       0.280  -9.060   4.606  0.00  0.00    -0.507 OA
ATOM     34  H   UNL     1       0.234  -9.894   5.094  0.00  0.00    +0.292 HD
ENDBRANCH  30  33
ENDBRANCH  11  27
BRANCH   1  35
ATOM     35  O   UNL     1      -1.339  -0.499   0.012  0.00  0.00    -0.492 OA
BRANCH  35  37
ATOM     36  C   UNL     1      -0.019   1.526   0.010  0.00  0.00    +0.048 C 
ATOM     37  C   UNL     1       0.002  -0.004   0.002  0.00  0.00    +0.225 C 
ENDBRANCH  35  37
ENDBRANCH   1  35
TORSDOF 4
