REMARK  Name = ZINC36029764
REMARK  10 active torsions:
REMARK  status: ('A' for Active; 'I' for Inactive)
REMARK    1  A    between atoms: C_1  and  C_2
REMARK    2  A    between atoms: C_2  and  C_3
REMARK    3  A    between atoms: C_3  and  C_5
REMARK    4  A    between atoms: C_3  and  C_6
REMARK    5  A    between atoms: N_10  and  C_25
REMARK    6  A    between atoms: N_20  and  C_21
REMARK    7  A    between atoms: C_21  and  C_22
REMARK    8  A    between atoms: C_21  and  C_23
REMARK    9  A    between atoms: C_21  and  C_24
REMARK   10  A    between atoms: C_25  and  C_26
REMARK                            x       y       z     vdW  Elec       q    Type
REMARK                         _______ _______ _______ _____ _____    ______ ____
ROOT
ATOM      1  C   UNL     1       0.882  -2.046  -1.188  0.00  0.00    +0.022 C 
ATOM      2  C   UNL     1      -0.473  -2.715  -1.270  0.00  0.00    +0.201 C 
ATOM      3  O   UNL     1      -1.451  -2.417  -0.617  0.00  0.00    -0.277 OA
ATOM      4  N   UNL     1      -0.410  -3.698  -2.193  0.00  0.00    -0.313 N 
ATOM      5  C   UNL     1       0.940  -3.751  -2.760  0.00  0.00    +0.006 C 
ATOM      6  N   UNL     1       1.588  -2.463  -2.424  0.00  0.00    +0.401 N 
ATOM      7  C   UNL     1       0.871  -3.915  -4.277  0.00  0.00    +0.025 C 
ATOM      8  C   UNL     1       0.166  -5.234  -4.613  0.00  0.00    +0.109 C 
ATOM      9  N   UNL     1       0.850  -6.327  -3.909  0.00  0.00    -0.286 N 
ATOM     10  C   UNL     1       1.033  -6.227  -2.455  0.00  0.00    +0.109 C 
ATOM     11  C   UNL     1       1.730  -4.900  -2.137  0.00  0.00    +0.025 C 
ATOM     12  C   UNL     1       1.300  -7.403  -4.585  0.00  0.00    +0.303 C 
ATOM     13  O   UNL     1       1.229  -7.432  -5.799  0.00  0.00    -0.253 OA
ATOM     14  N   UNL     1       1.829  -8.446  -3.916  0.00  0.00    -0.294 N 
ATOM     15  H   UNL     1       1.444  -1.789  -3.162  0.00  0.00    -0.082 HD
ATOM     16  H   UNL     1       1.819  -8.456  -2.946  0.00  0.00    +0.151 HD
ATOM     17  H   UNL     1       2.572  -2.593  -2.246  0.00  0.00    -0.082 HD
ENDROOT
BRANCH  14  18
ATOM     18  C   UNL     1       2.420  -9.566  -4.654  0.00  0.00    +0.028 C 
ATOM     19  C   UNL     1       3.576  -9.055  -5.516  0.00  0.00    +0.031 C 
ATOM     20  C   UNL     1       2.944 -10.609  -3.664  0.00  0.00    +0.031 C 
ATOM     21  C   UNL     1       1.357 -10.203  -5.551  0.00  0.00    +0.031 C 
ENDBRANCH  14  18
BRANCH   1  22
ATOM     22  C   UNL     1       0.724  -0.525  -1.153  0.00  0.00    -0.020 C 
ATOM     23  C   UNL     1      -0.158  -0.076  -2.320  0.00  0.00    +0.006 C 
BRANCH  22  25
ATOM     24  C   UNL     1       0.026   1.416   0.258  0.00  0.00    +0.004 C 
ATOM     25  C   UNL     1       0.071  -0.110   0.168  0.00  0.00    -0.001 C 
ENDBRANCH  22  25
ENDBRANCH   1  22
BRANCH   4  26
ATOM     26  C   UNL     1      -1.520  -4.576  -2.569  0.00  0.00    +0.109 C 
BRANCH  26  27
ATOM     27  C   UNL     1      -2.310  -3.938  -3.714  0.00  0.00    +0.006 C 
ATOM     28  C   UNL     1      -3.766  -3.555  -3.442  0.00  0.00    +0.005 C 
ATOM     29  C   UNL     1      -3.445  -4.757  -4.332  0.00  0.00    +0.005 C 
ENDBRANCH  26  27
ENDBRANCH   4  26
TORSDOF 5
