REMARK  Name = ZINC06648546
REMARK  4 active torsions:
REMARK  status: ('A' for Active; 'I' for Inactive)
REMARK    1  A    between atoms: N_11  and  N_12
REMARK    2  A    between atoms: C_13  and  C_14
REMARK    3  A    between atoms: C_18  and  O_21
REMARK    4  A    between atoms: C_19  and  O_20
REMARK                            x       y       z     vdW  Elec       q    Type
REMARK                         _______ _______ _______ _____ _____    ______ ____
ROOT
ATOM      1  C   UNL     1      -0.017   1.375   0.010  0.00  0.00    +0.002 A 
ATOM      2  C   UNL     1       1.170   2.094   0.002  0.00  0.00    +0.002 A 
ATOM      3  C   UNL     1       2.382   1.442  -0.013  0.00  0.00    +0.030 A 
ATOM      4  C   UNL     1       2.418   0.045  -0.021  0.00  0.00    +0.091 A 
ATOM      5  C   UNL     1       1.214  -0.678  -0.013  0.00  0.00    +0.067 A 
ATOM      6  C   UNL     1       0.002  -0.004   0.002  0.00  0.00    +0.028 A 
ATOM      7  N   UNL     1       1.568  -2.017  -0.023  0.00  0.00    -0.325 N 
ATOM      8  H   UNL     1       0.960  -2.773  -0.021  0.00  0.00    +0.169 HD
ATOM      9  C   UNL     1       2.933  -2.074  -0.037  0.00  0.00    +0.214 A 
ATOM     10  N   UNL     1       3.429  -0.862  -0.036  0.00  0.00    -0.213 NA
ATOM     11  N   UNL     1       3.677  -3.235  -0.049  0.00  0.00    -0.207 N 
ATOM     12  H   UNL     1       3.232  -4.097  -0.049  0.00  0.00    +0.177 HD
ENDROOT
BRANCH  11  13
ATOM     13  N   UNL     1       5.077  -3.170  -0.063  0.00  0.00    -0.187 NA
ATOM     14  C   UNL     1       5.777  -4.263  -0.074  0.00  0.00    +0.142 C 
BRANCH  14  15
ATOM     15  C   UNL     1       7.249  -4.195  -0.088  0.00  0.00    +0.040 A 
ATOM     16  C   UNL     1       8.007  -5.369  -0.107  0.00  0.00    +0.013 A 
ATOM     17  C   UNL     1       9.384  -5.301  -0.120  0.00  0.00    +0.004 A 
ATOM     18  C   UNL     1      10.023  -4.073  -0.116  0.00  0.00    +0.049 A 
ATOM     19  C   UNL     1       9.284  -2.900  -0.097  0.00  0.00    +0.159 A 
ATOM     20  C   UNL     1       7.896  -2.953  -0.089  0.00  0.00    +0.167 A 
BRANCH  20  21
ATOM     21  O   UNL     1       7.169  -1.805  -0.077  0.00  0.00    -0.503 OA
ATOM     22  H   UNL     1       6.967  -1.476   0.810  0.00  0.00    +0.292 HD
ENDBRANCH  20  21
BRANCH  19  23
ATOM     23  O   UNL     1       9.919  -1.697  -0.092  0.00  0.00    -0.503 OA
ATOM     24  H   UNL     1      10.093  -1.341  -0.974  0.00  0.00    +0.292 HD
ENDBRANCH  19  23
ENDBRANCH  14  15
ENDBRANCH  11  13
TORSDOF 4
