REMARK  Name = ZINC65191845
REMARK  8 active torsions:
REMARK  status: ('A' for Active; 'I' for Inactive)
REMARK    1  A    between atoms: C_1  and  C_2
REMARK    2  A    between atoms: C_2  and  N_3
REMARK    3  A    between atoms: N_3  and  S_4
REMARK    4  A    between atoms: S_4  and  C_7
REMARK    5  A    between atoms: C_11  and  C_13
REMARK    6  A    between atoms: N_15  and  N_16
REMARK    7  A    between atoms: N_19  and  C_20
REMARK    8  A    between atoms: C_20  and  C_21
REMARK                            x       y       z     vdW  Elec       q    Type
REMARK                         _______ _______ _______ _____ _____    ______ ____
ROOT
ATOM      1  C   UNL     1      -0.921  -3.081   0.888  0.00  0.00    +0.106 A 
ATOM      2  C   UNL     1       0.389  -3.502   0.740  0.00  0.00    +0.031 A 
ATOM      3  C   UNL     1       0.988  -4.275   1.717  0.00  0.00    +0.041 A 
ATOM      4  C   UNL     1       0.281  -4.633   2.850  0.00  0.00    +0.136 A 
ATOM      5  C   UNL     1      -1.043  -4.210   3.004  0.00  0.00    +0.075 A 
ATOM      6  C   UNL     1      -1.638  -3.425   2.014  0.00  0.00    +0.044 A 
ATOM      7  F   UNL     1       0.866  -5.389   3.804  0.00  0.00    -0.205 F 
ENDROOT
BRANCH   5   8
ATOM      8  C   UNL     1      -1.807  -4.587   4.211  0.00  0.00    +0.263 C 
ATOM      9  O   UNL     1      -1.285  -5.267   5.073  0.00  0.00    -0.269 OA
ATOM     10  N   UNL     1      -3.083  -4.177   4.356  0.00  0.00    -0.229 N 
ATOM     11  H   UNL     1      -3.499  -3.635   3.669  0.00  0.00    +0.173 HD
BRANCH  10  12
ATOM     12  N   UNL     1      -3.807  -4.535   5.501  0.00  0.00    -0.218 N 
ATOM     13  C   UNL     1      -5.083  -4.125   5.646  0.00  0.00    +0.316 C 
ATOM     14  O   UNL     1      -5.712  -4.436   6.640  0.00  0.00    -0.251 OA
ATOM     15  N   UNL     1      -5.662  -3.371   4.691  0.00  0.00    -0.298 N 
ATOM     16  H   UNL     1      -3.390  -5.077   6.189  0.00  0.00    +0.174 HD
ATOM     17  H   UNL     1      -5.160  -3.124   3.898  0.00  0.00    +0.150 HD
BRANCH  15  18
ATOM     18  C   UNL     1      -7.048  -2.926   4.849  0.00  0.00    +0.109 C 
BRANCH  18  19
ATOM     19  C   UNL     1      -7.458  -2.092   3.633  0.00  0.00    +0.006 C 
ATOM     20  C   UNL     1      -7.808  -0.622   3.870  0.00  0.00    +0.005 C 
ATOM     21  C   UNL     1      -8.914  -1.630   3.552  0.00  0.00    +0.005 C 
ENDBRANCH  18  19
ENDBRANCH  15  18
ENDBRANCH  10  12
ENDBRANCH   5   8
BRANCH   1  22
ATOM     22  S   UNL     1      -1.673  -2.095  -0.364  0.00  0.00    +0.058 S 
ATOM     23  O   UNL     1      -3.076  -2.283  -0.241  0.00  0.00    -0.153 OA
ATOM     24  O   UNL     1      -0.972  -2.366  -1.570  0.00  0.00    -0.153 OA
BRANCH  22  25
ATOM     25  N   UNL     1      -1.372  -0.511   0.012  0.00  0.00    -0.190 NA
ATOM     26  H   UNL     1      -2.106   0.081   0.240  0.00  0.00    +0.148 HD
BRANCH  25  28
ATOM     27  C   UNL     1      -0.019   1.526   0.010  0.00  0.00    +0.022 C 
ATOM     28  C   UNL     1       0.002  -0.004   0.002  0.00  0.00    +0.102 C 
ENDBRANCH  25  28
ENDBRANCH  22  25
ENDBRANCH   1  22
TORSDOF 7
