REMARK  Name = ZINC12993718
REMARK  6 active torsions:
REMARK  status: ('A' for Active; 'I' for Inactive)
REMARK    1  A    between atoms: C_1  and  N_2
REMARK    2  A    between atoms: N_2  and  S_3
REMARK    3  A    between atoms: S_3  and  C_6
REMARK    4  A    between atoms: C_9  and  C_12
REMARK    5  A    between atoms: C_15  and  C_17
REMARK    6  A    between atoms: C_18  and  C_19
REMARK                            x       y       z     vdW  Elec       q    Type
REMARK                         _______ _______ _______ _____ _____    ______ ____
ROOT
ATOM      1  C   UNL     1      -0.226   3.311 -10.843  0.00  0.00    +0.136 A 
ATOM      2  C   UNL     1      -1.501   3.792 -10.922  0.00  0.00    +0.050 A 
ATOM      3  C   UNL     1      -2.043   3.736  -9.634  0.00  0.00    +0.050 A 
ATOM      4  C   UNL     1      -1.063   3.216  -8.812  0.00  0.00    +0.130 A 
ATOM      5  O   UNL     1       0.029   2.972  -9.566  0.00  0.00    -0.455 OA
ENDROOT
BRANCH   1   9
ATOM      6  C   UNL     1       2.492   2.958 -14.086  0.00  0.00    +0.105 A 
ATOM      7  C   UNL     1       2.880   2.567 -12.816  0.00  0.00    +0.029 A 
ATOM      8  C   UNL     1       2.002   2.678 -11.758  0.00  0.00    +0.013 A 
ATOM      9  C   UNL     1       0.719   3.189 -11.970  0.00  0.00    +0.017 A 
ATOM     10  C   UNL     1       0.333   3.578 -13.255  0.00  0.00    +0.013 A 
ATOM     11  C   UNL     1       1.222   3.465 -14.303  0.00  0.00    +0.029 A 
BRANCH   6  12
ATOM     12  S   UNL     1       3.619   2.812 -15.431  0.00  0.00    +0.058 S 
ATOM     13  O   UNL     1       3.206   3.753 -16.413  0.00  0.00    -0.153 OA
ATOM     14  O   UNL     1       4.925   2.821 -14.870  0.00  0.00    -0.153 OA
BRANCH  12  16
ATOM     15  C   UNL     1       2.127   0.972 -16.736  0.00  0.00    +0.127 C 
ATOM     16  N   UNL     1       3.399   1.310 -16.093  0.00  0.00    -0.193 NA
ATOM     17  H   UNL     1       4.112   0.654 -16.056  0.00  0.00    +0.148 HD
ENDBRANCH  12  16
ENDBRANCH   6  12
ENDBRANCH   1   9
BRANCH   4  18
ATOM     18  C   UNL     1      -1.182   2.984  -7.420  0.00  0.00    +0.070 C 
ATOM     19  C   UNL     1      -0.137   2.466  -6.728  0.00  0.00    +0.087 C 
ATOM     20 CL   UNL     1       1.345   2.086  -7.547  0.00  0.00    -0.080 Cl
BRANCH  19  21
ATOM     21  C   UNL     1      -0.256   2.234  -5.334  0.00  0.00    +0.153 A 
ATOM     22  N   UNL     1       0.807   1.709  -4.641  0.00  0.00    -0.306 N 
ATOM     23  H   UNL     1       1.629   1.502  -5.113  0.00  0.00    +0.170 HD
ATOM     24  C   UNL     1       0.727   1.476  -3.317  0.00  0.00    +0.260 A 
ATOM     25  O   UNL     1       1.677   1.008  -2.713  0.00  0.00    -0.267 OA
ATOM     26  C   UNL     1      -0.491   1.786  -2.631  0.00  0.00    +0.075 A 
ATOM     27  C   UNL     1      -0.791   1.612  -1.202  0.00  0.00    -0.023 A 
ATOM     28  C   UNL     1      -2.016   1.978  -0.788  0.00  0.00    -0.004 A 
ATOM     29  S   UNL     1      -2.839   2.568  -2.250  0.00  0.00    -0.073 S 
ATOM     30  C   UNL     1      -1.525   2.319  -3.416  0.00  0.00    +0.116 A 
ATOM     31  N   UNL     1      -1.389   2.526  -4.718  0.00  0.00    -0.221 NA
ATOM     32  C   UNL     1      -2.207   1.759   0.689  0.00  0.00    +0.043 C 
ATOM     33  C   UNL     1      -0.772   1.602   1.246  0.00  0.00    +0.010 C 
ATOM     34  C   UNL     1      -0.013   1.086   0.008  0.00  0.00    +0.037 C 
ENDBRANCH  19  21
ENDBRANCH   4  18
TORSDOF 5
