REMARK  Name = ZINC35225155
REMARK  13 active torsions:
REMARK  status: ('A' for Active; 'I' for Inactive)
REMARK    1  A    between atoms: C_1  and  C_2
REMARK    2  A    between atoms: C_2  and  C_3
REMARK    3  A    between atoms: C_3  and  C_4
REMARK    4  A    between atoms: C_4  and  N_5
REMARK    5  A    between atoms: C_10  and  C_32
REMARK    6  A    between atoms: C_13  and  C_18
REMARK    7  A    between atoms: C_13  and  C_29
REMARK    8  A    between atoms: C_18  and  C_19
REMARK    9  A    between atoms: C_35  and  O_41
REMARK   10  A    between atoms: C_36  and  C_40
REMARK   11  A    between atoms: C_37  and  O_38
REMARK   12  A    between atoms: O_38  and  C_39
REMARK   13  A    between atoms: O_41  and  C_42
REMARK                            x       y       z     vdW  Elec       q    Type
REMARK                         _______ _______ _______ _____ _____    ______ ____
ROOT
ATOM      1  N   UNL     1       1.187  -2.916   2.587  0.00  0.00    -0.242 N 
ATOM      2  C   UNL     1       2.549  -3.062   2.506  0.00  0.00    +0.224 C 
ATOM      3  O   UNL     1       3.273  -2.750   1.585  0.00  0.00    -0.275 OA
ATOM      4  C   UNL     1       2.929  -3.669   3.757  0.00  0.00    +0.077 C 
ATOM      5  C   UNL     1       4.107  -3.846   4.624  0.00  0.00    -0.023 C 
ATOM      6  N   UNL     1       3.495  -4.412   5.875  0.00  0.00    +0.396 N 
ATOM      7  C   UNL     1       2.057  -4.012   5.901  0.00  0.00    +0.052 C 
ATOM      8  C   UNL     1       1.909  -2.996   4.759  0.00  0.00    +0.086 C 
ATOM      9  C   UNL     1       0.711  -3.093   3.855  0.00  0.00    +0.225 C 
ATOM     10  O   UNL     1      -0.439  -3.291   4.184  0.00  0.00    -0.275 OA
ATOM     11  H   UNL     1       3.570  -5.418   5.868  0.00  0.00    -0.083 HD
ATOM     12  H   UNL     1       3.968  -4.039   6.685  0.00  0.00    -0.083 HD
ENDROOT
BRANCH   5  13
ATOM     13  C   UNL     1       5.082  -4.820   4.013  0.00  0.00    -0.018 A 
ATOM     14  C   UNL     1       4.992  -6.166   4.314  0.00  0.00    +0.009 A 
ATOM     15  C   UNL     1       5.885  -7.062   3.756  0.00  0.00    +0.046 A 
ATOM     16  C   UNL     1       6.873  -6.611   2.892  0.00  0.00    +0.126 A 
ATOM     17  C   UNL     1       6.965  -5.261   2.589  0.00  0.00    +0.033 A 
ATOM     18  C   UNL     1       6.065  -4.366   3.146  0.00  0.00    +0.128 A 
ATOM     19  C   UNL     1       8.037  -4.770   1.651  0.00  0.00    +0.051 C 
BRANCH  18  20
ATOM     20  O   UNL     1       6.148  -3.043   2.846  0.00  0.00    -0.495 OA
ATOM     21  C   UNL     1       6.977  -2.238   3.687  0.00  0.00    +0.277 C 
ENDBRANCH  18  20
BRANCH  16  22
ATOM     22  O   UNL     1       7.750  -7.492   2.344  0.00  0.00    -0.495 OA
ATOM     23  C   UNL     1       7.597  -8.867   2.700  0.00  0.00    +0.277 C 
ENDBRANCH  16  22
ENDBRANCH   5  13
BRANCH   7  24
ATOM     24  C   UNL     1       1.721  -3.354   7.215  0.00  0.00    +0.347 C 
ATOM     25  O   UNL     1       2.576  -3.244   8.077  0.00  0.00    -0.248 OA
ATOM     26  O   UNL     1       0.595  -2.933   7.416  0.00  0.00    -0.248 OA
ENDBRANCH   7  24
BRANCH   1  27
ATOM     27  C   UNL     1       0.335  -2.597   1.438  0.00  0.00    +0.116 C 
BRANCH  27  28
ATOM     28  C   UNL     1       0.211  -1.079   1.300  0.00  0.00    +0.019 C 
BRANCH  28  30
ATOM     29  C   UNL     1      -0.802   0.772  -0.038  0.00  0.00    +0.004 C 
ATOM     30  C   UNL     1      -0.678  -0.746   0.100  0.00  0.00    -0.002 C 
ENDBRANCH  28  30
ENDBRANCH  27  28
ENDBRANCH   1  27
BRANCH   7  31
ATOM     31  C   UNL     1       1.163  -5.233   5.676  0.00  0.00    +0.037 C 
BRANCH  31  32
ATOM     32  C   UNL     1       1.387  -6.231   6.783  0.00  0.00    -0.023 A 
ATOM     33  C   UNL     1       2.226  -7.277   6.758  0.00  0.00    +0.087 A 
ATOM     34  N   UNL     1       2.160  -7.958   7.943  0.00  0.00    -0.360 N 
ATOM     35  H   UNL     1       2.675  -8.750   8.160  0.00  0.00    +0.165 HD
ATOM     36  C   UNL     1       1.253  -7.350   8.782  0.00  0.00    +0.047 A 
ATOM     37  C   UNL     1       0.733  -6.237   8.095  0.00  0.00    +0.003 A 
ATOM     38  C   UNL     1      -0.216  -5.420   8.710  0.00  0.00    +0.010 A 
ATOM     39  C   UNL     1      -0.633  -5.702   9.980  0.00  0.00    +0.001 A 
ATOM     40  C   UNL     1      -0.121  -6.796  10.664  0.00  0.00    +0.002 A 
ATOM     41  C   UNL     1       0.810  -7.622  10.072  0.00  0.00    +0.026 A 
ENDBRANCH  31  32
ENDBRANCH   7  31
TORSDOF 9
