REMARK  Name = ZINC13127770
REMARK  5 active torsions:
REMARK  status: ('A' for Active; 'I' for Inactive)
REMARK    1  A    between atoms: C_1  and  C_2
REMARK    2  A    between atoms: C_2  and  C_3
REMARK    3  A    between atoms: C_3  and  C_4
REMARK    4  A    between atoms: N_14  and  N_15
REMARK    5  A    between atoms: N_15  and  C_16
REMARK                            x       y       z     vdW  Elec       q    Type
REMARK                         _______ _______ _______ _____ _____    ______ ____
ROOT
ATOM      1  C   UNL     1       3.651  -1.914  -0.042  0.00  0.00    +0.131 A 
ATOM      2  N   UNL     1       3.609  -0.616  -0.035  0.00  0.00    -0.232 NA
ATOM      3  C   UNL     1       2.432   0.058  -0.021  0.00  0.00    +0.078 A 
ATOM      4  C   UNL     1       2.387   1.453  -0.013  0.00  0.00    +0.028 A 
ATOM      5  C   UNL     1       1.169   2.096   0.002  0.00  0.00    +0.002 A 
ATOM      6  C   UNL     1      -0.017   1.373   0.010  0.00  0.00    +0.001 A 
ATOM      7  C   UNL     1       0.002  -0.004   0.002  0.00  0.00    +0.015 A 
ATOM      8  C   UNL     1       1.224  -0.674  -0.013  0.00  0.00    +0.066 A 
ATOM      9  C   UNL     1       1.306  -2.142  -0.021  0.00  0.00    +0.279 A 
ATOM     10  O   UNL     1       0.303  -2.832  -0.015  0.00  0.00    -0.265 OA
ATOM     11  N   UNL     1       2.540  -2.697  -0.035  0.00  0.00    -0.212 N 
ENDROOT
BRANCH  11  12
ATOM     12  N   UNL     1       2.674  -4.091  -0.043  0.00  0.00    -0.256 N 
ATOM     13  H   UNL     1       2.929  -4.550  -0.859  0.00  0.00    +0.172 HD
BRANCH  12  14
ATOM     14  C   UNL     1       2.450  -4.793   1.078  0.00  0.00    +0.102 C 
ATOM     15  C   UNL     1       2.584  -6.184   1.070  0.00  0.00    +0.037 C 
ATOM     16  C   UNL     1       2.954  -6.867  -0.109  0.00  0.00    +0.013 C 
ATOM     17  C   UNL     1       3.079  -8.220  -0.097  0.00  0.00    +0.001 C 
ATOM     18  C   UNL     1       2.850  -8.961   1.059  0.00  0.00    +0.004 C 
ATOM     19  C   UNL     1       2.489  -8.364   2.228  0.00  0.00    +0.051 C 
ATOM     20  C   UNL     1       2.348  -6.967   2.289  0.00  0.00    +0.187 C 
ATOM     21  O   UNL     1       2.030  -6.417   3.334  0.00  0.00    -0.287 OA
ENDBRANCH  12  14
ENDBRANCH  11  12
BRANCH   1  22
ATOM     22  C   UNL     1       4.999  -2.586  -0.058  0.00  0.00    +0.076 C 
BRANCH  22  24
ATOM     23  C   UNL     1       7.468  -2.205  -0.080  0.00  0.00    +0.004 C 
ATOM     24  C   UNL     1       6.099  -1.522  -0.063  0.00  0.00    +0.004 C 
ENDBRANCH  22  24
ENDBRANCH   1  22
TORSDOF 4
