REMARK  Name = ZINC30290933
REMARK  7 active torsions:
REMARK  status: ('A' for Active; 'I' for Inactive)
REMARK    1  A    between atoms: C_1  and  C_2
REMARK    2  A    between atoms: C_4  and  N_11
REMARK    3  A    between atoms: C_5  and  O_9
REMARK    4  A    between atoms: O_9  and  C_10
REMARK    5  A    between atoms: N_11  and  C_12
REMARK    6  A    between atoms: C_12  and  C_13
REMARK    7  A    between atoms: N_18  and  C_19
REMARK                            x       y       z     vdW  Elec       q    Type
REMARK                         _______ _______ _______ _____ _____    ______ ____
ROOT
ATOM      1  C   UNL     1      -4.488   1.841   5.124  0.00  0.00    +0.237 C 
ATOM      2  O   UNL     1      -4.130   0.713   5.387  0.00  0.00    -0.274 OA
ATOM      3  N   UNL     1      -4.162   2.393   3.939  0.00  0.00    -0.239 N 
ATOM      4  C   UNL     1      -3.438   1.691   3.045  0.00  0.00    +0.306 C 
ATOM      5  O   UNL     1      -3.078   0.561   3.308  0.00  0.00    -0.252 OA
ATOM      6  N   UNL     1      -3.112   2.244   1.860  0.00  0.00    -0.295 N 
ATOM      7  H   UNL     1      -4.488   3.417   3.701  0.00  0.00    +0.159 HD
ATOM      8  H   UNL     1      -3.437   3.267   1.622  0.00  0.00    +0.151 HD
ENDROOT
BRANCH   6   9
ATOM      9  C   UNL     1      -2.324   1.481   0.888  0.00  0.00    +0.097 C 
ATOM     10  C   UNL     1      -0.828   1.631   1.215  0.00  0.00    +0.046 C 
ATOM     11  C   UNL     1      -0.013   1.086   0.008  0.00  0.00    +0.168 C 
ATOM     12  S   UNL     1      -1.006   1.746  -1.397  0.00  0.00    -0.029 S 
ATOM     13  O   UNL     1      -0.474   3.005  -1.787  0.00  0.00    -0.174 OA
ATOM     14  O   UNL     1      -1.167   0.724  -2.370  0.00  0.00    -0.174 OA
ATOM     15  C   UNL     1      -2.609   2.015  -0.537  0.00  0.00    +0.188 C 
ENDBRANCH   6   9
BRANCH   1  16
ATOM     16  C   UNL     1      -5.299   2.625   6.124  0.00  0.00    +0.198 C 
BRANCH  16  17
ATOM     17  N   UNL     1      -5.518   1.811   7.322  0.00  0.00    -0.333 N 
ATOM     18  H   UNL     1      -5.108   0.792   7.376  0.00  0.00    +0.147 HD
BRANCH  17  22
ATOM     19  C   UNL     1      -8.054   5.521   9.316  0.00  0.00    +0.045 C 
ATOM     20  C   UNL     1      -7.491   4.125   9.392  0.00  0.00    -0.030 A 
ATOM     21  C   UNL     1      -6.768   3.614   8.329  0.00  0.00    +0.031 A 
ATOM     22  C   UNL     1      -6.250   2.330   8.396  0.00  0.00    +0.070 A 
ATOM     23  C   UNL     1      -6.465   1.554   9.534  0.00  0.00    +0.142 A 
ATOM     24  C   UNL     1      -7.185   2.074  10.597  0.00  0.00    +0.067 A 
ATOM     25  C   UNL     1      -7.699   3.357  10.523  0.00  0.00    +0.047 A 
ATOM     26 CL   UNL     1      -8.608   4.004  11.853  0.00  0.00    -0.083 Cl
BRANCH  23  27
ATOM     27  O   UNL     1      -5.964   0.292   9.603  0.00  0.00    -0.493 OA
ATOM     28  C   UNL     1      -6.223  -0.445  10.800  0.00  0.00    +0.277 C 
ENDBRANCH  23  27
ENDBRANCH  17  22
ENDBRANCH  16  17
ENDBRANCH   1  16
TORSDOF 5
