REMARK  Name = ZINC48687986
REMARK  8 active torsions:
REMARK  status: ('A' for Active; 'I' for Inactive)
REMARK    1  A    between atoms: C_1  and  C_2
REMARK    2  A    between atoms: C_2  and  N_3
REMARK    3  A    between atoms: N_6  and  C_9
REMARK    4  A    between atoms: C_14  and  N_15
REMARK    5  A    between atoms: C_16  and  C_18
REMARK    6  A    between atoms: N_20  and  C_21
REMARK    7  A    between atoms: C_26  and  C_31
REMARK    8  A    between atoms: C_28  and  C_30
REMARK                            x       y       z     vdW  Elec       q    Type
REMARK                         _______ _______ _______ _____ _____    ______ ____
ROOT
ATOM      1  N   UNL     1       3.005  -2.398   5.521  0.00  0.00    -0.276 N 
ATOM      2  C   UNL     1       3.629  -2.003   6.649  0.00  0.00    +0.303 C 
ATOM      3  O   UNL     1       3.159  -2.282   7.732  0.00  0.00    -0.265 OA
ATOM      4  H   UNL     1       3.413  -2.232   4.657  0.00  0.00    +0.155 HD
ENDROOT
BRANCH   1  10
ATOM      5  C   UNL     1       0.803  -2.833   4.614  0.00  0.00    +0.051 A 
ATOM      6  C   UNL     1      -0.419  -3.485   4.693  0.00  0.00    +0.025 A 
ATOM      7  C   UNL     1      -0.679  -4.340   5.747  0.00  0.00    +0.002 A 
ATOM      8  C   UNL     1       0.276  -4.550   6.725  0.00  0.00    +0.002 A 
ATOM      9  C   UNL     1       1.496  -3.905   6.655  0.00  0.00    +0.025 A 
ATOM     10  C   UNL     1       1.768  -3.048   5.598  0.00  0.00    +0.055 A 
BRANCH   5  14
ATOM     11  N   UNL     1       0.697  -0.513   1.191  0.00  0.00    +0.382 N 
ATOM     12  C   UNL     1      -0.054  -0.136   2.395  0.00  0.00    -0.060 C 
ATOM     13  C   UNL     1       0.746  -0.534   3.640  0.00  0.00    +0.086 C 
ATOM     14  N   UNL     1       1.068  -1.967   3.548  0.00  0.00    -0.332 N 
ATOM     15  C   UNL     1       1.676  -2.463   2.304  0.00  0.00    +0.086 C 
ATOM     16  C   UNL     1       0.833  -1.973   1.122  0.00  0.00    -0.060 C 
ATOM     17  H   UNL     1       1.614  -0.092   1.224  0.00  0.00    -0.082 HD
BRANCH  11  19
ATOM     18  C   UNL     1      -0.050   1.497   0.007  0.00  0.00    -0.017 C 
ATOM     19  C   UNL     1      -0.017  -0.033   0.000  0.00  0.00    -0.082 C 
ENDBRANCH  11  19
ENDBRANCH   5  14
ENDBRANCH   1  10
BRANCH   2  20
ATOM     20  C   UNL     1       4.899  -1.222   6.564  0.00  0.00    +0.300 C 
ATOM     21  O   UNL     1       5.369  -0.943   5.481  0.00  0.00    -0.265 OA
ATOM     22  N   UNL     1       5.523  -0.827   7.691  0.00  0.00    -0.304 N 
ATOM     23  H   UNL     1       5.148  -1.050   8.557  0.00  0.00    +0.149 HD
BRANCH  22  24
ATOM     24  C   UNL     1       6.769  -0.060   7.608  0.00  0.00    +0.076 C 
ATOM     25  C   UNL     1       7.951  -1.022   7.466  0.00  0.00    +0.022 C 
ATOM     26  C   UNL     1       9.252  -0.222   7.379  0.00  0.00    +0.002 C 
ATOM     27  C   UNL     1       9.423   0.612   8.650  0.00  0.00    +0.003 C 
ATOM     28  C   UNL     1       8.242   1.574   8.793  0.00  0.00    -0.009 C 
ATOM     29  C   UNL     1       6.941   0.773   8.880  0.00  0.00    +0.009 C 
ATOM     30  C   UNL     1       6.993  -0.155  10.095  0.00  0.00    +0.009 C 
ATOM     31  C   UNL     1       8.413   2.407  10.065  0.00  0.00    +0.008 C 
ENDBRANCH  22  24
ENDBRANCH   2  20
TORSDOF 5
