REMARK  Name = ZINC62776435
REMARK  4 active torsions:
REMARK  status: ('A' for Active; 'I' for Inactive)
REMARK    1  A    between atoms: C_1  and  N_2
REMARK    2  A    between atoms: N_2  and  C_3
REMARK    3  A    between atoms: C_3  and  C_5
REMARK    4  A    between atoms: C_3  and  C_16
REMARK                            x       y       z     vdW  Elec       q    Type
REMARK                         _______ _______ _______ _____ _____    ______ ____
ROOT
ATOM      1  C   UNL     1      -0.059  -0.109   2.429  0.00  0.00    -0.038 A 
ATOM      2  C   UNL     1      -1.425   0.103   2.357  0.00  0.00    +0.009 A 
ATOM      3  C   UNL     1      -2.127   0.452   3.488  0.00  0.00    -0.017 A 
ATOM      4  C   UNL     1      -1.482   0.594   4.711  0.00  0.00    +0.038 A 
ATOM      5  C   UNL     1      -0.107   0.379   4.777  0.00  0.00    +0.043 A 
ATOM      6  C   UNL     1       0.594   0.024   3.641  0.00  0.00    +0.045 A 
ATOM      7 CL   UNL     1       2.306  -0.250   3.734  0.00  0.00    -0.083 Cl
ATOM      8  N   UNL     1      -2.398   0.949   5.701  0.00  0.00    -0.285 N 
ATOM      9  C   UNL     1      -3.648   1.059   5.222  0.00  0.00    +0.222 C 
ATOM     10  O   UNL     1      -4.639   1.353   5.856  0.00  0.00    -0.275 OA
ATOM     11  C   UNL     1      -3.587   0.747   3.742  0.00  0.00    +0.133 C 
ATOM     12  H   UNL     1      -2.159   1.099   6.630  0.00  0.00    +0.155 HD
ENDROOT
BRANCH   1  13
ATOM     13  C   UNL     1       0.713  -0.491   1.192  0.00  0.00    -0.006 C 
BRANCH  13  14
ATOM     14  C   UNL     1       0.841  -1.991   1.123  0.00  0.00    -0.020 A 
ATOM     15  C   UNL     1       1.924  -2.715   1.487  0.00  0.00    +0.107 A 
ATOM     16  N   UNL     1       1.639  -4.017   1.272  0.00  0.00    -0.285 N 
ATOM     17  H   UNL     1       2.231  -4.766   1.443  0.00  0.00    +0.188 HD
ATOM     18  N   UNL     1       0.338  -4.095   0.759  0.00  0.00    -0.182 NA
ATOM     19  C   UNL     1      -0.142  -2.881   0.676  0.00  0.00    +0.136 A 
ENDBRANCH  13  14
BRANCH  13  21
ATOM     20  C   UNL     1      -0.018   1.465   0.010  0.00  0.00    -0.099 C 
ATOM     21  N   UNL     1       0.002  -0.004   0.002  0.00  0.00    +0.385 N 
ATOM     22  H   UNL     1      -0.945  -0.353   0.009  0.00  0.00    -0.085 HD
ATOM     23  H   UNL     1       0.474  -0.330  -0.828  0.00  0.00    -0.085 HD
ENDBRANCH  13  21
ENDBRANCH   1  13
TORSDOF 3
