REMARK  Name = ZINC57919498
REMARK  8 active torsions:
REMARK  status: ('A' for Active; 'I' for Inactive)
REMARK    1  A    between atoms: C_1  and  C_2
REMARK    2  A    between atoms: C_3  and  C_26
REMARK    3  A    between atoms: C_5  and  N_9
REMARK    4  A    between atoms: C_6  and  C_7
REMARK    5  A    between atoms: C_10  and  C_12
REMARK    6  A    between atoms: C_12  and  N_13
REMARK    7  A    between atoms: N_16  and  C_19
REMARK    8  A    between atoms: C_24  and  O_25
REMARK                            x       y       z     vdW  Elec       q    Type
REMARK                         _______ _______ _______ _____ _____    ______ ____
ROOT
ATOM      1  C   UNL     1       0.092  -5.820   1.563  0.00  0.00    +0.181 C 
ENDROOT
BRANCH   1   2
ATOM      2  N   UNL     1       0.104  -6.971   0.650  0.00  0.00    -0.291 NA
ATOM      3  C   UNL     1       1.352  -7.014  -0.125  0.00  0.00    +0.104 C 
ATOM      4  C   UNL     1       1.251  -8.114  -1.187  0.00  0.00    +0.120 C 
ATOM      5  N   UNL     1       0.888  -9.375  -0.522  0.00  0.00    -0.325 N 
ATOM      6  C   UNL     1      -0.273  -9.375   0.381  0.00  0.00    +0.120 C 
ATOM      7  C   UNL     1      -0.113  -8.226   1.382  0.00  0.00    +0.104 C 
BRANCH   5   8
ATOM      8  C   UNL     1       1.627 -10.543  -0.742  0.00  0.00    +0.072 A 
ATOM      9  C   UNL     1       2.708 -10.846   0.073  0.00  0.00    +0.027 A 
ATOM     10  C   UNL     1       3.436 -12.000  -0.146  0.00  0.00    +0.002 A 
ATOM     11  C   UNL     1       3.090 -12.854  -1.177  0.00  0.00    +0.004 A 
ATOM     12  C   UNL     1       2.014 -12.558  -1.994  0.00  0.00    +0.047 A 
ATOM     13  C   UNL     1       1.276 -11.406  -1.778  0.00  0.00    +0.138 A 
BRANCH  13  14
ATOM     14  O   UNL     1       0.214 -11.117  -2.577  0.00  0.00    -0.505 OA
ATOM     15  H   UNL     1       0.441 -10.592  -3.357  0.00  0.00    +0.292 HD
ENDBRANCH  13  14
ENDBRANCH   5   8
ENDBRANCH   1   2
BRANCH   1  17
ATOM     16  N   UNL     1       0.056  -3.353   1.393  0.00  0.00    -0.254 N 
ATOM     17  C   UNL     1       0.070  -4.543   0.762  0.00  0.00    +0.233 C 
ATOM     18  O   UNL     1       0.066  -4.588  -0.450  0.00  0.00    -0.274 OA
ATOM     19  H   UNL     1       0.060  -3.317   2.362  0.00  0.00    +0.158 HD
BRANCH  16  24
ATOM     20  C   UNL     1      -0.018   1.503   0.010  0.00  0.00    +0.049 C 
ATOM     21  C   UNL     1       0.002  -0.004   0.002  0.00  0.00    +0.010 A 
ATOM     22  C   UNL     1       0.008  -0.804  -1.074  0.00  0.00    +0.109 A 
ATOM     23  O   UNL     1       0.028  -2.088  -0.680  0.00  0.00    -0.445 OA
ATOM     24  C   UNL     1       0.036  -2.180   0.657  0.00  0.00    +0.210 A 
ATOM     25  C   UNL     1       0.026  -0.894   1.173  0.00  0.00    +0.115 A 
ATOM     26  C   UNL     1      -0.006  -0.334  -2.506  0.00  0.00    +0.086 C 
BRANCH  25  27
ATOM     27  C   UNL     1       0.034  -0.513   2.554  0.00  0.00    +0.105 C 
ATOM     28  N   UNL     1       0.040  -0.211   3.648  0.00  0.00    -0.191 NA
ENDBRANCH  25  27
ENDBRANCH  16  24
ENDBRANCH   1  17
TORSDOF 6
