REMARK  Name = ZINC09052755
REMARK  4 active torsions:
REMARK  status: ('A' for Active; 'I' for Inactive)
REMARK    1  A    between atoms: C_8  and  C_10
REMARK    2  A    between atoms: C_15  and  C_16
REMARK    3  A    between atoms: C_15  and  N_55
REMARK    4  A    between atoms: N_18  and  N_19
REMARK                            x       y       z     vdW  Elec       q    Type
REMARK                         _______ _______ _______ _____ _____    ______ ____
ROOT
ATOM      1  C   UNL     1       0.342   4.092   2.873  0.00  0.00    +0.213 C 
ATOM      2  O   UNL     1      -0.459   5.001   2.923  0.00  0.00    -0.276 OA
ATOM      3  N   UNL     1       1.399   4.078   3.709  0.00  0.00    -0.225 N 
ATOM      4  H   UNL     1       2.039   3.351   3.669  0.00  0.00    +0.173 HD
ENDROOT
BRANCH   3   5
ATOM      5  N   UNL     1       1.571   5.113   4.637  0.00  0.00    -0.137 N 
ATOM      6  C   UNL     1       1.326   4.996   5.958  0.00  0.00    +0.263 C 
ATOM      7  O   UNL     1       0.928   4.014   6.547  0.00  0.00    -0.271 OA
ATOM      8  C   UNL     1       1.650   6.349   6.551  0.00  0.00    +0.114 C 
ATOM      9  C   UNL     1       2.780   6.226   7.568  0.00  0.00    +0.035 C 
ATOM     10  C   UNL     1       3.112   7.609   8.134  0.00  0.00    +0.003 C 
ATOM     11  C   UNL     1       1.867   8.199   8.799  0.00  0.00    +0.000 C 
ATOM     12  C   UNL     1       0.751   8.339   7.761  0.00  0.00    +0.003 C 
ATOM     13  C   UNL     1       0.409   6.959   7.192  0.00  0.00    +0.035 C 
ATOM     14  N   UNL     1       2.081   7.149   5.397  0.00  0.00    -0.284 N 
ATOM     15  C   UNL     1       2.006   6.340   4.323  0.00  0.00    +0.326 C 
ATOM     16  O   UNL     1       2.298   6.686   3.195  0.00  0.00    -0.251 OA
ATOM     17  H   UNL     1       2.366   8.076   5.407  0.00  0.00    +0.151 HD
ENDBRANCH   3   5
BRANCH   1  18
ATOM     18  C   UNL     1       0.156   2.978   1.875  0.00  0.00    +0.021 C 
BRANCH  18  23
ATOM     19  C   UNL     1      -1.241   2.185   0.057  0.00  0.00    -0.011 C 
ATOM     20  C   UNL     1      -1.322   2.901  -1.307  0.00  0.00    -0.010 C 
ATOM     21  C   UNL     1      -1.751   4.341  -0.920  0.00  0.00    -0.020 C 
ATOM     22  C   UNL     1      -1.000   4.542   0.420  0.00  0.00    -0.077 C 
ATOM     23  N   UNL     1      -1.078   3.226   1.085  0.00  0.00    +0.391 N 
ATOM     24  H   UNL     1      -1.888   3.211   1.715  0.00  0.00    -0.080 HD
BRANCH  19  32
ATOM     25  C   UNL     1       4.354  -0.399  -0.286  0.00  0.00    +0.002 A 
ATOM     26  C   UNL     1       3.874  -1.651   0.072  0.00  0.00    +0.001 A 
ATOM     27  C   UNL     1       2.525  -1.814   0.328  0.00  0.00    +0.017 A 
ATOM     28  C   UNL     1       1.684  -0.733   0.224  0.00  0.00    +0.039 A 
ATOM     29  C   UNL     1       2.145   0.554  -0.138  0.00  0.00    +0.078 A 
ATOM     30  C   UNL     1       3.529   0.678  -0.392  0.00  0.00    +0.029 A 
ATOM     31  N   UNL     1       1.182   1.498  -0.191  0.00  0.00    -0.246 NA
ATOM     32  C   UNL     1      -0.068   1.239   0.071  0.00  0.00    +0.066 A 
ATOM     33  S   UNL     1      -0.055  -0.456   0.447  0.00  0.00    -0.074 S 
ENDBRANCH  19  32
ENDBRANCH  18  23
ENDBRANCH   1  18
TORSDOF 4
