REMARK  Name = ZINC35354582
REMARK  7 active torsions:
REMARK  status: ('A' for Active; 'I' for Inactive)
REMARK    1  A    between atoms: C_1  and  C_2
REMARK    2  A    between atoms: C_4  and  C_20
REMARK    3  A    between atoms: C_6  and  N_8
REMARK    4  A    between atoms: N_8  and  S_9
REMARK    5  A    between atoms: S_9  and  C_12
REMARK    6  A    between atoms: C_17  and  N_18
REMARK    7  A    between atoms: N_18  and  N_19
REMARK                            x       y       z     vdW  Elec       q    Type
REMARK                         _______ _______ _______ _____ _____    ______ ____
ROOT
ATOM      1  S   UNL     1       1.290  -2.251   3.562  0.00  0.00    +0.074 S 
ATOM      2  O   UNL     1       0.887  -0.896   3.705  0.00  0.00    -0.150 OA
ATOM      3  O   UNL     1       1.337  -3.151   4.661  0.00  0.00    -0.150 OA
ENDROOT
BRANCH   1   4
ATOM      4  C   UNL     1       2.907  -2.224   2.864  0.00  0.00    +0.130 A 
ATOM      5  C   UNL     1       3.528  -1.018   2.604  0.00  0.00    +0.031 A 
ATOM      6  C   UNL     1       4.797  -0.996   2.055  0.00  0.00    +0.002 A 
ATOM      7  C   UNL     1       5.449  -2.180   1.764  0.00  0.00    +0.002 A 
ATOM      8  C   UNL     1       4.834  -3.390   2.022  0.00  0.00    +0.026 A 
ATOM      9  C   UNL     1       3.561  -3.416   2.578  0.00  0.00    +0.068 A 
BRANCH   9  10
ATOM     10  N   UNL     1       2.938  -4.637   2.844  0.00  0.00    -0.281 N 
ATOM     11  H   UNL     1       2.021  -4.655   3.160  0.00  0.00    +0.166 HD
BRANCH  10  12
ATOM     12  N   UNL     1       3.620  -5.806   2.659  0.00  0.00    -0.256 NA
ATOM     13  H   UNL     1       4.432  -5.849   3.256  0.00  0.00    +0.140 HD
ATOM     14  H   UNL     1       3.019  -6.603   2.808  0.00  0.00    +0.140 HD
ENDBRANCH  10  12
ENDBRANCH   9  10
ENDBRANCH   1   4
BRANCH   1  15
ATOM     15  N   UNL     1       0.281  -2.929   2.437  0.00  0.00    -0.216 N 
ATOM     16  H   UNL     1      -0.189  -3.752   2.641  0.00  0.00    +0.174 HD
BRANCH  15  22
ATOM     17  C   UNL     1      -0.511   1.146  -0.194  0.00  0.00    +0.044 C 
ATOM     18  C   UNL     1      -0.278  -0.341  -0.111  0.00  0.00    -0.048 A 
ATOM     19  C   UNL     1      -0.234  -1.099  -1.267  0.00  0.00    +0.006 A 
ATOM     20  C   UNL     1      -0.020  -2.463  -1.195  0.00  0.00    -0.048 A 
ATOM     21  C   UNL     1       0.151  -3.073   0.032  0.00  0.00    +0.028 A 
ATOM     22  C   UNL     1       0.108  -2.315   1.195  0.00  0.00    +0.049 A 
ATOM     23  C   UNL     1      -0.101  -0.944   1.119  0.00  0.00    +0.028 A 
ATOM     24  C   UNL     1       0.025  -3.285  -2.458  0.00  0.00    +0.044 C 
ENDBRANCH  15  22
ENDBRANCH   1  15
TORSDOF 5
