REMARK  Name = ZINC39676247
REMARK  4 active torsions:
REMARK  status: ('A' for Active; 'I' for Inactive)
REMARK    1  A    between atoms: C_11  and  C_13
REMARK    2  A    between atoms: C_13  and  N_14
REMARK    3  A    between atoms: C_15  and  C_17
REMARK    4  A    between atoms: C_28  and  C_30
REMARK                            x       y       z     vdW  Elec       q    Type
REMARK                         _______ _______ _______ _____ _____    ______ ____
ROOT
ATOM      1  C   UNL     1       8.420  -0.892  -0.088  0.00  0.00    +0.100 C 
ATOM      2  C   UNL     1       8.299   0.031   1.145  0.00  0.00    +0.121 C 
ATOM      3  N   UNL     1       9.212  -0.563   2.149  0.00  0.00    -0.295 N 
ATOM      4  C   UNL     1      10.390  -1.003   1.362  0.00  0.00    +0.115 C 
ATOM      5  C   UNL     1       9.794  -1.566   0.057  0.00  0.00    -0.004 C 
ATOM      6  C   UNL     1      10.686  -1.208  -1.128  0.00  0.00    -0.010 C 
ATOM      7  C   UNL     1      12.026  -1.936  -0.992  0.00  0.00    -0.082 C 
ATOM      8  N   UNL     1      11.796  -3.385  -0.948  0.00  0.00    +0.379 N 
ATOM      9  C   UNL     1      11.015  -3.732   0.246  0.00  0.00    -0.082 C 
ATOM     10  C   UNL     1       9.632  -3.080   0.162  0.00  0.00    -0.010 C 
ATOM     11  C   UNL     1       9.017  -0.678   3.478  0.00  0.00    +0.265 C 
ATOM     12  O   UNL     1       7.951  -0.358   3.965  0.00  0.00    -0.268 OA
ATOM     13  H   UNL     1      11.289  -3.669  -1.774  0.00  0.00    -0.086 HD
ATOM     14  H   UNL     1      12.683  -3.865  -0.920  0.00  0.00    -0.086 HD
ENDROOT
BRANCH  11  15
ATOM     15  C   UNL     1      10.102  -1.196   4.344  0.00  0.00    +0.126 A 
ATOM     16  C   UNL     1       9.857  -1.422   5.697  0.00  0.00    +0.033 A 
ATOM     17  C   UNL     1      10.882  -1.906   6.494  0.00  0.00    +0.004 A 
ATOM     18  C   UNL     1      12.116  -2.147   5.911  0.00  0.00    +0.020 A 
ATOM     19  C   UNL     1      12.288  -1.899   4.559  0.00  0.00    +0.111 A 
ATOM     20  N   UNL     1      11.297  -1.445   3.824  0.00  0.00    -0.250 NA
ENDBRANCH  11  15
BRANCH   1  22
ATOM     21  N   UNL     1       6.842  -2.410  -1.240  0.00  0.00    -0.308 N 
ATOM     22  C   UNL     1       7.324  -1.927  -0.077  0.00  0.00    +0.219 C 
ATOM     23  O   UNL     1       6.877  -2.325   0.977  0.00  0.00    -0.275 OA
ATOM     24  H   UNL     1       7.200  -2.091  -2.083  0.00  0.00    +0.149 HD
BRANCH  21  25
ATOM     25  C   UNL     1       5.777  -3.416  -1.229  0.00  0.00    +0.178 C 
BRANCH  25  36
ATOM     26  C   UNL     1       5.200  -4.113  -7.556  0.00  0.00    +0.001 A 
ATOM     27  C   UNL     1       6.183  -3.176  -7.260  0.00  0.00    +0.002 A 
ATOM     28  C   UNL     1       6.485  -2.859  -5.955  0.00  0.00    +0.028 A 
ATOM     29  C   UNL     1       5.796  -3.485  -4.914  0.00  0.00    +0.078 A 
ATOM     30  C   UNL     1       4.797  -4.436  -5.218  0.00  0.00    +0.065 A 
ATOM     31  C   UNL     1       4.507  -4.743  -6.546  0.00  0.00    +0.015 A 
ATOM     32  C   UNL     1       4.091  -5.077  -4.099  0.00  0.00    +0.259 A 
ATOM     33  O   UNL     1       3.220  -5.905  -4.292  0.00  0.00    -0.267 OA
ATOM     34  N   UNL     1       4.447  -4.711  -2.846  0.00  0.00    -0.309 N 
ATOM     35  H   UNL     1       4.003  -5.113  -2.083  0.00  0.00    +0.170 HD
ATOM     36  C   UNL     1       5.421  -3.785  -2.646  0.00  0.00    +0.128 A 
ATOM     37  N   UNL     1       6.062  -3.203  -3.614  0.00  0.00    -0.232 NA
ENDBRANCH  25  36
ENDBRANCH  21  25
ENDBRANCH   1  22
TORSDOF 4
