REMARK  Name = ZINC08876396
REMARK  11 active torsions:
REMARK  status: ('A' for Active; 'I' for Inactive)
REMARK    1  A    between atoms: CD1_1  and  CG_2
REMARK    2  A    between atoms: CG_2  and  CD2_3
REMARK    3  A    between atoms: CG_2  and  CB_4
REMARK    4  A    between atoms: CB_4  and  CA_5
REMARK    5  A    between atoms: CA_5  and  C_7
REMARK    6  A    between atoms: CA_5  and  N_20
REMARK    7  A    between atoms: N_9  and  CA_10
REMARK    8  A    between atoms: CA_10  and  C_12
REMARK    9  A    between atoms: CA_10  and  C_18
REMARK   10  A    between atoms: C_21  and  C_23
REMARK   11  A    between atoms: C_23  and  N_24
REMARK                            x       y       z     vdW  Elec       q    Type
REMARK                         _______ _______ _______ _____ _____    ______ ____
ROOT
ATOM      1  CA  UNL     1       6.699   5.587  -3.084  0.00  0.00    +0.159 C 
ENDROOT
BRANCH   1   2
ATOM      2  C   UNL     1       8.184   5.837  -3.143  0.00  0.00    +0.234 C 
ATOM      3  O   UNL     1       8.847   5.791  -2.128  0.00  0.00    -0.274 OA
ATOM      4  N   UNL     1       8.776   6.112  -4.322  0.00  0.00    -0.297 N 
ATOM      5  H   UNL     1       8.245   6.148  -5.133  0.00  0.00    +0.150 HD
BRANCH   4   6
ATOM      6  CA  UNL     1      10.219   6.355  -4.379  0.00  0.00    +0.217 C 
BRANCH   6   7
ATOM      7  C   UNL     1      10.539   7.204  -5.582  0.00  0.00    -0.016 A 
ATOM      8  C   UNL     1       9.890   6.975  -6.781  0.00  0.00    +0.006 A 
ATOM      9  C   UNL     1      10.180   7.757  -7.884  0.00  0.00    +0.000 A 
ATOM     10  C   UNL     1      11.126   8.761  -7.790  0.00  0.00    +0.000 A 
ATOM     11  C   UNL     1      11.778   8.986  -6.592  0.00  0.00    +0.000 A 
ATOM     12  C   UNL     1      11.485   8.207  -5.488  0.00  0.00    +0.006 A 
ENDBRANCH   6   7
BRANCH   6  13
ATOM     13  C   UNL     1      10.946   5.039  -4.485  0.00  0.00    +0.380 C 
ATOM     14  O   UNL     1      10.323   4.004  -4.511  0.00  0.00    -0.244 OA
ATOM     15  OXT UNL     1      12.287   5.016  -4.551  0.00  0.00    -0.244 OA
ENDBRANCH   6  13
ENDBRANCH   4   6
ENDBRANCH   1   2
BRANCH   1  16
ATOM     16  N   UNL     1       6.304   5.314  -1.700  0.00  0.00    -0.303 N 
ATOM     17  C   UNL     1       5.196   4.590  -1.446  0.00  0.00    +0.234 C 
ATOM     18  O   UNL     1       4.526   4.165  -2.364  0.00  0.00    -0.274 OA
ATOM     19  H   UNL     1       6.840   5.653  -0.967  0.00  0.00    +0.150 HD
BRANCH  17  20
ATOM     20  C   UNL     1       4.789   4.308  -0.023  0.00  0.00    +0.225 C 
BRANCH  20  21
ATOM     21  N   UNL     1       3.561   3.510  -0.014  0.00  0.00    -0.252 N 
ATOM     22  C   UNL     1       3.648   2.162  -0.023  0.00  0.00    +0.265 A 
ATOM     23  O   UNL     1       4.729   1.606  -0.037  0.00  0.00    -0.267 OA
ATOM     24  C   UNL     1       2.397   1.382  -0.014  0.00  0.00    +0.063 A 
ATOM     25  C   UNL     1       2.402  -0.011  -0.022  0.00  0.00    +0.015 A 
ATOM     26  C   UNL     1       1.204  -0.695  -0.014  0.00  0.00    +0.001 A 
ATOM     27  C   UNL     1       0.002  -0.004   0.002  0.00  0.00    +0.002 A 
ATOM     28  C   UNL     1      -0.017   1.376   0.010  0.00  0.00    +0.026 A 
ATOM     29  C   UNL     1       1.177   2.081   0.002  0.00  0.00    +0.056 A 
ATOM     30  N   UNL     1       1.203   3.468   0.009  0.00  0.00    -0.307 N 
ATOM     31  H   UNL     1       0.369   3.964   0.020  0.00  0.00    +0.170 HD
ATOM     32  C   UNL     1       2.372   4.132   0.001  0.00  0.00    +0.330 A 
ATOM     33  O   UNL     1       2.351   5.347   0.007  0.00  0.00    -0.246 OA
ENDBRANCH  20  21
ENDBRANCH  17  20
ENDBRANCH   1  16
BRANCH   1  34
ATOM     34  CB  UNL     1       5.954   6.823  -3.593  0.00  0.00    +0.034 C 
BRANCH  34  36
ATOM     35  CD1 UNL     1       3.697   7.797  -4.040  0.00  0.00    +0.007 C 
ATOM     36  CG  UNL     1       4.454   6.525  -3.651  0.00  0.00    -0.015 C 
ATOM     37  CD2 UNL     1       4.191   5.436  -4.693  0.00  0.00    +0.007 C 
ENDBRANCH  34  36
ENDBRANCH   1  34
TORSDOF 9
