REMARK  Name = ZINC64951530
REMARK  6 active torsions:
REMARK  status: ('A' for Active; 'I' for Inactive)
REMARK    1  A    between atoms: C_1  and  C_2
REMARK    2  A    between atoms: C_2  and  C_3
REMARK    3  A    between atoms: C_2  and  C_4
REMARK    4  A    between atoms: C_7  and  C_10
REMARK    5  A    between atoms: C_12  and  C_16
REMARK    6  A    between atoms: C_19  and  C_22
REMARK                            x       y       z     vdW  Elec       q    Type
REMARK                         _______ _______ _______ _____ _____    ______ ____
ROOT
ATOM      1  C   UNL     1      -5.401  -1.997   0.043  0.00  0.00    +0.091 C 
ATOM      2  C   UNL     1      -5.937  -2.785  -0.910  0.00  0.00    +0.037 C 
ATOM      3  C   UNL     1      -7.358  -3.020  -0.430  0.00  0.00    +0.215 C 
ATOM      4  N   UNL     1      -7.416  -2.263   0.831  0.00  0.00    -0.174 NA
ATOM      5  N   UNL     1      -6.314  -1.743   1.017  0.00  0.00    -0.154 NA
ENDROOT
BRANCH   1   9
ATOM      6  C   UNL     1      -1.412  -0.526   0.013  0.00  0.00    -0.045 A 
ATOM      7  C   UNL     1      -2.257  -0.202   1.058  0.00  0.00    +0.004 A 
ATOM      8  C   UNL     1      -3.553  -0.677   1.073  0.00  0.00    +0.010 A 
ATOM      9  C   UNL     1      -4.009  -1.483   0.032  0.00  0.00    +0.002 A 
ATOM     10  C   UNL     1      -3.153  -1.806  -1.019  0.00  0.00    +0.010 A 
ATOM     11  C   UNL     1      -1.861  -1.321  -1.026  0.00  0.00    +0.004 A 
BRANCH   6  13
ATOM     12  C   UNL     1      -0.019   1.526   0.010  0.00  0.00    +0.012 C 
ATOM     13  C   UNL     1       0.002  -0.004   0.002  0.00  0.00    +0.013 C 
ATOM     14  C   UNL     1       0.742  -0.511   1.242  0.00  0.00    +0.012 C 
ENDBRANCH   6  13
ENDBRANCH   1   9
BRANCH   3  15
ATOM     15  C   UNL     1      -8.367  -2.471  -1.441  0.00  0.00    +0.322 C 
ATOM     16  N   UNL     1      -9.739  -2.630  -0.935  0.00  0.00    -0.287 N 
ATOM     17  C   UNL     1     -10.403  -3.448  -1.831  0.00  0.00    +0.168 C 
ATOM     18  N   UNL     1      -9.628  -3.804  -2.803  0.00  0.00    -0.067 NA
ATOM     19  O   UNL     1      -8.335  -3.243  -2.651  0.00  0.00    -0.367 OA
ATOM     20  H   UNL     1     -10.108  -2.238  -0.128  0.00  0.00    +0.151 HD
BRANCH  17  21
ATOM     21  C   UNL     1     -11.818  -3.863  -1.695  0.00  0.00    +0.018 A 
ATOM     22  C   UNL     1     -12.576  -3.422  -0.611  0.00  0.00    +0.012 A 
ATOM     23  C   UNL     1     -13.893  -3.812  -0.489  0.00  0.00    +0.016 A 
ATOM     24  C   UNL     1     -14.463  -4.640  -1.441  0.00  0.00    +0.018 A 
ATOM     25  C   UNL     1     -13.716  -5.081  -2.519  0.00  0.00    +0.016 A 
ATOM     26  C   UNL     1     -12.399  -4.693  -2.655  0.00  0.00    +0.012 A 
ATOM     27 BR   UNL     1     -16.270  -5.171  -1.266  0.00  0.00    -0.050 Br
ENDBRANCH  17  21
ENDBRANCH   3  15
TORSDOF 4
