REMARK  Name = ZINC02264822
REMARK  11 active torsions:
REMARK  status: ('A' for Active; 'I' for Inactive)
REMARK    1  A    between atoms: C_1  and  C_2
REMARK    2  A    between atoms: C_2  and  C_3
REMARK    3  A    between atoms: C_3  and  C_4
REMARK    4  A    between atoms: C_3  and  C_6
REMARK    5  A    between atoms: C_4  and  C_5
REMARK    6  A    between atoms: C_6  and  O_7
REMARK    7  A    between atoms: O_7  and  C_8
REMARK    8  A    between atoms: C_8  and  C_10
REMARK    9  A    between atoms: N_21  and  C_24
REMARK   10  A    between atoms: C_22  and  N_23
REMARK   11  A    between atoms: C_24  and  C_25
REMARK                            x       y       z     vdW  Elec       q    Type
REMARK                         _______ _______ _______ _____ _____    ______ ____
ROOT
ATOM      1  C   UNL     1      -0.206  -2.525   0.661  0.00  0.00    +0.126 A 
ATOM      2  C   UNL     1      -1.628  -2.594   0.283  0.00  0.00    +0.124 A 
ATOM      3  C   UNL     1      -2.029  -1.208   0.028  0.00  0.00    +0.162 A 
ATOM      4  N   UNL     1      -3.268  -0.950  -0.334  0.00  0.00    -0.226 NA
ATOM      5  C   UNL     1      -4.147  -1.952  -0.467  0.00  0.00    +0.092 A 
ATOM      6  C   UNL     1      -5.473  -1.684  -0.854  0.00  0.00    +0.030 A 
ATOM      7  C   UNL     1      -6.359  -2.708  -0.986  0.00  0.00    +0.002 A 
ATOM      8  C   UNL     1      -5.974  -4.025  -0.742  0.00  0.00    +0.002 A 
ATOM      9  C   UNL     1      -4.702  -4.323  -0.365  0.00  0.00    +0.030 A 
ATOM     10  C   UNL     1      -3.756  -3.291  -0.219  0.00  0.00    +0.090 A 
ATOM     11  N   UNL     1      -2.501  -3.572   0.151  0.00  0.00    -0.241 NA
ATOM     12  N   UNL     1      -0.918  -0.420   0.245  0.00  0.00    -0.308 N 
ATOM     13  C   UNL     1       0.150  -1.180   0.609  0.00  0.00    +0.114 A 
ENDROOT
BRANCH  13  14
ATOM     14  N   UNL     1       1.399  -0.691   0.887  0.00  0.00    -0.344 N 
ATOM     15  H   UNL     1       1.570   0.262   0.831  0.00  0.00    +0.144 HD
ATOM     16  H   UNL     1       2.112  -1.298   1.140  0.00  0.00    +0.144 HD
ENDBRANCH  13  14
BRANCH   1  17
ATOM     17  C   UNL     1       0.634  -3.612   1.003  0.00  0.00    +0.345 C 
ATOM     18  O   UNL     1       1.269  -4.186   0.138  0.00  0.00    -0.245 OA
BRANCH  17  19
ATOM     19  O   UNL     1       0.731  -4.011   2.289  0.00  0.00    -0.461 OA
BRANCH  19  20
ATOM     20  C   UNL     1       1.597  -5.114   2.562  0.00  0.00    +0.236 C 
BRANCH  20  21
ATOM     21  C   UNL     1       1.577  -5.419   4.061  0.00  0.00    +0.026 C 
BRANCH  21  23
ATOM     22  C   UNL     1       2.252  -7.070   5.811  0.00  0.00    +0.004 C 
ATOM     23  C   UNL     1       2.375  -6.696   4.333  0.00  0.00    +0.003 C 
ENDBRANCH  21  23
BRANCH  21  24
ATOM     24  C   UNL     1       2.204  -4.253   4.828  0.00  0.00    +0.003 C 
ATOM     25  C   UNL     1       1.318  -3.014   4.686  0.00  0.00    +0.004 C 
ENDBRANCH  21  24
ENDBRANCH  20  21
ENDBRANCH  19  20
ENDBRANCH  17  19
ENDBRANCH   1  17
BRANCH  12  26
ATOM     26  C   UNL     1      -0.890   1.038   0.098  0.00  0.00    +0.152 C 
BRANCH  26  27
ATOM     27  C   UNL     1      -1.250   1.682   1.412  0.00  0.00    -0.013 C 
ATOM     28  C   UNL     1      -0.441   2.557   1.956  0.00  0.00    +0.005 C 
ENDBRANCH  26  27
ENDBRANCH  12  26
TORSDOF 9
