REMARK  Name = ZINC01118271
REMARK  10 active torsions:
REMARK  status: ('A' for Active; 'I' for Inactive)
REMARK    1  A    between atoms: C_1  and  C_2
REMARK    2  A    between atoms: C_4  and  C_30
REMARK    3  A    between atoms: C_5  and  S_9
REMARK    4  A    between atoms: C_6  and  C_8
REMARK    5  A    between atoms: S_9  and  N_12
REMARK    6  A    between atoms: C_15  and  C_18
REMARK    7  A    between atoms: N_20  and  N_21
REMARK    8  A    between atoms: N_21  and  C_22
REMARK    9  A    between atoms: C_22  and  N_24
REMARK   10  A    between atoms: N_24  and  C_25
REMARK                            x       y       z     vdW  Elec       q    Type
REMARK                         _______ _______ _______ _____ _____    ______ ____
ROOT
ATOM      1  N   UNL     1      -2.825   4.128  -2.247  0.00  0.00    -0.177 NA
ATOM      2  C   UNL     1      -2.262   5.289  -2.949  0.00  0.00    +0.110 C 
ATOM      3  C   UNL     1      -3.349   5.922  -3.816  0.00  0.00    +0.030 C 
ATOM      4  C   UNL     1      -3.946   4.857  -4.739  0.00  0.00    +0.079 C 
ATOM      5  C   UNL     1      -4.581   3.748  -3.898  0.00  0.00    +0.030 C 
ATOM      6  C   UNL     1      -3.502   3.088  -3.033  0.00  0.00    +0.110 C 
ENDROOT
BRANCH   4   7
ATOM      7  C   UNL     1      -4.997   5.487  -5.617  0.00  0.00    +0.232 C 
ATOM      8  O   UNL     1      -6.141   5.087  -5.574  0.00  0.00    -0.274 OA
ATOM      9  N   UNL     1      -4.665   6.493  -6.449  0.00  0.00    -0.235 N 
ATOM     10  H   UNL     1      -3.750   6.813  -6.484  0.00  0.00    +0.173 HD
BRANCH   9  11
ATOM     11  N   UNL     1      -5.643   7.078  -7.265  0.00  0.00    -0.246 N 
ATOM     12  H   UNL     1      -6.558   6.759  -7.231  0.00  0.00    +0.172 HD
BRANCH  11  13
ATOM     13  C   UNL     1      -5.311   8.085  -8.098  0.00  0.00    +0.147 C 
ATOM     14  S   UNL     1      -6.506   8.800  -9.095  0.00  0.00    -0.017 S 
BRANCH  13  15
ATOM     15  N   UNL     1      -4.040   8.529  -8.146  0.00  0.00    -0.323 N 
ATOM     16  H   UNL     1      -3.363   8.124  -7.581  0.00  0.00    +0.148 HD
BRANCH  15  17
ATOM     17  C   UNL     1      -3.680   9.623  -9.050  0.00  0.00    +0.072 C 
ATOM     18  C   UNL     1      -3.305   9.061 -10.437  0.00  0.00    +0.022 C 
ATOM     19  C   UNL     1      -2.141   9.965 -10.912  0.00  0.00    +0.002 C 
ATOM     20  C   UNL     1      -1.346  10.213  -9.607  0.00  0.00    +0.002 C 
ATOM     21  C   UNL     1      -2.434  10.356  -8.522  0.00  0.00    +0.022 C 
ENDBRANCH  15  17
ENDBRANCH  13  15
ENDBRANCH  11  13
ENDBRANCH   9  11
ENDBRANCH   4   7
BRANCH   1  22
ATOM     22  S   UNL     1      -2.704   3.996  -0.601  0.00  0.00    +0.061 S 
ATOM     23  O   UNL     1      -3.765   3.150  -0.182  0.00  0.00    -0.153 OA
ATOM     24  O   UNL     1      -2.538   5.316  -0.100  0.00  0.00    -0.153 OA
BRANCH  22  29
ATOM     25  C   UNL     1       2.425   1.044   0.579  0.00  0.00    +0.044 C 
ATOM     26  C   UNL     1       1.144   1.782   0.285  0.00  0.00    -0.050 A 
ATOM     27  C   UNL     1      -0.055   1.094   0.239  0.00  0.00    +0.008 A 
ATOM     28  C   UNL     1      -1.229   1.770  -0.036  0.00  0.00    -0.024 A 
ATOM     29  C   UNL     1      -1.206   3.134  -0.256  0.00  0.00    +0.111 A 
ATOM     30  C   UNL     1      -0.008   3.822  -0.209  0.00  0.00    -0.024 A 
ATOM     31  C   UNL     1       1.167   3.146   0.061  0.00  0.00    +0.008 A 
ATOM     32  C   UNL     1       0.018   5.309  -0.453  0.00  0.00    +0.046 C 
ATOM     33  C   UNL     1      -2.535   1.019  -0.092  0.00  0.00    +0.046 C 
ENDBRANCH  22  29
ENDBRANCH   1  22
TORSDOF 7
