REMARK  Name = ZINC63515555
REMARK  6 active torsions:
REMARK  status: ('A' for Active; 'I' for Inactive)
REMARK    1  A    between atoms: C_1  and  C_2
REMARK    2  A    between atoms: C_7  and  C_31
REMARK    3  A    between atoms: C_9  and  C_12
REMARK    4  A    between atoms: C_12  and  C_13
REMARK    5  A    between atoms: C_13  and  N_14
REMARK    6  A    between atoms: C_15  and  C_17
REMARK                            x       y       z     vdW  Elec       q    Type
REMARK                         _______ _______ _______ _____ _____    ______ ____
ROOT
ATOM      1  N   UNL     1       0.039  -1.037   5.336  0.00  0.00    -0.314 N 
ATOM      2  C   UNL     1       0.025   0.229   5.798  0.00  0.00    +0.227 C 
ATOM      3  O   UNL     1       0.010   1.159   5.019  0.00  0.00    -0.275 OA
ATOM      4  H   UNL     1       0.051  -1.780   5.959  0.00  0.00    +0.149 HD
ENDROOT
BRANCH   2   5
ATOM      5  C   UNL     1       0.028   0.490   7.282  0.00  0.00    +0.188 C 
ATOM      6  C   UNL     1       0.032   1.999   7.545  0.00  0.00    +0.063 C 
ATOM      7  C   UNL     1       1.406   2.561   7.281  0.00  0.00    -0.001 A 
ATOM      8  C   UNL     1       1.530   3.921   7.045  0.00  0.00    +0.027 A 
ATOM      9  C   UNL     1       2.771   4.479   6.805  0.00  0.00    +0.043 A 
ATOM     10  C   UNL     1       3.900   3.679   6.800  0.00  0.00    +0.043 A 
ATOM     11  C   UNL     1       3.783   2.323   7.033  0.00  0.00    +0.085 A 
ATOM     12  C   UNL     1       2.533   1.759   7.271  0.00  0.00    +0.153 A 
ATOM     13  O   UNL     1       2.460   0.415   7.476  0.00  0.00    -0.424 OA
ATOM     14  C   UNL     1       1.283  -0.088   7.904  0.00  0.00    +0.325 C 
ATOM     15  O   UNL     1       1.232  -0.956   8.743  0.00  0.00    -0.250 OA
ATOM     16 CL   UNL     1       5.199   1.319   7.028  0.00  0.00    -0.080 Cl
ATOM     17 CL   UNL     1       2.913   6.184   6.510  0.00  0.00    -0.083 Cl
ENDBRANCH   2   5
BRANCH   1  18
ATOM     18  C   UNL     1       0.037  -1.291   3.893  0.00  0.00    +0.108 C 
BRANCH  18  19
ATOM     19  C   UNL     1       0.055  -2.799   3.641  0.00  0.00    +0.052 C 
BRANCH  19  27
ATOM     20  C   UNL     1      -0.018   1.503   0.010  0.00  0.00    +0.044 C 
ATOM     21  C   UNL     1       0.002  -0.004   0.002  0.00  0.00    -0.050 A 
ATOM     22  C   UNL     1       0.005  -0.680  -1.226  0.00  0.00    +0.005 A 
ATOM     23  C   UNL     1       0.023  -2.026  -1.317  0.00  0.00    +0.026 A 
ATOM     24  C   UNL     1       0.039  -2.826  -0.141  0.00  0.00    +0.043 A 
ATOM     25  N   UNL     1       0.057  -4.126   0.030  0.00  0.00    -0.378 N 
ATOM     26  C   UNL     1       0.067  -4.408   1.470  0.00  0.00    +0.103 C 
ATOM     27  C   UNL     1       0.052  -3.060   2.156  0.00  0.00    -0.037 C 
ATOM     28  C   UNL     1       0.036  -2.137   1.168  0.00  0.00    -0.001 A 
ATOM     29  C   UNL     1       0.022  -0.669   1.180  0.00  0.00    +0.013 A 
ATOM     30  C   UNL     1      -1.175  -5.213   1.858  0.00  0.00    +0.035 C 
ATOM     31  H   UNL     1       0.062  -4.790  -0.677  0.00  0.00    +0.160 HD
ENDBRANCH  19  27
ENDBRANCH  18  19
ENDBRANCH   1  18
TORSDOF 4
