REMARK  Name = ZINC67542120
REMARK  4 active torsions:
REMARK  status: ('A' for Active; 'I' for Inactive)
REMARK    1  A    between atoms: C_1  and  C_2
REMARK    2  A    between atoms: C_5  and  C_8
REMARK    3  A    between atoms: C_13  and  C_14
REMARK    4  A    between atoms: C_25  and  C_27
REMARK                            x       y       z     vdW  Elec       q    Type
REMARK                         _______ _______ _______ _____ _____    ______ ____
ROOT
ATOM      1  C   UNL     1       2.069  -4.807   1.366  0.00  0.00    +0.055 C 
ATOM      2  C   UNL     1       1.710  -5.149   2.814  0.00  0.00    +0.013 C 
ATOM      3  C   UNL     1       2.685  -4.448   3.762  0.00  0.00    +0.020 C 
ATOM      4  C   UNL     1       4.107  -4.947   3.486  0.00  0.00    +0.106 C 
ATOM      5  N   UNL     1       4.407  -4.754   2.060  0.00  0.00    -0.315 N 
ATOM      6  C   UNL     1       3.484  -5.310   1.062  0.00  0.00    +0.116 C 
ATOM      7  C   UNL     1       5.544  -4.059   1.664  0.00  0.00    +0.123 A 
ATOM      8  C   UNL     1       6.519  -3.737   2.607  0.00  0.00    +0.044 A 
ATOM      9  C   UNL     1       7.647  -3.046   2.205  0.00  0.00    +0.006 A 
ATOM     10  C   UNL     1       7.770  -2.694   0.868  0.00  0.00    +0.039 A 
ATOM     11  C   UNL     1       6.759  -3.046  -0.023  0.00  0.00    +0.142 A 
ATOM     12  N   UNL     1       5.690  -3.716   0.397  0.00  0.00    -0.222 NA
ENDROOT
BRANCH   1  18
ATOM     13  C   UNL     1       0.267  -4.841  -0.455  0.00  0.00    +0.023 A 
ATOM     14  C   UNL     1      -0.476  -5.833  -1.124  0.00  0.00    +0.143 A 
ATOM     15  N   UNL     1      -0.117  -6.997  -0.652  0.00  0.00    -0.181 NA
ATOM     16  N   UNL     1       0.861  -6.796   0.330  0.00  0.00    -0.281 N 
ATOM     17  H   UNL     1       1.303  -7.491   0.843  0.00  0.00    +0.189 HD
ATOM     18  C   UNL     1       1.088  -5.471   0.434  0.00  0.00    +0.048 A 
BRANCH  13  23
ATOM     19  C   UNL     1      -0.081   0.842  -1.327  0.00  0.00    +0.044 C 
ATOM     20  C   UNL     1       0.010  -0.645  -1.099  0.00  0.00    -0.050 A 
ATOM     21  C   UNL     1       0.163  -1.499  -2.176  0.00  0.00    +0.004 A 
ATOM     22  C   UNL     1       0.247  -2.862  -1.972  0.00  0.00    +0.009 A 
ATOM     23  C   UNL     1       0.177  -3.376  -0.679  0.00  0.00    -0.015 A 
ATOM     24  C   UNL     1       0.023  -2.511   0.401  0.00  0.00    +0.009 A 
ATOM     25  C   UNL     1      -0.054  -1.150   0.187  0.00  0.00    +0.004 A 
ENDBRANCH  13  23
ENDBRANCH   1  18
BRANCH  11  26
ATOM     26  C   UNL     1       6.875  -2.688  -1.404  0.00  0.00    +0.119 C 
ATOM     27  N   UNL     1       6.967  -2.404  -2.500  0.00  0.00    -0.189 NA
ENDBRANCH  11  26
TORSDOF 3
