REMARK  Name = ZINC00056292
REMARK  2 active torsions:
REMARK  status: ('A' for Active; 'I' for Inactive)
REMARK    1  A    between atoms: C_8  and  C_15
REMARK    2  A    between atoms: C_18  and  C_21
REMARK                            x       y       z     vdW  Elec       q    Type
REMARK                         _______ _______ _______ _____ _____    ______ ____
ROOT
ATOM      1  C   UNL     1       0.002  -0.004   0.002  0.00  0.00    +0.000 A 
ATOM      2  C   UNL     1       1.203  -0.689  -0.020  0.00  0.00    +0.002 A 
ATOM      3  C   UNL     1       2.397   0.009  -0.063  0.00  0.00    +0.026 A 
ATOM      4  C   UNL     1       2.376   1.390  -0.070  0.00  0.00    +0.048 A 
ATOM      5  C   UNL     1       1.171   2.082   0.002  0.00  0.00    -0.041 A 
ATOM      6  C   UNL     1      -0.017   1.379   0.010  0.00  0.00    +0.004 A 
ATOM      7  C   UNL     1       1.197   3.573   0.148  0.00  0.00    -0.043 C 
ATOM      8  C   UNL     1       2.432   3.627  -1.933  0.00  0.00    +0.008 C 
ATOM      9  C   UNL     1       3.586   3.217  -1.063  0.00  0.00    +0.014 A 
ATOM     10  N   UNL     1       3.546   2.159  -0.194  0.00  0.00    -0.321 N 
ATOM     11  C   UNL     1       4.739   2.047   0.434  0.00  0.00    +0.091 A 
ATOM     12  C   UNL     1       5.543   3.032  -0.027  0.00  0.00    +0.020 A 
ATOM     13  C   UNL     1       4.806   3.773  -0.977  0.00  0.00    +0.022 A 
ATOM     14  N   UNL     1       1.384   4.291  -1.129  0.00  0.00    +0.390 N 
ATOM     15  H   UNL     1       1.666   5.259  -0.936  0.00  0.00    -0.084 HD
ATOM     16  H   UNL     1       0.501   4.289  -1.653  0.00  0.00    -0.084 HD
ENDROOT
BRANCH   8  17
ATOM     17  C   UNL     1       2.921   4.581  -2.991  0.00  0.00    -0.056 A 
ATOM     18  C   UNL     1       3.114   5.915  -2.680  0.00  0.00    +0.003 A 
ATOM     19  C   UNL     1       3.566   6.793  -3.643  0.00  0.00    +0.015 A 
ATOM     20  C   UNL     1       3.819   6.335  -4.937  0.00  0.00    +0.063 A 
ATOM     21  C   UNL     1       3.618   4.988  -5.246  0.00  0.00    +0.015 A 
ATOM     22  C   UNL     1       3.171   4.120  -4.272  0.00  0.00    +0.003 A 
BRANCH  20  23
ATOM     23  C   UNL     1       4.298   7.271  -5.976  0.00  0.00    +0.387 C 
ATOM     24  O   UNL     1       4.517   6.869  -7.101  0.00  0.00    -0.241 OA
ATOM     25  O   UNL     1       4.491   8.569  -5.674  0.00  0.00    -0.241 OA
ENDBRANCH  20  23
ENDBRANCH   8  17
TORSDOF 2
