REMARK  Name = ZINC39887779
REMARK  5 active torsions:
REMARK  status: ('A' for Active; 'I' for Inactive)
REMARK    1  A    between atoms: C_4  and  C_7
REMARK    2  A    between atoms: C_8  and  C_18
REMARK    3  A    between atoms: N_10  and  C_12
REMARK    4  A    between atoms: C_23  and  C_37
REMARK    5  A    between atoms: N_25  and  C_26
REMARK                            x       y       z     vdW  Elec       q    Type
REMARK                         _______ _______ _______ _____ _____    ______ ____
ROOT
ATOM      1  C   UNL     1       3.097  -2.509   1.427  0.00  0.00    +0.201 C 
ATOM      2  N   UNL     1       2.097  -1.528   1.850  0.00  0.00    -0.288 N 
ATOM      3  C   UNL     1       2.181  -0.940   3.060  0.00  0.00    +0.258 C 
ATOM      4  O   UNL     1       1.369  -0.094   3.388  0.00  0.00    -0.269 OA
ATOM      5  C   UNL     1       3.256  -1.325   3.979  0.00  0.00    +0.142 C 
ATOM      6  C   UNL     1       3.967  -2.507   3.712  0.00  0.00    +0.103 C 
ATOM      7  N   UNL     1       3.614  -3.225   2.598  0.00  0.00    -0.269 N 
ATOM      8  S   UNL     1       5.267  -3.046   4.772  0.00  0.00    -0.033 SA
ATOM      9  H   UNL     1       1.366  -1.299   1.255  0.00  0.00    +0.151 HD
ENDROOT
BRANCH   7  10
ATOM     10  C   UNL     1       3.747  -4.614   2.580  0.00  0.00    +0.044 A 
ATOM     11  C   UNL     1       4.893  -5.197   2.084  0.00  0.00    +0.024 A 
ATOM     12  C   UNL     1       5.035  -6.581   2.061  0.00  0.00    +0.002 A 
ATOM     13  C   UNL     1       4.049  -7.396   2.527  0.00  0.00    +0.008 A 
ATOM     14  C   UNL     1       2.865  -6.842   3.041  0.00  0.00    -0.016 A 
ATOM     15  C   UNL     1       2.710  -5.434   3.075  0.00  0.00    +0.004 A 
ATOM     16  C   UNL     1       1.529  -4.882   3.593  0.00  0.00    +0.010 A 
ATOM     17  C   UNL     1       0.549  -5.704   4.061  0.00  0.00    +0.001 A 
ATOM     18  C   UNL     1       0.702  -7.089   4.034  0.00  0.00    +0.001 A 
ATOM     19  C   UNL     1       1.830  -7.660   3.528  0.00  0.00    +0.008 A 
ENDBRANCH   7  10
BRANCH   1  21
ATOM     20  C   UNL     1       4.273  -1.440  -0.629  0.00  0.00    +0.100 A 
ATOM     21  C   UNL     1       4.231  -1.801   0.732  0.00  0.00    +0.037 A 
ATOM     22  C   UNL     1       5.387  -1.400   1.303  0.00  0.00    +0.122 A 
ATOM     23  N   UNL     1       6.142  -0.803   0.343  0.00  0.00    -0.239 N 
ATOM     24  N   UNL     1       5.425  -0.846  -0.859  0.00  0.00    -0.166 NA
BRANCH  20  28
ATOM     25  C   UNL     1       1.218  -2.159  -3.499  0.00  0.00    +0.000 A 
ATOM     26  C   UNL     1       1.859  -0.933  -3.468  0.00  0.00    +0.001 A 
ATOM     27  C   UNL     1       2.851  -0.695  -2.538  0.00  0.00    +0.010 A 
ATOM     28  C   UNL     1       3.206  -1.690  -1.631  0.00  0.00    +0.002 A 
ATOM     29  C   UNL     1       2.557  -2.923  -1.667  0.00  0.00    +0.010 A 
ATOM     30  C   UNL     1       1.566  -3.151  -2.600  0.00  0.00    +0.001 A 
ENDBRANCH  20  28
BRANCH  23  31
ATOM     31  C   UNL     1       7.415  -0.248   0.524  0.00  0.00    +0.065 A 
ATOM     32  C   UNL     1       8.020  -0.284   1.773  0.00  0.00    +0.028 A 
ATOM     33  C   UNL     1       9.275   0.263   1.948  0.00  0.00    +0.002 A 
ATOM     34  C   UNL     1       9.931   0.848   0.880  0.00  0.00    +0.000 A 
ATOM     35  C   UNL     1       9.332   0.885  -0.366  0.00  0.00    +0.002 A 
ATOM     36  C   UNL     1       8.079   0.333  -0.548  0.00  0.00    +0.028 A 
ENDBRANCH  23  31
ENDBRANCH   1  21
BRANCH   5  37
ATOM     37  C   UNL     1       3.573  -0.517   5.118  0.00  0.00    +0.107 C 
ATOM     38  N   UNL     1       3.824   0.123   6.022  0.00  0.00    -0.191 NA
ENDBRANCH   5  37
TORSDOF 5
