REMARK  Name = ZINC13758064
REMARK  4 active torsions:
REMARK  status: ('A' for Active; 'I' for Inactive)
REMARK    1  A    between atoms: C_6  and  C_7
REMARK    2  A    between atoms: C_15  and  O_32
REMARK    3  A    between atoms: C_19  and  C_21
REMARK    4  A    between atoms: C_22  and  C_23
REMARK                            x       y       z     vdW  Elec       q    Type
REMARK                         _______ _______ _______ _____ _____    ______ ____
ROOT
ATOM      1  C   UNL     1       2.851  -0.455  -2.553  0.00  0.00    +0.112 C 
ATOM      2  C   UNL     1       2.271   0.212  -1.301  0.00  0.00    +0.046 C 
ATOM      3  C   UNL     1       0.783  -0.129  -1.194  0.00  0.00    +0.008 C 
ATOM      4  C   UNL     1       0.191   0.543   0.046  0.00  0.00    +0.001 C 
ATOM      5  C   UNL     1       0.358   2.059  -0.069  0.00  0.00    +0.003 C 
ATOM      6  C   UNL     1       1.845   2.401  -0.171  0.00  0.00    +0.035 C 
ATOM      7  C   UNL     1       2.442   1.729  -1.410  0.00  0.00    +0.072 C 
ATOM      8  C   UNL     1       3.932   2.072  -1.500  0.00  0.00    +0.054 C 
ATOM      9  C   UNL     1       4.526   1.427  -2.755  0.00  0.00    +0.111 C 
ATOM     10  N   UNL     1       4.242  -0.015  -2.724  0.00  0.00    -0.290 N 
ATOM     11  C   UNL     1       5.237  -0.915  -2.851  0.00  0.00    +0.240 C 
ATOM     12  O   UNL     1       5.002  -2.103  -2.729  0.00  0.00    -0.271 OA
ENDROOT
BRANCH   1  18
ATOM     13  C   UNL     1       0.714  -0.426  -3.855  0.00  0.00    +0.008 A 
ATOM     14  C   UNL     1      -0.031  -0.055  -4.959  0.00  0.00    +0.038 A 
ATOM     15  C   UNL     1       0.557   0.682  -5.973  0.00  0.00    +0.123 A 
ATOM     16  C   UNL     1       1.888   1.050  -5.878  0.00  0.00    +0.038 A 
ATOM     17  C   UNL     1       2.629   0.682  -4.771  0.00  0.00    +0.008 A 
ATOM     18  C   UNL     1       2.042  -0.054  -3.759  0.00  0.00    -0.026 A 
ATOM     19  F   UNL     1      -0.169   1.042  -7.054  0.00  0.00    -0.205 F 
ENDBRANCH   1  18
BRANCH  11  20
ATOM     20  C   UNL     1       6.599  -0.464  -3.135  0.00  0.00    +0.068 C 
ATOM     21  C   UNL     1       7.575  -1.368  -3.362  0.00  0.00    +0.013 C 
BRANCH  21  22
ATOM     22  C   UNL     1       8.944  -0.914  -3.647  0.00  0.00    -0.021 A 
ATOM     23  C   UNL     1       9.238   0.454  -3.685  0.00  0.00    +0.012 A 
ATOM     24  C   UNL     1      10.521   0.875  -3.953  0.00  0.00    +0.050 A 
ATOM     25  C   UNL     1      11.528  -0.053  -4.186  0.00  0.00    +0.166 A 
ATOM     26  C   UNL     1      11.243  -1.419  -4.150  0.00  0.00    +0.167 A 
ATOM     27  C   UNL     1       9.960  -1.849  -3.877  0.00  0.00    +0.057 A 
ATOM     28  O   UNL     1      12.392  -2.110  -4.409  0.00  0.00    -0.453 OA
ATOM     29  C   UNL     1      13.461  -1.169  -4.199  0.00  0.00    +0.466 C 
ATOM     30  O   UNL     1      12.853   0.108  -4.468  0.00  0.00    -0.453 OA
ENDBRANCH  21  22
ENDBRANCH  11  20
BRANCH   7  31
ATOM     31  O   UNL     1       1.770   2.202  -2.579  0.00  0.00    -0.388 OA
ATOM     32  H   UNL     1       1.837   3.157  -2.712  0.00  0.00    +0.210 HD
ENDBRANCH   7  31
TORSDOF 4
