REMARK  Name = ZINC12868902
REMARK  7 active torsions:
REMARK  status: ('A' for Active; 'I' for Inactive)
REMARK    1  A    between atoms: C_1  and  C_2
REMARK    2  A    between atoms: C_5  and  S_8
REMARK    3  A    between atoms: S_8  and  N_11
REMARK    4  A    between atoms: C_14  and  C_17
REMARK    5  A    between atoms: N_19  and  N_20
REMARK    6  A    between atoms: C_21  and  C_23
REMARK    7  A    between atoms: C_30  and  C_33
REMARK                            x       y       z     vdW  Elec       q    Type
REMARK                         _______ _______ _______ _____ _____    ______ ____
ROOT
ATOM      1  C   UNL     1       1.401   1.607  -0.003  0.00  0.00    +0.232 C 
ATOM      2  O   UNL     1       1.780   2.315  -0.912  0.00  0.00    -0.274 OA
ATOM      3  N   UNL     1       2.245   1.287   0.998  0.00  0.00    -0.234 N 
ATOM      4  H   UNL     1       1.942   0.722   1.726  0.00  0.00    +0.173 HD
ENDROOT
BRANCH   1   8
ATOM      5  N   UNL     1      -2.826   1.380   0.037  0.00  0.00    -0.177 NA
ATOM      6  C   UNL     1      -2.178   1.033  -1.236  0.00  0.00    +0.110 C 
ATOM      7  C   UNL     1      -0.752   1.593  -1.232  0.00  0.00    +0.030 C 
ATOM      8  C   UNL     1      -0.013   1.086   0.008  0.00  0.00    +0.079 C 
ATOM      9  C   UNL     1      -0.729   1.579   1.268  0.00  0.00    +0.030 C 
ATOM     10  C   UNL     1      -2.154   1.019   1.293  0.00  0.00    +0.110 C 
BRANCH   5  11
ATOM     11  S   UNL     1      -4.285   2.163   0.055  0.00  0.00    +0.061 S 
ATOM     12  O   UNL     1      -4.370   2.834   1.305  0.00  0.00    -0.153 OA
ATOM     13  O   UNL     1      -4.395   2.847  -1.186  0.00  0.00    -0.153 OA
BRANCH  11  18
ATOM     14  C   UNL     1      -8.582  -2.073   0.075  0.00  0.00    +0.044 C 
ATOM     15  C   UNL     1      -7.509  -1.015   0.070  0.00  0.00    -0.050 A 
ATOM     16  C   UNL     1      -7.004  -0.536   1.265  0.00  0.00    +0.005 A 
ATOM     17  C   UNL     1      -6.020   0.434   1.260  0.00  0.00    +0.029 A 
ATOM     18  C   UNL     1      -5.540   0.926   0.061  0.00  0.00    +0.105 A 
ATOM     19  C   UNL     1      -6.047   0.451  -1.134  0.00  0.00    +0.029 A 
ATOM     20  C   UNL     1      -7.029  -0.523  -1.129  0.00  0.00    +0.005 A 
ENDBRANCH  11  18
ENDBRANCH   5  11
ENDBRANCH   1   8
BRANCH   3  21
ATOM     21  N   UNL     1       3.559   1.772   0.989  0.00  0.00    -0.230 N 
ATOM     22  C   UNL     1       4.403   1.452   1.990  0.00  0.00    +0.267 C 
ATOM     23  O   UNL     1       4.023   0.742   2.902  0.00  0.00    -0.268 OA
ATOM     24  H   UNL     1       3.862   2.338   0.261  0.00  0.00    +0.173 HD
BRANCH  22  25
ATOM     25  C   UNL     1       5.778   1.959   1.979  0.00  0.00    +0.076 A 
ATOM     26  C   UNL     1       6.791   1.752   2.898  0.00  0.00    +0.024 A 
ATOM     27  C   UNL     1       8.020   2.347   2.662  0.00  0.00    -0.036 A 
ATOM     28  C   UNL     1       8.132   3.099   1.527  0.00  0.00    -0.006 A 
ATOM     29  S   UNL     1       6.586   2.998   0.773  0.00  0.00    -0.088 S 
ATOM     30  C   UNL     1       9.343   3.838   1.049  0.00  0.00    +0.043 C 
ATOM     31  C   UNL     1      10.562   3.328   1.832  0.00  0.00    +0.009 C 
ATOM     32  C   UNL     1      10.215   3.305   3.323  0.00  0.00    -0.009 C 
ATOM     33  C   UNL     1       9.208   2.190   3.607  0.00  0.00    +0.039 C 
ATOM     34  C   UNL     1      11.487   3.061   4.137  0.00  0.00    +0.008 C 
ENDBRANCH  22  25
ENDBRANCH   3  21
TORSDOF 5
