REMARK  Name = ZINC18198261
REMARK  9 active torsions:
REMARK  status: ('A' for Active; 'I' for Inactive)
REMARK    1  A    between atoms: C_1  and  O_2
REMARK    2  A    between atoms: O_2  and  C_3
REMARK    3  A    between atoms: C_5  and  C_13
REMARK    4  A    between atoms: C_7  and  O_11
REMARK    5  A    between atoms: C_8  and  O_9
REMARK    6  A    between atoms: O_9  and  C_10
REMARK    7  A    between atoms: O_11  and  C_12
REMARK    8  A    between atoms: C_18  and  C_26
REMARK    9  A    between atoms: C_29  and  C_32
REMARK                            x       y       z     vdW  Elec       q    Type
REMARK                         _______ _______ _______ _____ _____    ______ ____
ROOT
ATOM      1  C   UNL     1       2.043  10.321   3.693  0.00  0.00    +0.032 C 
ATOM      2  C   UNL     1       2.482  11.169   2.498  0.00  0.00    +0.060 C 
ATOM      3  C   UNL     1       1.804  10.669   1.243  0.00  0.00    +0.020 C 
ATOM      4  C   UNL     1       0.578  10.107   1.294  0.00  0.00    +0.041 C 
ATOM      5  C   UNL     1      -0.128   9.603   0.055  0.00  0.00    +0.175 C 
ATOM      6  N   UNL     1       0.542  10.102  -1.139  0.00  0.00    -0.221 N 
ATOM      7  C   UNL     1       1.775  10.666  -1.122  0.00  0.00    +0.218 A 
ATOM      8  N   UNL     1       2.085  10.995  -2.346  0.00  0.00    -0.201 NA
ATOM      9  C   UNL     1       1.081  10.666  -3.165  0.00  0.00    +0.247 A 
ATOM     10  N   UNL     1       0.117  10.118  -2.467  0.00  0.00    -0.156 NA
ATOM     11  N   UNL     1       2.484  10.817   0.058  0.00  0.00    -0.287 N 
ATOM     12  C   UNL     1      -0.101   9.966   2.518  0.00  0.00    +0.164 C 
ATOM     13  O   UNL     1      -1.212   9.473   2.529  0.00  0.00    -0.292 OA
ATOM     14  C   UNL     1       0.518  10.411   3.814  0.00  0.00    +0.088 C 
ATOM     15  H   UNL     1       3.433  11.021   0.049  0.00  0.00    +0.155 HD
ENDROOT
BRANCH   1  18
ATOM     16  C   UNL     1       4.087  10.500   6.866  0.00  0.00    +0.165 A 
ATOM     17  C   UNL     1       3.495  10.021   5.708  0.00  0.00    +0.053 A 
ATOM     18  C   UNL     1       2.684  10.846   4.952  0.00  0.00    -0.036 A 
ATOM     19  C   UNL     1       2.464  12.153   5.344  0.00  0.00    +0.053 A 
ATOM     20  C   UNL     1       3.047  12.639   6.504  0.00  0.00    +0.165 A 
ATOM     21  C   UNL     1       3.864  11.812   7.267  0.00  0.00    +0.204 A 
BRANCH  16  23
ATOM     22  C   UNL     1       5.071   8.352   7.137  0.00  0.00    +0.277 C 
ATOM     23  O   UNL     1       4.886   9.688   7.609  0.00  0.00    -0.491 OA
ENDBRANCH  16  23
BRANCH  21  24
ATOM     24  O   UNL     1       4.443  12.287   8.404  0.00  0.00    -0.488 OA
ATOM     25  C   UNL     1       5.731  12.891   8.272  0.00  0.00    +0.277 C 
ENDBRANCH  21  24
BRANCH  20  26
ATOM     26  O   UNL     1       2.826  13.923   6.892  0.00  0.00    -0.491 OA
ATOM     27  C   UNL     1       1.976  14.715   6.060  0.00  0.00    +0.277 C 
ENDBRANCH  20  26
ENDBRANCH   1  18
BRANCH   5  28
ATOM     28  C   UNL     1      -0.108   8.096   0.046  0.00  0.00    -0.018 A 
ATOM     29  C   UNL     1      -1.298   7.391   0.053  0.00  0.00    +0.006 A 
ATOM     30  C   UNL     1      -1.285   6.011   0.045  0.00  0.00    +0.009 A 
ATOM     31  C   UNL     1      -0.070   5.328   0.030  0.00  0.00    -0.018 A 
ATOM     32  C   UNL     1       1.125   6.043   0.029  0.00  0.00    +0.009 A 
ATOM     33  C   UNL     1       1.101   7.423   0.032  0.00  0.00    +0.006 A 
BRANCH  31  34
ATOM     34  C   UNL     1      -0.050   3.844   0.022  0.00  0.00    -0.018 A 
ATOM     35  C   UNL     1       1.164   3.161   0.007  0.00  0.00    +0.008 A 
ATOM     36  C   UNL     1       1.177   1.781   0.000  0.00  0.00    +0.001 A 
ATOM     37  C   UNL     1      -0.013   1.076   0.008  0.00  0.00    +0.000 A 
ATOM     38  C   UNL     1      -1.221   1.748   0.017  0.00  0.00    +0.001 A 
ATOM     39  C   UNL     1      -1.246   3.128   0.030  0.00  0.00    +0.008 A 
ENDBRANCH  31  34
ENDBRANCH   5  28
TORSDOF 6
