REMARK  Name = ZINC04068271
REMARK  11 active torsions:
REMARK  status: ('A' for Active; 'I' for Inactive)
REMARK    1  A    between atoms: C_1  and  C_2
REMARK    2  A    between atoms: C_2  and  O_3
REMARK    3  A    between atoms: O_3  and  C_4
REMARK    4  A    between atoms: C_6  and  C_11
REMARK    5  A    between atoms: C_9  and  O_10
REMARK    6  A    between atoms: C_16  and  C_21
REMARK    7  A    between atoms: C_28  and  C_40
REMARK    8  A    between atoms: C_29  and  C_30
REMARK    9  A    between atoms: C_30  and  O_32
REMARK   10  A    between atoms: O_32  and  C_33
REMARK   11  A    between atoms: C_33  and  C_34
REMARK                            x       y       z     vdW  Elec       q    Type
REMARK                         _______ _______ _______ _____ _____    ______ ____
ROOT
ATOM      1  C   UNL     1      -0.701   2.192   3.649  0.00  0.00    +0.092 C 
ATOM      2  C   UNL     1      -2.010   2.870   3.334  0.00  0.00    +0.024 C 
ATOM      3  C   UNL     1      -2.621   2.672   2.146  0.00  0.00    +0.016 C 
ATOM      4  C   UNL     1      -3.937   3.338   1.828  0.00  0.00    +0.059 C 
ATOM      5  C   UNL     1      -4.021   4.682   2.554  0.00  0.00    +0.032 C 
ATOM      6  C   UNL     1      -3.871   4.433   4.058  0.00  0.00    +0.088 C 
ATOM      7  C   UNL     1      -2.575   3.712   4.308  0.00  0.00    +0.162 C 
ATOM      8  O   UNL     1      -2.004   3.861   5.371  0.00  0.00    -0.292 OA
ATOM      9  N   UNL     1      -2.051   1.868   1.198  0.00  0.00    -0.321 N 
ATOM     10  C   UNL     1      -0.722   1.557   1.252  0.00  0.00    +0.016 C 
ATOM     11  C   UNL     1      -0.034   1.701   2.398  0.00  0.00    +0.065 C 
ATOM     12  C   UNL     1      -0.020   1.054   0.016  0.00  0.00    +0.061 C 
ATOM     13  H   UNL     1      -2.665   1.463   0.380  0.00  0.00    +0.152 HD
ENDROOT
BRANCH   1  16
ATOM     14  C   UNL     1      -0.626  -0.078   6.668  0.00  0.00    +0.162 A 
ATOM     15  C   UNL     1      -0.387   0.995   5.824  0.00  0.00    +0.054 A 
ATOM     16  C   UNL     1      -0.957   1.023   4.564  0.00  0.00    -0.032 A 
ATOM     17  C   UNL     1      -1.757  -0.022   4.141  0.00  0.00    +0.008 A 
ATOM     18  C   UNL     1      -1.994  -1.098   4.976  0.00  0.00    +0.049 A 
ATOM     19  C   UNL     1      -1.430  -1.130   6.242  0.00  0.00    +0.158 A 
BRANCH  19  20
ATOM     20  O   UNL     1      -1.663  -2.187   7.065  0.00  0.00    -0.503 OA
ATOM     21  H   UNL     1      -2.299  -3.018   6.726  0.00  0.00    +0.292 HD
ENDBRANCH  19  20
BRANCH  14  22
ATOM     22  O   UNL     1      -0.070  -0.105   7.909  0.00  0.00    -0.489 OA
BRANCH  22  24
ATOM     23  C   UNL     1       1.278   0.802   9.698  0.00  0.00    +0.048 C 
ATOM     24  C   UNL     1       0.745   1.010   8.279  0.00  0.00    +0.226 C 
ENDBRANCH  22  24
ENDBRANCH  14  22
ENDBRANCH   1  16
BRANCH   5  25
ATOM     25  C   UNL     1      -5.357   5.324   2.278  0.00  0.00    -0.044 A 
ATOM     26  C   UNL     1      -6.524   4.665   2.618  0.00  0.00    +0.004 A 
ATOM     27  C   UNL     1      -7.748   5.255   2.369  0.00  0.00    +0.000 A 
ATOM     28  C   UNL     1      -7.807   6.500   1.770  0.00  0.00    +0.000 A 
ATOM     29  C   UNL     1      -6.640   7.157   1.426  0.00  0.00    +0.000 A 
ATOM     30  C   UNL     1      -5.415   6.568   1.679  0.00  0.00    +0.004 A 
ENDBRANCH   5  25
BRANCH  11  31
ATOM     31  C   UNL     1       1.345   1.385   2.424  0.00  0.00    +0.338 C 
ATOM     32  O   UNL     1       1.921   1.088   1.395  0.00  0.00    -0.245 OA
BRANCH  31  33
ATOM     33  O   UNL     1       2.021   1.414   3.592  0.00  0.00    -0.457 OA
BRANCH  33  34
ATOM     34  C   UNL     1       3.410   1.083   3.545  0.00  0.00    +0.268 C 
BRANCH  34  35
ATOM     35  C   UNL     1       3.994   1.168   4.931  0.00  0.00    -0.010 A 
ATOM     36  C   UNL     1       4.535   2.358   5.383  0.00  0.00    +0.007 A 
ATOM     37  C   UNL     1       5.065   2.437   6.657  0.00  0.00    +0.000 A 
ATOM     38  C   UNL     1       5.065   1.323   7.476  0.00  0.00    +0.000 A 
ATOM     39  C   UNL     1       4.530   0.132   7.022  0.00  0.00    +0.000 A 
ATOM     40  C   UNL     1       3.994   0.054   5.750  0.00  0.00    +0.007 A 
ENDBRANCH  34  35
ENDBRANCH  33  34
ENDBRANCH  31  33
ENDBRANCH  11  31
TORSDOF 9
