REMARK  Name = ZINC03899519
REMARK  10 active torsions:
REMARK  status: ('A' for Active; 'I' for Inactive)
REMARK    1  A    between atoms: C_1  and  C_2
REMARK    2  A    between atoms: C_2  and  C_3
REMARK    3  A    between atoms: C_3  and  C_4
REMARK    4  A    between atoms: C_11  and  N_27
REMARK    5  A    between atoms: C_12  and  C_25
REMARK    6  A    between atoms: C_13  and  C_15
REMARK    7  A    between atoms: C_19  and  O_23
REMARK    8  A    between atoms: C_20  and  O_21
REMARK    9  A    between atoms: O_21  and  C_22
REMARK   10  A    between atoms: O_23  and  C_24
REMARK                            x       y       z     vdW  Elec       q    Type
REMARK                         _______ _______ _______ _____ _____    ______ ____
ROOT
ATOM      1  C   UNL     1       0.739  -2.004  -1.265  0.00  0.00    +0.044 A 
ATOM      2  C   UNL     1      -0.234  -2.807  -1.723  0.00  0.00    +0.049 A 
ATOM      3  C   UNL     1       0.183  -4.145  -1.549  0.00  0.00    +0.245 A 
ATOM      4  N   UNL     1       1.365  -4.131  -1.004  0.00  0.00    -0.135 NA
ATOM      5  N   UNL     1       1.744  -2.792  -0.818  0.00  0.00    -0.278 N 
ATOM      6  H   UNL     1       2.580  -2.485  -0.433  0.00  0.00    +0.189 HD
ATOM      7  O   UNL     1      -0.594  -5.197  -1.923  0.00  0.00    -0.421 OA
ATOM      8  C   UNL     1      -1.655  -4.935  -2.712  0.00  0.00    +0.201 C 
ATOM      9  C   UNL     1      -2.151  -3.701  -2.942  0.00  0.00    +0.098 C 
ATOM     10  C   UNL     1      -1.567  -2.453  -2.330  0.00  0.00    +0.105 C 
ENDROOT
BRANCH  10  11
ATOM     11  C   UNL     1      -2.491  -1.931  -1.260  0.00  0.00    +0.011 A 
ATOM     12  C   UNL     1      -2.817  -2.728  -0.179  0.00  0.00    +0.008 A 
ATOM     13  C   UNL     1      -3.665  -2.252   0.804  0.00  0.00    +0.004 A 
ATOM     14  C   UNL     1      -4.190  -0.977   0.710  0.00  0.00    +0.049 A 
ATOM     15  C   UNL     1      -3.868  -0.173  -0.371  0.00  0.00    +0.162 A 
ATOM     16  C   UNL     1      -3.009  -0.649  -1.357  0.00  0.00    +0.166 A 
BRANCH  16  17
ATOM     17  O   UNL     1      -2.685   0.138  -2.417  0.00  0.00    -0.491 OA
ATOM     18  C   UNL     1      -3.531   0.060  -3.566  0.00  0.00    +0.277 C 
ENDBRANCH  16  17
BRANCH  15  19
ATOM     19  O   UNL     1      -4.383   1.082  -0.465  0.00  0.00    -0.491 OA
ATOM     20  C   UNL     1      -5.252   1.507   0.588  0.00  0.00    +0.277 C 
ENDBRANCH  15  19
ENDBRANCH  10  11
BRANCH   8  21
ATOM     21  N   UNL     1      -2.275  -5.997  -3.322  0.00  0.00    -0.328 N 
ATOM     22  H   UNL     1      -1.945  -6.898  -3.180  0.00  0.00    +0.145 HD
ATOM     23  H   UNL     1      -3.042  -5.846  -3.897  0.00  0.00    +0.145 HD
ENDBRANCH   8  21
BRANCH   9  24
ATOM     24  C   UNL     1      -3.284  -3.572  -3.808  0.00  0.00    +0.101 C 
ATOM     25  N   UNL     1      -4.183  -3.469  -4.495  0.00  0.00    -0.191 NA
ENDBRANCH   9  24
BRANCH   1  26
ATOM     26  C   UNL     1       0.718  -0.497  -1.257  0.00  0.00    +0.055 C 
BRANCH  26  28
ATOM     27  C   UNL     1      -0.019   1.526   0.010  0.00  0.00    +0.004 C 
ATOM     28  C   UNL     1       0.002  -0.004   0.002  0.00  0.00    +0.003 C 
ENDBRANCH  26  28
ENDBRANCH   1  26
TORSDOF 7
