REMARK  Name = ZINC15730946
REMARK  8 active torsions:
REMARK  status: ('A' for Active; 'I' for Inactive)
REMARK    1  A    between atoms: C_1  and  C_2
REMARK    2  A    between atoms: C_5  and  C_8
REMARK    3  A    between atoms: C_8  and  N_63
REMARK    4  A    between atoms: C_11  and  C_14
REMARK    5  A    between atoms: C_14  and  N_15
REMARK    6  A    between atoms: N_15  and  S_16
REMARK    7  A    between atoms: S_16  and  C_19
REMARK    8  A    between atoms: C_29  and  C_32
REMARK                            x       y       z     vdW  Elec       q    Type
REMARK                         _______ _______ _______ _____ _____    ______ ____
ROOT
ATOM      1  N   UNL     1       1.205  -2.926  -1.610  0.00  0.00    -0.190 NA
ATOM      2  H   UNL     1       0.444  -3.410  -1.965  0.00  0.00    +0.148 HD
ENDROOT
BRANCH   1   3
ATOM      3  S   UNL     1       1.216  -2.446  -0.025  0.00  0.00    +0.058 S 
ATOM      4  O   UNL     1       2.469  -2.849   0.512  0.00  0.00    -0.153 OA
ATOM      5  O   UNL     1      -0.021  -2.864   0.534  0.00  0.00    -0.153 OA
BRANCH   3   6
ATOM      6  C   UNL     1       1.206  -0.685  -0.013  0.00  0.00    +0.107 A 
ATOM      7  C   UNL     1       0.002  -0.004   0.002  0.00  0.00    +0.030 A 
ATOM      8  C   UNL     1      -0.017   1.379   0.010  0.00  0.00    +0.018 A 
ATOM      9  C   UNL     1       1.178   2.080   0.002  0.00  0.00    +0.029 A 
ATOM     10  C   UNL     1       2.391   1.396  -0.011  0.00  0.00    +0.049 A 
ATOM     11  C   UNL     1       2.402   0.011  -0.020  0.00  0.00    +0.053 A 
ATOM     12  N   UNL     1       3.593   2.121  -0.014  0.00  0.00    -0.284 N 
ATOM     13  C   UNL     1       3.798   3.092   0.884  0.00  0.00    +0.218 C 
ATOM     14  O   UNL     1       4.748   3.835   0.750  0.00  0.00    -0.275 OA
ATOM     15  C   UNL     1       2.877   3.279   2.053  0.00  0.00    +0.110 C 
ATOM     16  C   UNL     1       1.744   4.255   1.693  0.00  0.00    +0.057 C 
ATOM     17  S   UNL     1       1.185   3.844   0.006  0.00  0.00    -0.120 S 
ATOM     18  C   UNL     1       2.264   5.694   1.733  0.00  0.00    +0.020 C 
ATOM     19  H   UNL     1       4.277   1.918  -0.671  0.00  0.00    +0.155 HD
ENDBRANCH   3   6
ENDBRANCH   1   3
BRANCH   1  20
ATOM     20  C   UNL     1       2.346  -2.618  -2.477  0.00  0.00    +0.109 C 
BRANCH  20  23
ATOM     21  C   UNL     1       3.339  -3.953  -5.948  0.00  0.00    -0.078 C 
ATOM     22  C   UNL     1       3.386  -3.059  -4.707  0.00  0.00    -0.014 C 
ATOM     23  C   UNL     1       2.266  -3.468  -3.746  0.00  0.00    +0.001 C 
ATOM     24  C   UNL     1       2.431  -4.946  -3.382  0.00  0.00    -0.014 C 
ATOM     25  C   UNL     1       2.412  -5.786  -4.662  0.00  0.00    -0.078 C 
ATOM     26  N   UNL     1       3.528  -5.360  -5.533  0.00  0.00    +0.382 N 
ATOM     27  H   UNL     1       4.407  -5.437  -5.009  0.00  0.00    -0.081 HD
BRANCH  26  28
ATOM     28  C   UNL     1       3.600  -6.232  -6.723  0.00  0.00    -0.043 C 
BRANCH  28  33
ATOM     29  C   UNL     1       5.168 -11.537  -5.052  0.00  0.00    +0.044 C 
ATOM     30  C   UNL     1       4.759 -10.153  -5.488  0.00  0.00    -0.050 A 
ATOM     31  C   UNL     1       3.420  -9.819  -5.560  0.00  0.00    +0.003 A 
ATOM     32  C   UNL     1       3.045  -8.550  -5.960  0.00  0.00    +0.002 A 
ATOM     33  C   UNL     1       4.009  -7.615  -6.287  0.00  0.00    -0.064 A 
ATOM     34  C   UNL     1       5.348  -7.951  -6.219  0.00  0.00    +0.002 A 
ATOM     35  C   UNL     1       5.724  -9.218  -5.815  0.00  0.00    +0.003 A 
ENDBRANCH  28  33
ENDBRANCH  26  28
ENDBRANCH  20  23
ENDBRANCH   1  20
TORSDOF 6
