REMARK  Name = ZINC39696206
REMARK  10 active torsions:
REMARK  status: ('A' for Active; 'I' for Inactive)
REMARK    1  A    between atoms: C_1  and  C_2
REMARK    2  A    between atoms: C_2  and  C_3
REMARK    3  A    between atoms: C_6  and  C_9
REMARK    4  A    between atoms: C_9  and  C_11
REMARK    5  A    between atoms: C_9  and  N_12
REMARK    6  A    between atoms: C_13  and  C_15
REMARK    7  A    between atoms: C_26  and  C_28
REMARK    8  A    between atoms: C_30  and  C_35
REMARK    9  A    between atoms: N_32  and  C_33
REMARK   10  A    between atoms: C_33  and  C_34
REMARK                            x       y       z     vdW  Elec       q    Type
REMARK                         _______ _______ _______ _____ _____    ______ ____
ROOT
ATOM      1  C   UNL     1      -6.628  -4.878  -2.051  0.00  0.00    +0.100 C 
ATOM      2  C   UNL     1      -6.935  -4.157  -3.382  0.00  0.00    +0.121 C 
ATOM      3  N   UNL     1      -7.826  -5.088  -4.115  0.00  0.00    -0.295 N 
ATOM      4  C   UNL     1      -8.719  -5.643  -3.070  0.00  0.00    +0.115 C 
ATOM      5  C   UNL     1      -7.801  -5.852  -1.849  0.00  0.00    -0.004 C 
ATOM      6  C   UNL     1      -8.551  -5.517  -0.563  0.00  0.00    -0.010 C 
ATOM      7  C   UNL     1      -9.677  -6.534  -0.354  0.00  0.00    -0.082 C 
ATOM      8  N   UNL     1      -9.109  -7.886  -0.275  0.00  0.00    +0.379 N 
ATOM      9  C   UNL     1      -8.470  -8.235  -1.550  0.00  0.00    -0.082 C 
ATOM     10  C   UNL     1      -7.294  -7.290  -1.810  0.00  0.00    -0.010 C 
ATOM     11  C   UNL     1      -7.824  -5.367  -5.434  0.00  0.00    +0.266 C 
ATOM     12  O   UNL     1      -8.685  -6.086  -5.905  0.00  0.00    -0.268 OA
ATOM     13  H   UNL     1      -8.423  -7.918   0.464  0.00  0.00    -0.086 HD
ATOM     14  H   UNL     1      -9.845  -8.547  -0.077  0.00  0.00    -0.086 HD
ENDROOT
BRANCH  11  15
ATOM     15  C   UNL     1      -6.782  -4.801  -6.304  0.00  0.00    +0.138 A 
ATOM     16  C   UNL     1      -6.891  -3.684  -7.115  0.00  0.00    +0.071 A 
ATOM     17  C   UNL     1      -5.646  -3.554  -7.736  0.00  0.00    +0.075 A 
ATOM     18  N   UNL     1      -4.881  -4.526  -7.309  0.00  0.00    -0.175 NA
ATOM     19  N   UNL     1      -5.508  -5.269  -6.469  0.00  0.00    -0.258 N 
ATOM     20  C   UNL     1      -5.253  -2.484  -8.721  0.00  0.00    +0.069 C 
ATOM     21 BR   UNL     1      -8.404  -2.571  -7.336  0.00  0.00    -0.046 Br
BRANCH  19  22
ATOM     22  C   UNL     1      -4.945  -6.441  -5.795  0.00  0.00    +0.141 C 
ATOM     23  C   UNL     1      -5.086  -7.667  -6.699  0.00  0.00    +0.029 C 
ENDBRANCH  19  22
ENDBRANCH  11  15
BRANCH   1  25
ATOM     24  N   UNL     1      -5.775  -4.123   0.145  0.00  0.00    -0.308 N 
ATOM     25  C   UNL     1      -6.569  -3.886  -0.918  0.00  0.00    +0.219 C 
ATOM     26  O   UNL     1      -7.236  -2.874  -0.963  0.00  0.00    -0.275 OA
ATOM     27  H   UNL     1      -5.300  -4.966   0.217  0.00  0.00    +0.149 HD
BRANCH  24  28
ATOM     28  C   UNL     1      -5.630  -3.108   1.191  0.00  0.00    +0.100 C 
ATOM     29  C   UNL     1      -4.543  -2.111   0.787  0.00  0.00    +0.033 C 
BRANCH  28  33
ATOM     30  C   UNL     1      -4.537  -4.998   4.863  0.00  0.00    -0.048 A 
ATOM     31  C   UNL     1      -5.443  -3.954   4.866  0.00  0.00    +0.004 A 
ATOM     32  C   UNL     1      -5.797  -3.343   3.678  0.00  0.00    +0.006 A 
ATOM     33  C   UNL     1      -5.244  -3.775   2.487  0.00  0.00    -0.027 A 
ATOM     34  C   UNL     1      -4.336  -4.817   2.484  0.00  0.00    +0.006 A 
ATOM     35  C   UNL     1      -3.979  -5.426   3.673  0.00  0.00    +0.004 A 
BRANCH  30  37
ATOM     36  C   UNL     1      -2.943  -4.947   6.762  0.00  0.00    +0.009 C 
ATOM     37  C   UNL     1      -4.151  -5.665   6.158  0.00  0.00    +0.032 C 
ENDBRANCH  30  37
ENDBRANCH  28  33
ENDBRANCH  24  28
ENDBRANCH   1  25
TORSDOF 6
