REMARK  Name = ZINC51827400
REMARK  11 active torsions:
REMARK  status: ('A' for Active; 'I' for Inactive)
REMARK    1  A    between atoms: C_1  and  N_2
REMARK    2  A    between atoms: N_2  and  C_3
REMARK    3  A    between atoms: N_2  and  C_24
REMARK    4  A    between atoms: C_3  and  C_4
REMARK    5  A    between atoms: C_4  and  C_6
REMARK    6  A    between atoms: C_4  and  O_23
REMARK    7  A    between atoms: C_6  and  O_7
REMARK    8  A    between atoms: O_7  and  C_8
REMARK    9  A    between atoms: C_8  and  C_9
REMARK   10  A    between atoms: C_8  and  C_16
REMARK   11  A    between atoms: C_24  and  C_25
REMARK                            x       y       z     vdW  Elec       q    Type
REMARK                         _______ _______ _______ _____ _____    ______ ____
ROOT
ATOM      1  O   UNL     1       4.285  -0.030   2.279  0.00  0.00    -0.365 OA
ENDROOT
BRANCH   1   2
ATOM      2  C   UNL     1       2.920  -0.441   2.374  0.00  0.00    +0.190 C 
BRANCH   2   3
ATOM      3  C   UNL     1       2.126   0.157   1.211  0.00  0.00    +0.124 C 
BRANCH   3   4
ATOM      4  O   UNL     1       2.102   1.580   1.332  0.00  0.00    -0.391 OA
ATOM      5  H   UNL     1       1.694   1.899   2.149  0.00  0.00    +0.210 HD
ENDBRANCH   3   4
BRANCH   3   6
ATOM      6  C   UNL     1       0.694  -0.382   1.242  0.00  0.00    -0.045 C 
BRANCH   6   8
ATOM      7  C   UNL     1      -1.449  -0.287   0.167  0.00  0.00    -0.095 C 
ATOM      8  N   UNL     1      -0.036   0.100   0.061  0.00  0.00    +0.385 N 
ATOM      9  H   UNL     1       0.035   1.105   0.009  0.00  0.00    -0.081 HD
BRANCH   8  10
ATOM     10  C   UNL     1       0.545  -0.495  -1.150  0.00  0.00    +0.018 C 
BRANCH  10  11
ATOM     11  C   UNL     1      -0.121   0.092  -2.368  0.00  0.00    +0.194 C 
ATOM     12  O   UNL     1      -0.994   0.924  -2.239  0.00  0.00    -0.278 OA
ATOM     13  N   UNL     1       0.253  -0.308  -3.599  0.00  0.00    -0.331 N 
ATOM     14  H   UNL     1       0.951  -0.973  -3.702  0.00  0.00    +0.145 HD
ATOM     15  H   UNL     1      -0.176   0.070  -4.383  0.00  0.00    +0.145 HD
ENDBRANCH  10  11
ENDBRANCH   8  10
ENDBRANCH   6   8
ENDBRANCH   3   6
ENDBRANCH   2   3
ENDBRANCH   1   2
BRANCH   1  16
ATOM     16  C   UNL     1       5.119  -0.536   3.324  0.00  0.00    +0.178 C 
BRANCH  16  17
ATOM     17  C   UNL     1       5.702  -1.861   2.904  0.00  0.00    -0.014 A 
ATOM     18  C   UNL     1       6.137  -2.044   1.605  0.00  0.00    +0.009 A 
ATOM     19  C   UNL     1       6.673  -3.258   1.219  0.00  0.00    +0.039 A 
ATOM     20  C   UNL     1       6.772  -4.292   2.134  0.00  0.00    +0.123 A 
ATOM     21  C   UNL     1       6.335  -4.108   3.435  0.00  0.00    +0.039 A 
ATOM     22  C   UNL     1       5.806  -2.891   3.820  0.00  0.00    +0.009 A 
ATOM     23  F   UNL     1       7.295  -5.480   1.758  0.00  0.00    -0.205 F 
ENDBRANCH  16  17
BRANCH  16  24
ATOM     24  C   UNL     1       6.234   0.440   3.594  0.00  0.00    -0.014 A 
ATOM     25  C   UNL     1       6.783   1.167   2.554  0.00  0.00    +0.009 A 
ATOM     26  C   UNL     1       7.806   2.063   2.801  0.00  0.00    +0.039 A 
ATOM     27  C   UNL     1       8.281   2.233   4.091  0.00  0.00    +0.123 A 
ATOM     28  C   UNL     1       7.730   1.504   5.131  0.00  0.00    +0.039 A 
ATOM     29  C   UNL     1       6.704   0.613   4.883  0.00  0.00    +0.009 A 
ATOM     30  F   UNL     1       9.281   3.108   4.333  0.00  0.00    -0.205 F 
ENDBRANCH  16  24
ENDBRANCH   1  16
TORSDOF 10
