REMARK  Name = ZINC06300760
REMARK  8 active torsions:
REMARK  status: ('A' for Active; 'I' for Inactive)
REMARK    1  A    between atoms: C_1  and  C_2
REMARK    2  A    between atoms: C_4  and  C_40
REMARK    3  A    between atoms: C_9  and  C_14
REMARK    4  A    between atoms: C_14  and  C_16
REMARK    5  A    between atoms: C_14  and  N_69
REMARK    6  A    between atoms: N_20  and  C_21
REMARK    7  A    between atoms: C_21  and  C_22
REMARK    8  A    between atoms: C_30  and  C_33
REMARK                            x       y       z     vdW  Elec       q    Type
REMARK                         _______ _______ _______ _____ _____    ______ ____
ROOT
ATOM      1  C   UNL     1       3.637   2.101   0.266  0.00  0.00    +0.039 C 
ENDROOT
BRANCH   1  10
ATOM      2  C   UNL     1       3.992   9.505   1.088  0.00  0.00    +0.044 C 
ATOM      3  C   UNL     1       3.768   8.128   1.659  0.00  0.00    -0.050 A 
ATOM      4  C   UNL     1       3.463   7.983   3.006  0.00  0.00    +0.008 A 
ATOM      5  C   UNL     1       3.254   6.734   3.549  0.00  0.00    -0.026 A 
ATOM      6  C   UNL     1       3.349   5.606   2.742  0.00  0.00    +0.052 A 
ATOM      7  C   UNL     1       3.659   5.756   1.377  0.00  0.00    -0.001 A 
ATOM      8  C   UNL     1       3.867   7.034   0.847  0.00  0.00    +0.013 A 
ATOM      9  C   UNL     1       3.756   4.562   0.535  0.00  0.00    +0.017 A 
ATOM     10  C   UNL     1       3.545   3.350   1.104  0.00  0.00    +0.011 A 
ATOM     11  C   UNL     1       3.232   3.254   2.477  0.00  0.00    +0.251 A 
ATOM     12  O   UNL     1       3.041   2.154   2.967  0.00  0.00    -0.268 OA
ATOM     13  N   UNL     1       3.146   4.344   3.259  0.00  0.00    -0.322 N 
ATOM     14  H   UNL     1       2.933   4.242   4.200  0.00  0.00    +0.169 HD
ATOM     15  C   UNL     1       2.924   6.592   5.013  0.00  0.00    +0.046 C 
ENDBRANCH   1  10
BRANCH   1  21
ATOM     16  C   UNL     1       2.445   0.104  -0.416  0.00  0.00    -0.072 C 
ATOM     17  C   UNL     1       1.278  -0.798  -0.007  0.00  0.00    +0.017 C 
ATOM     18  C   UNL     1       0.002  -0.004   0.002  0.00  0.00    -0.048 C 
ATOM     19  C   UNL     1      -0.016   1.311   0.009  0.00  0.00    -0.041 C 
ATOM     20  C   UNL     1       1.232   2.147   0.002  0.00  0.00    -0.049 C 
ATOM     21  N   UNL     1       2.385   1.325   0.413  0.00  0.00    +0.392 N 
ATOM     22  H   UNL     1       2.272   1.056   1.397  0.00  0.00    -0.080 HD
BRANCH  18  23
ATOM     23  C   UNL     1      -1.285  -0.731   0.003  0.00  0.00    -0.022 A 
ATOM     24  C   UNL     1      -1.637  -1.529   1.092  0.00  0.00    +0.011 A 
ATOM     25  C   UNL     1      -2.842  -2.200   1.091  0.00  0.00    +0.039 A 
ATOM     26  C   UNL     1      -3.697  -2.091   0.006  0.00  0.00    +0.123 A 
ATOM     27  C   UNL     1      -3.350  -1.304  -1.080  0.00  0.00    +0.039 A 
ATOM     28  C   UNL     1      -2.150  -0.624  -1.087  0.00  0.00    +0.011 A 
ATOM     29  F   UNL     1      -4.875  -2.755   0.007  0.00  0.00    -0.205 F 
ENDBRANCH  18  23
ENDBRANCH   1  21
BRANCH   1  30
ATOM     30  C   UNL     1       4.794   1.261   0.743  0.00  0.00    +0.143 A 
ATOM     31  N   UNL     1       4.834   0.529   1.829  0.00  0.00    -0.115 NA
ATOM     32  N   UNL     1       5.991  -0.036   1.886  0.00  0.00    -0.023 NA
ATOM     33  N   UNL     1       6.689   0.316   0.864  0.00  0.00    -0.044 NA
ATOM     34  N   UNL     1       5.984   1.111   0.132  0.00  0.00    -0.228 N 
BRANCH  34  35
ATOM     35  C   UNL     1       6.402   1.737  -1.125  0.00  0.00    +0.178 C 
BRANCH  35  36
ATOM     36  C   UNL     1       7.066   3.084  -0.828  0.00  0.00    +0.140 C 
ATOM     37  C   UNL     1       7.405   3.803  -2.151  0.00  0.00    +0.035 C 
ATOM     38  C   UNL     1       8.787   4.438  -1.836  0.00  0.00    +0.031 C 
ATOM     39  C   UNL     1       9.397   3.365  -0.899  0.00  0.00    +0.160 C 
ATOM     40  O   UNL     1       8.294   2.875  -0.121  0.00  0.00    -0.375 OA
ENDBRANCH  35  36
ENDBRANCH  34  35
ENDBRANCH   1  30
TORSDOF 6
