REMARK  Name = ZINC39446126
REMARK  8 active torsions:
REMARK  status: ('A' for Active; 'I' for Inactive)
REMARK    1  A    between atoms: C_1  and  C_2
REMARK    2  A    between atoms: C_2  and  O_3
REMARK    3  A    between atoms: O_3  and  C_4
REMARK    4  A    between atoms: C_7  and  C_10
REMARK    5  A    between atoms: N_16  and  C_27
REMARK    6  A    between atoms: C_17  and  C_19
REMARK    7  A    between atoms: C_23  and  O_25
REMARK    8  A    between atoms: O_25  and  C_26
REMARK                            x       y       z     vdW  Elec       q    Type
REMARK                         _______ _______ _______ _____ _____    ______ ____
ROOT
ATOM      1  C   UNL     1       1.109  -6.040  -1.847  0.00  0.00    +0.159 C 
ATOM      2  C   UNL     1       2.496  -6.513  -1.489  0.00  0.00    +0.015 C 
ATOM      3  C   UNL     1       2.985  -7.047  -2.629  0.00  0.00    +0.149 C 
ATOM      4  C   UNL     1       4.354  -7.539  -2.362  0.00  0.00    +0.272 C 
ATOM      5  O   UNL     1       5.072  -8.076  -3.183  0.00  0.00    -0.268 OA
ATOM      6  N   UNL     1       4.691  -7.308  -1.080  0.00  0.00    -0.255 N 
ATOM      7  C   UNL     1       3.552  -6.646  -0.430  0.00  0.00    +0.143 C 
ATOM      8  N   UNL     1       2.046  -6.942  -3.616  0.00  0.00    -0.173 NA
ATOM      9  N   UNL     1       0.988  -6.404  -3.270  0.00  0.00    -0.297 N 
ATOM     10  H   UNL     1       0.215  -6.247  -3.834  0.00  0.00    +0.183 HD
ENDROOT
BRANCH   6  11
ATOM     11  C   UNL     1       5.908  -7.640  -0.475  0.00  0.00    +0.038 A 
ATOM     12  C   UNL     1       6.120  -7.347   0.866  0.00  0.00    +0.024 A 
ATOM     13  C   UNL     1       7.322  -7.676   1.462  0.00  0.00    +0.017 A 
ATOM     14  C   UNL     1       8.314  -8.296   0.724  0.00  0.00    +0.018 A 
ATOM     15  C   UNL     1       8.106  -8.589  -0.613  0.00  0.00    +0.017 A 
ATOM     16  C   UNL     1       6.904  -8.268  -1.212  0.00  0.00    +0.024 A 
ATOM     17 BR   UNL     1       9.959  -8.745   1.542  0.00  0.00    -0.050 Br
ENDBRANCH   6  11
BRANCH   1  21
ATOM     18  C   UNL     1       0.777  -1.810  -1.336  0.00  0.00    +0.121 A 
ATOM     19  C   UNL     1       0.243  -2.669  -0.386  0.00  0.00    +0.046 A 
ATOM     20  C   UNL     1       0.351  -4.036  -0.554  0.00  0.00    +0.009 A 
ATOM     21  C   UNL     1       0.992  -4.548  -1.667  0.00  0.00    -0.019 A 
ATOM     22  C   UNL     1       1.525  -3.694  -2.615  0.00  0.00    +0.009 A 
ATOM     23  C   UNL     1       1.414  -2.327  -2.455  0.00  0.00    +0.046 A 
BRANCH  18  24
ATOM     24  O   UNL     1       0.671  -0.465  -1.174  0.00  0.00    -0.492 OA
BRANCH  24  26
ATOM     25  C   UNL     1      -0.019   1.526   0.010  0.00  0.00    +0.048 C 
ATOM     26  C   UNL     1       0.002  -0.004   0.002  0.00  0.00    +0.225 C 
ENDBRANCH  24  26
ENDBRANCH  18  24
ENDBRANCH   1  21
BRANCH   7  27
ATOM     27  C   UNL     1       3.960  -5.285   0.071  0.00  0.00    -0.019 A 
ATOM     28  C   UNL     1       4.845  -4.515  -0.661  0.00  0.00    +0.006 A 
ATOM     29  C   UNL     1       5.221  -3.266  -0.204  0.00  0.00    +0.004 A 
ATOM     30  C   UNL     1       4.713  -2.784   0.987  0.00  0.00    +0.045 A 
ATOM     31  C   UNL     1       3.825  -3.554   1.724  0.00  0.00    +0.120 A 
ATOM     32  C   UNL     1       3.445  -4.805   1.260  0.00  0.00    +0.051 A 
BRANCH  31  33
ATOM     33  O   UNL     1       3.325  -3.082   2.896  0.00  0.00    -0.495 OA
ATOM     34  C   UNL     1       3.756  -1.784   3.309  0.00  0.00    +0.277 C 
ENDBRANCH  31  33
ENDBRANCH   7  27
TORSDOF 6
