REMARK  Name = ZINC40011170
REMARK  9 active torsions:
REMARK  status: ('A' for Active; 'I' for Inactive)
REMARK    1  A    between atoms: C_1  and  C_2
REMARK    2  A    between atoms: C_5  and  N_27
REMARK    3  A    between atoms: C_7  and  C_13
REMARK    4  A    between atoms: C_19  and  O_25
REMARK    5  A    between atoms: O_25  and  C_26
REMARK    6  A    between atoms: N_27  and  C_28
REMARK    7  A    between atoms: C_28  and  C_29
REMARK    8  A    between atoms: C_28  and  C_30
REMARK    9  A    between atoms: C_28  and  C_31
REMARK                            x       y       z     vdW  Elec       q    Type
REMARK                         _______ _______ _______ _____ _____    ______ ____
ROOT
ATOM      1  C   UNL     1      -0.048   1.589  -0.694  0.00  0.00    +0.045 C 
ATOM      2  C   UNL     1      -0.382   0.188  -0.251  0.00  0.00    -0.036 C 
ATOM      3  C   UNL     1      -1.601  -0.328  -0.508  0.00  0.00    +0.078 C 
ATOM      4  N   UNL     1      -1.925  -1.595  -0.116  0.00  0.00    -0.304 N 
ATOM      5  C   UNL     1      -3.175  -2.354  -0.285  0.00  0.00    +0.049 C 
ATOM      6  C   UNL     1      -2.869  -3.707   0.384  0.00  0.00    +0.126 C 
ATOM      7  N   UNL     1      -1.488  -3.567   0.857  0.00  0.00    -0.265 NA
ATOM      8  C   UNL     1      -1.018  -2.376   0.551  0.00  0.00    +0.119 C 
ATOM      9  C   UNL     1       0.273  -1.841   0.828  0.00  0.00    +0.044 C 
ATOM     10  C   UNL     1       0.579  -0.583   0.426  0.00  0.00    +0.008 C 
ENDROOT
BRANCH   6  11
ATOM     11  C   UNL     1      -3.819  -3.950   1.558  0.00  0.00    +0.123 C 
ATOM     12  C   UNL     1      -3.405  -5.245   2.230  0.00  0.00    -0.003 C 
ATOM     13  C   UNL     1      -4.339  -6.232   2.314  0.00  0.00    -0.007 A 
ATOM     14  C   UNL     1      -4.018  -7.512   2.949  0.00  0.00    +0.013 A 
ATOM     15  C   UNL     1      -4.973  -8.471   3.015  0.00  0.00    +0.046 A 
ATOM     16  C   UNL     1      -6.256  -8.259   2.489  0.00  0.00    +0.122 A 
ATOM     17  C   UNL     1      -6.616  -7.076   1.882  0.00  0.00    +0.069 A 
ATOM     18  C   UNL     1      -5.693  -6.028   1.768  0.00  0.00    +0.044 A 
ATOM     19  N   UNL     1      -6.053  -4.886   1.177  0.00  0.00    -0.284 N 
ATOM     20  C   UNL     1      -5.235  -3.859   1.036  0.00  0.00    +0.226 C 
ATOM     21  O   UNL     1      -5.620  -2.843   0.489  0.00  0.00    -0.275 OA
ATOM     22  H   UNL     1      -6.957  -4.808   0.835  0.00  0.00    +0.155 HD
BRANCH  16  23
ATOM     23  O   UNL     1      -7.173  -9.252   2.582  0.00  0.00    -0.495 OA
ATOM     24  C   UNL     1      -6.757 -10.461   3.220  0.00  0.00    +0.277 C 
ENDBRANCH  16  23
ENDBRANCH   6  11
BRANCH   5  25
ATOM     25  N   UNL     1      -3.480  -2.537  -1.711  0.00  0.00    +0.396 N 
ATOM     26  H   UNL     1      -4.244  -3.187  -1.811  0.00  0.00    -0.082 HD
ATOM     27  H   UNL     1      -3.738  -1.649  -2.115  0.00  0.00    -0.082 HD
BRANCH  25  28
ATOM     28  C   UNL     1      -2.295  -3.063  -2.401  0.00  0.00    -0.074 C 
ATOM     29  C   UNL     1      -1.954  -4.448  -1.846  0.00  0.00    -0.011 C 
ATOM     30  C   UNL     1      -2.584  -3.172  -3.900  0.00  0.00    -0.011 C 
ATOM     31  C   UNL     1      -1.112  -2.119  -2.178  0.00  0.00    -0.011 C 
ENDBRANCH  25  28
ENDBRANCH   5  25
TORSDOF 4
