REMARK  Name = ZINC15860425
REMARK  6 active torsions:
REMARK  status: ('A' for Active; 'I' for Inactive)
REMARK    1  A    between atoms: C_1  and  C_2
REMARK    2  A    between atoms: C_5  and  C_7
REMARK    3  A    between atoms: C_7  and  C_9
REMARK    4  A    between atoms: C_7  and  N_52
REMARK    5  A    between atoms: C_9  and  N_10
REMARK    6  A    between atoms: C_11  and  C_13
REMARK                            x       y       z     vdW  Elec       q    Type
REMARK                         _______ _______ _______ _____ _____    ______ ____
ROOT
ATOM      1  N   UNL     1      -5.172   4.493   2.633  0.00  0.00    -0.310 N 
ATOM      2  C   UNL     1      -5.499   5.719   2.178  0.00  0.00    +0.279 C 
ATOM      3  O   UNL     1      -4.677   6.385   1.581  0.00  0.00    -0.267 OA
ATOM      4  H   UNL     1      -5.829   3.962   3.110  0.00  0.00    +0.149 HD
ENDROOT
BRANCH   2   5
ATOM      5  C   UNL     1      -6.862   6.256   2.407  0.00  0.00    +0.193 A 
ATOM      6  C   UNL     1      -7.162   7.491   1.939  0.00  0.00    +0.103 A 
ATOM      7  C   UNL     1      -8.514   8.024   2.165  0.00  0.00    +0.193 A 
ATOM      8  O   UNL     1      -8.839   9.128   1.767  0.00  0.00    -0.287 OA
ATOM      9  C   UNL     1      -9.457   7.158   2.898  0.00  0.00    +0.065 A 
ATOM     10  C   UNL     1     -10.763   7.569   3.163  0.00  0.00    +0.030 A 
ATOM     11  C   UNL     1     -11.613   6.731   3.851  0.00  0.00    +0.019 A 
ATOM     12  C   UNL     1     -11.174   5.484   4.276  0.00  0.00    +0.019 A 
ATOM     13  C   UNL     1      -9.886   5.066   4.019  0.00  0.00    +0.048 A 
ATOM     14  C   UNL     1      -9.010   5.896   3.327  0.00  0.00    +0.140 A 
ATOM     15  O   UNL     1      -7.750   5.497   3.065  0.00  0.00    -0.450 OA
ATOM     16 BR   UNL     1     -13.385   7.281   4.217  0.00  0.00    -0.050 Br
ENDBRANCH   2   5
BRANCH   1  17
ATOM     17  C   UNL     1      -3.825   3.963   2.407  0.00  0.00    +0.097 C 
BRANCH  17  18
ATOM     18  C   UNL     1      -3.680   2.618   3.120  0.00  0.00    +0.016 C 
BRANCH  18  24
ATOM     19  C   UNL     1      -4.697   0.440   3.413  0.00  0.00    -0.078 C 
ATOM     20  C   UNL     1      -5.908  -0.417   3.038  0.00  0.00    -0.019 C 
ATOM     21  C   UNL     1      -5.899  -0.673   1.528  0.00  0.00    -0.004 C 
ATOM     22  C   UNL     1      -5.907   0.669   0.791  0.00  0.00    -0.019 C 
ATOM     23  C   UNL     1      -4.696   1.495   1.231  0.00  0.00    -0.078 C 
ATOM     24  N   UNL     1      -4.777   1.727   2.689  0.00  0.00    +0.387 N 
ATOM     25  H   UNL     1      -5.675   2.175   2.905  0.00  0.00    -0.081 HD
ENDBRANCH  18  24
BRANCH  18  30
ATOM     26  C   UNL     1       0.035   0.395   0.531  0.00  0.00    +0.086 C 
ATOM     27  C   UNL     1      -0.727   1.046   1.658  0.00  0.00    +0.102 A 
ATOM     28  C   UNL     1      -0.255   1.277   2.896  0.00  0.00    +0.044 A 
ATOM     29  C   UNL     1      -1.296   1.900   3.621  0.00  0.00    +0.043 A 
ATOM     30  C   UNL     1      -2.342   2.012   2.784  0.00  0.00    +0.093 A 
ATOM     31  O   UNL     1      -1.990   1.498   1.594  0.00  0.00    -0.466 OA
ENDBRANCH  18  30
ENDBRANCH  17  18
ENDBRANCH   1  17
TORSDOF 5
