REMARK  Name = ZINC62495294
REMARK  3 active torsions:
REMARK  status: ('A' for Active; 'I' for Inactive)
REMARK    1  A    between atoms: C_6  and  C_7
REMARK    2  A    between atoms: C_7  and  C_8
REMARK    3  A    between atoms: C_16  and  N_20
REMARK                            x       y       z     vdW  Elec       q    Type
REMARK                         _______ _______ _______ _____ _____    ______ ____
ROOT
ATOM      1  C   UNL     1      -1.746  -1.026  -1.429  0.00  0.00    +0.263 C 
ATOM      2  C   UNL     1      -3.102  -1.685  -1.421  0.00  0.00    +0.258 C 
ATOM      3  O   UNL     1      -4.107  -1.010  -1.492  0.00  0.00    -0.271 OA
ATOM      4  N   UNL     1      -3.193  -3.029  -1.334  0.00  0.00    -0.280 N 
ATOM      5  C   UNL     1      -2.019  -3.799  -1.380  0.00  0.00    +0.076 A 
ATOM      6  C   UNL     1      -2.051  -5.148  -1.067  0.00  0.00    +0.029 A 
ATOM      7  C   UNL     1      -0.887  -5.892  -1.103  0.00  0.00    +0.025 A 
ATOM      8  C   UNL     1       0.315  -5.290  -1.451  0.00  0.00    +0.028 A 
ATOM      9  C   UNL     1       0.349  -3.938  -1.770  0.00  0.00    +0.070 A 
ATOM     10  C   UNL     1      -0.817  -3.194  -1.741  0.00  0.00    +0.144 A 
ATOM     11  O   UNL     1      -0.802  -1.878  -2.082  0.00  0.00    -0.477 OA
ATOM     12  H   UNL     1      -4.058  -3.458  -1.240  0.00  0.00    +0.155 HD
ENDROOT
BRANCH   8  13
ATOM     13  N   UNL     1       1.492  -6.044  -1.480  0.00  0.00    -0.358 N 
ATOM     14  H   UNL     1       1.469  -6.988  -1.256  0.00  0.00    +0.142 HD
ATOM     15  H   UNL     1       2.332  -5.624  -1.723  0.00  0.00    +0.142 HD
ENDBRANCH   8  13
BRANCH   1  16
ATOM     16  C   UNL     1      -1.294  -0.774   0.010  0.00  0.00    +0.089 C 
BRANCH  16  22
ATOM     17  C   UNL     1      -0.017   1.378   0.010  0.00  0.00    +0.007 A 
ATOM     18  C   UNL     1       1.170   2.088   0.002  0.00  0.00    +0.050 A 
ATOM     19  C   UNL     1       2.380   1.416  -0.013  0.00  0.00    +0.166 A 
ATOM     20  C   UNL     1       2.399   0.023  -0.021  0.00  0.00    +0.166 A 
ATOM     21  C   UNL     1       1.207  -0.682  -0.014  0.00  0.00    +0.053 A 
ATOM     22  C   UNL     1       0.002  -0.004   0.002  0.00  0.00    -0.040 A 
ATOM     23  O   UNL     1       3.698  -0.395  -0.036  0.00  0.00    -0.453 OA
ATOM     24  C   UNL     1       4.466   0.750  -0.450  0.00  0.00    +0.466 C 
ATOM     25  O   UNL     1       3.668   1.870  -0.024  0.00  0.00    -0.453 OA
ENDBRANCH  16  22
ENDBRANCH   1  16
TORSDOF 3
