REMARK  Name = ZINC41919144
REMARK  5 active torsions:
REMARK  status: ('A' for Active; 'I' for Inactive)
REMARK    1  A    between atoms: C_1  and  C_2
REMARK    2  A    between atoms: C_2  and  C_4
REMARK    3  A    between atoms: C_2  and  N_10
REMARK    4  A    between atoms: C_11  and  C_13
REMARK    5  A    between atoms: N_15  and  C_16
REMARK                            x       y       z     vdW  Elec       q    Type
REMARK                         _______ _______ _______ _____ _____    ______ ____
ROOT
ATOM      1  C   UNL     1      -3.451  -1.161  -1.134  0.00  0.00    +0.303 C 
ATOM      2  O   UNL     1      -3.976  -1.471  -0.084  0.00  0.00    -0.265 OA
ATOM      3  N   UNL     1      -4.130  -1.291  -2.291  0.00  0.00    -0.278 N 
ATOM      4  H   UNL     1      -3.737  -0.982  -3.122  0.00  0.00    +0.155 HD
ENDROOT
BRANCH   3   5
ATOM      5  C   UNL     1      -5.402  -1.872  -2.294  0.00  0.00    +0.038 A 
ATOM      6  C   UNL     1      -6.265  -1.660  -1.226  0.00  0.00    +0.027 A 
ATOM      7  C   UNL     1      -7.523  -2.233  -1.226  0.00  0.00    +0.051 A 
ATOM      8  C   UNL     1      -7.925  -3.020  -2.291  0.00  0.00    +0.167 A 
ATOM      9  C   UNL     1      -7.061  -3.235  -3.365  0.00  0.00    +0.169 A 
ATOM     10  C   UNL     1      -5.805  -2.657  -3.367  0.00  0.00    +0.073 A 
ATOM     11  O   UNL     1      -7.697  -4.040  -4.274  0.00  0.00    -0.447 OA
ATOM     12  C   UNL     1      -8.720  -4.687  -3.502  0.00  0.00    +0.254 C 
ATOM     13  O   UNL     1      -9.094  -3.694  -2.537  0.00  0.00    -0.448 OA
ATOM     14  C   UNL     1      -9.911  -5.086  -4.380  0.00  0.00    +0.093 C 
ATOM     15  C   UNL     1      -9.685  -6.596  -4.654  0.00  0.00    +0.008 C 
ATOM     16  C   UNL     1      -9.103  -7.108  -3.312  0.00  0.00    +0.008 C 
ATOM     17  C   UNL     1      -8.195  -5.955  -2.828  0.00  0.00    +0.093 C 
ENDBRANCH   3   5
BRANCH   1  19
ATOM     18  N   UNL     1      -1.374  -0.506   0.013  0.00  0.00    -0.303 N 
ATOM     19  C   UNL     1      -2.053  -0.636  -1.144  0.00  0.00    +0.300 C 
ATOM     20  O   UNL     1      -1.528  -0.327  -2.194  0.00  0.00    -0.265 OA
ATOM     21  H   UNL     1      -1.793  -0.754   0.852  0.00  0.00    +0.150 HD
BRANCH  18  23
ATOM     22  C   UNL     1      -0.032   1.538   0.018  0.00  0.00    +0.030 C 
ATOM     23  C   UNL     1      -0.002   0.008   0.003  0.00  0.00    +0.099 C 
BRANCH  23  24
ATOM     24  C   UNL     1       0.742  -0.500   1.239  0.00  0.00    +0.138 C 
ATOM     25  C   UNL     1       2.222  -0.042   1.202  0.00  0.00    +0.035 C 
ATOM     26  C   UNL     1       2.576  -0.066   2.714  0.00  0.00    +0.031 C 
ATOM     27  C   UNL     1       1.243   0.354   3.370  0.00  0.00    +0.160 C 
ATOM     28  O   UNL     1       0.194   0.090   2.429  0.00  0.00    -0.375 OA
ENDBRANCH  23  24
ENDBRANCH  18  23
ENDBRANCH   1  19
TORSDOF 4
