REMARK  Name = ZINC05015470
REMARK  8 active torsions:
REMARK  status: ('A' for Active; 'I' for Inactive)
REMARK    1  A    between atoms: C_4  and  C_7
REMARK    2  A    between atoms: C_7  and  C_8
REMARK    3  A    between atoms: C_8  and  N_9
REMARK    4  A    between atoms: C_13  and  N_47
REMARK    5  A    between atoms: C_17  and  C_18
REMARK    6  A    between atoms: C_17  and  N_47
REMARK    7  A    between atoms: C_21  and  S_24
REMARK    8  A    between atoms: S_24  and  N_27
REMARK                            x       y       z     vdW  Elec       q    Type
REMARK                         _______ _______ _______ _____ _____    ______ ____
ROOT
ATOM      1  N   UNL     1       1.222  -2.663  -1.416  0.00  0.00    +0.390 N 
ATOM      2  H   UNL     1       0.374  -2.323  -1.886  0.00  0.00    -0.084 HD
ATOM      3  H   UNL     1       2.050  -2.300  -1.902  0.00  0.00    -0.084 HD
ENDROOT
BRANCH   1   8
ATOM      4  N   UNL     1      -0.394  -5.377  -2.551  0.00  0.00    -0.243 N 
ATOM      5  C   UNL     1       0.642  -5.409  -3.399  0.00  0.00    +0.221 C 
ATOM      6  O   UNL     1       0.653  -5.974  -4.472  0.00  0.00    -0.275 OA
ATOM      7  C   UNL     1       1.795  -4.630  -2.806  0.00  0.00    +0.090 C 
ATOM      8  C   UNL     1       1.241  -4.137  -1.454  0.00  0.00    +0.026 C 
ATOM      9  C   UNL     1      -0.167  -4.690  -1.421  0.00  0.00    +0.208 C 
ATOM     10  O   UNL     1      -0.961  -4.534  -0.518  0.00  0.00    -0.277 OA
BRANCH   4  11
ATOM     11  C   UNL     1      -1.669  -6.041  -2.832  0.00  0.00    +0.121 C 
BRANCH  11  12
ATOM     12  C   UNL     1      -1.629  -7.472  -2.294  0.00  0.00    +0.054 C 
BRANCH  12  16
ATOM     13  C   UNL     1      -5.349  -9.406  -3.113  0.00  0.00    +0.000 A 
ATOM     14  C   UNL     1      -4.317  -9.476  -4.030  0.00  0.00    +0.000 A 
ATOM     15  C   UNL     1      -3.113  -8.850  -3.765  0.00  0.00    +0.004 A 
ATOM     16  C   UNL     1      -2.941  -8.155  -2.583  0.00  0.00    -0.046 A 
ATOM     17  C   UNL     1      -3.971  -8.090  -1.663  0.00  0.00    +0.004 A 
ATOM     18  C   UNL     1      -5.177  -8.712  -1.930  0.00  0.00    +0.000 A 
ENDBRANCH  12  16
ENDBRANCH  11  12
ENDBRANCH   4  11
ENDBRANCH   1   8
BRANCH   1  19
ATOM     19  C   UNL     1       1.229  -2.186  -0.021  0.00  0.00    -0.046 C 
BRANCH  19  20
ATOM     20  C   UNL     1       1.208  -0.679  -0.013  0.00  0.00    -0.064 A 
ATOM     21  C   UNL     1       0.002  -0.004   0.002  0.00  0.00    +0.003 A 
ATOM     22  C   UNL     1      -0.017   1.378   0.010  0.00  0.00    +0.029 A 
ATOM     23  C   UNL     1       1.171   2.086   0.002  0.00  0.00    +0.105 A 
ATOM     24  C   UNL     1       2.377   1.411  -0.015  0.00  0.00    +0.029 A 
ATOM     25  C   UNL     1       2.396   0.029  -0.021  0.00  0.00    +0.003 A 
BRANCH  23  26
ATOM     26  S   UNL     1       1.147   3.847   0.011  0.00  0.00    +0.056 S 
ATOM     27  O   UNL     1       2.382   4.273  -0.549  0.00  0.00    -0.153 OA
ATOM     28  O   UNL     1      -0.109   4.239  -0.526  0.00  0.00    -0.153 OA
BRANCH  26  29
ATOM     29  N   UNL     1       1.155   4.329   1.596  0.00  0.00    -0.204 NA
ATOM     30  H   UNL     1       1.171   3.666   2.304  0.00  0.00    +0.144 HD
ATOM     31  H   UNL     1       1.144   5.274   1.815  0.00  0.00    +0.144 HD
ENDBRANCH  26  29
ENDBRANCH  23  26
ENDBRANCH  19  20
ENDBRANCH   1  19
TORSDOF 8
