REMARK  Name = ZINC24831545
REMARK  6 active torsions:
REMARK  status: ('A' for Active; 'I' for Inactive)
REMARK    1  A    between atoms: C_1  and  C_2
REMARK    2  A    between atoms: C_2  and  C_4
REMARK    3  A    between atoms: C_2  and  N_11
REMARK    4  A    between atoms: N_11  and  C_12
REMARK    5  A    between atoms: C_12  and  C_13
REMARK    6  A    between atoms: C_26  and  C_28
REMARK                            x       y       z     vdW  Elec       q    Type
REMARK                         _______ _______ _______ _____ _____    ______ ____
ROOT
ATOM      1  C   UNL     1      -0.018   1.503   0.010  0.00  0.00    +0.203 C 
ATOM      2  O   UNL     1      -1.077   2.095   0.018  0.00  0.00    -0.277 OA
ATOM      3  N   UNL     1       1.139   2.192   0.003  0.00  0.00    -0.259 N 
ATOM      4  C   UNL     1       2.370   1.523  -0.006  0.00  0.00    +0.058 A 
ATOM      5  C   UNL     1       2.811   0.880  -1.158  0.00  0.00    +0.025 A 
ATOM      6  C   UNL     1       4.043   0.253  -1.165  0.00  0.00    +0.002 A 
ATOM      7  C   UNL     1       4.839   0.266  -0.035  0.00  0.00    +0.002 A 
ATOM      8  C   UNL     1       4.402   0.894   1.118  0.00  0.00    +0.025 A 
ATOM      9  C   UNL     1       3.163   1.512   1.137  0.00  0.00    +0.055 A 
ATOM     10  N   UNL     1       2.683   2.127   2.299  0.00  0.00    -0.284 N 
ATOM     11  C   UNL     1       2.177   3.379   2.255  0.00  0.00    +0.219 C 
ATOM     12  O   UNL     1       1.695   3.869   3.254  0.00  0.00    -0.275 OA
ATOM     13  C   UNL     1       2.208   4.171   0.975  0.00  0.00    +0.128 C 
ATOM     14  C   UNL     1       1.137   3.656   0.011  0.00  0.00    +0.194 C 
ATOM     15  H   UNL     1       2.716   1.590   3.259  0.00  0.00    +0.155 HD
ENDROOT
BRANCH  14  16
ATOM     16  C   UNL     1       1.433   4.173  -1.399  0.00  0.00    +0.409 C 
ATOM     17  F   UNL     1       0.451   3.709  -2.281  0.00  0.00    -0.169 F 
ATOM     18  F   UNL     1       1.431   5.571  -1.393  0.00  0.00    -0.169 F 
ATOM     19  F   UNL     1       2.687   3.710  -1.811  0.00  0.00    -0.169 F 
ENDBRANCH  14  16
BRANCH   1  20
ATOM     20  C   UNL     1       0.002  -0.004   0.002  0.00  0.00    +0.016 C 
BRANCH  20  21
ATOM     21  N   UNL     1      -1.376  -0.512   0.012  0.00  0.00    +0.389 N 
ATOM     22  H   UNL     1      -1.898  -0.134  -0.879  0.00  0.00    -0.084 HD
ATOM     23  H   UNL     1      -1.881  -0.144   0.917  0.00  0.00    -0.084 HD
BRANCH  21  25
ATOM     24  C   UNL     1      -1.290  -2.485  -1.436  0.00  0.00    -0.009 C 
ATOM     25  C   UNL     1      -1.395  -1.981   0.005  0.00  0.00    -0.043 C 
BRANCH  25  26
ATOM     26  C   UNL     1      -2.684  -2.470   0.615  0.00  0.00    -0.062 A 
ATOM     27  C   UNL     1      -3.870  -1.815   0.341  0.00  0.00    +0.003 A 
ATOM     28  C   UNL     1      -5.053  -2.266   0.896  0.00  0.00    +0.020 A 
ATOM     29  C   UNL     1      -5.048  -3.367   1.734  0.00  0.00    +0.041 A 
ATOM     30  C   UNL     1      -3.859  -4.018   2.013  0.00  0.00    +0.020 A 
ATOM     31  C   UNL     1      -2.678  -3.570   1.453  0.00  0.00    +0.003 A 
ATOM     32 CL   UNL     1      -6.532  -3.929   2.438  0.00  0.00    -0.084 Cl
ENDBRANCH  25  26
ENDBRANCH  21  25
ENDBRANCH  20  21
ENDBRANCH   1  20
TORSDOF 5
