REMARK  Name = ZINC38847890
REMARK  5 active torsions:
REMARK  status: ('A' for Active; 'I' for Inactive)
REMARK    1  A    between atoms: C_7  and  C_11
REMARK    2  A    between atoms: N_13  and  C_14
REMARK    3  A    between atoms: C_14  and  C_15
REMARK    4  A    between atoms: C_15  and  C_16
REMARK    5  A    between atoms: C_16  and  N_17
REMARK                            x       y       z     vdW  Elec       q    Type
REMARK                         _______ _______ _______ _____ _____    ______ ____
ROOT
ATOM      1  C   UNL     1       0.699  -3.256  -0.022  0.00  0.00    +0.254 C 
ATOM      2  O   UNL     1       1.448  -2.303  -0.131  0.00  0.00    -0.270 OA
ATOM      3  N   UNL     1       1.203  -4.503   0.069  0.00  0.00    -0.246 N 
ATOM      4  C   UNL     1       2.572  -4.691   0.158  0.00  0.00    +0.168 A 
ATOM      5  N   UNL     1       3.250  -5.815   0.157  0.00  0.00    -0.224 NA
ATOM      6  C   UNL     1       4.597  -5.851   0.251  0.00  0.00    +0.080 A 
ATOM      7  C   UNL     1       5.442  -6.985   0.262  0.00  0.00    +0.030 A 
ATOM      8  C   UNL     1       6.801  -6.845   0.365  0.00  0.00    +0.017 A 
ATOM      9  C   UNL     1       7.396  -5.594   0.463  0.00  0.00    +0.019 A 
ATOM     10  C   UNL     1       6.599  -4.463   0.455  0.00  0.00    +0.032 A 
ATOM     11  C   UNL     1       5.237  -4.594   0.351  0.00  0.00    +0.042 A 
ATOM     12  S   UNL     1       3.865  -3.466   0.295  0.00  0.00    -0.052 S 
ATOM     13 BR   UNL     1       9.275  -5.438   0.605  0.00  0.00    -0.050 Br
ENDROOT
BRANCH   1  20
ATOM     14  C   UNL     1      -2.283  -1.066  -2.895  0.00  0.00    +0.001 A 
ATOM     15  C   UNL     1      -3.593  -1.133  -2.443  0.00  0.00    +0.002 A 
ATOM     16  C   UNL     1      -3.899  -1.788  -1.271  0.00  0.00    +0.026 A 
ATOM     17  C   UNL     1      -2.889  -2.391  -0.528  0.00  0.00    +0.047 A 
ATOM     18  C   UNL     1      -1.564  -2.323  -0.987  0.00  0.00    +0.012 A 
ATOM     19  C   UNL     1      -1.269  -1.657  -2.174  0.00  0.00    +0.011 A 
ATOM     20  C   UNL     1      -0.754  -3.047   0.010  0.00  0.00    +0.062 A 
ATOM     21  C   UNL     1      -1.621  -3.486   0.967  0.00  0.00    +0.096 A 
ATOM     22  N   UNL     1      -2.882  -3.101   0.654  0.00  0.00    -0.360 N 
ATOM     23  H   UNL     1      -3.668  -3.297   1.187  0.00  0.00    +0.165 HD
ENDBRANCH   1  20
BRANCH   3  24
ATOM     24  C   UNL     1       0.303  -5.658   0.074  0.00  0.00    +0.117 C 
BRANCH  24  25
ATOM     25  C   UNL     1       0.073  -6.132  -1.363  0.00  0.00    +0.041 C 
BRANCH  25  26
ATOM     26  C   UNL     1      -0.868  -7.338  -1.358  0.00  0.00    +0.124 C 
BRANCH  26  27
ATOM     27  N   UNL     1      -1.088  -7.792  -2.733  0.00  0.00    -0.338 N 
ATOM     28  C   UNL     1      -2.073  -7.364  -3.582  0.00  0.00    +0.104 A 
ATOM     29  C   UNL     1      -1.909  -8.034  -4.738  0.00  0.00    +0.101 A 
ATOM     30  N   UNL     1      -0.853  -8.849  -4.600  0.00  0.00    -0.352 N 
ATOM     31  C   UNL     1      -0.353  -8.706  -3.403  0.00  0.00    +0.173 A 
ATOM     32  H   UNL     1      -0.513  -9.448  -5.283  0.00  0.00    +0.166 HD
ENDBRANCH  26  27
ENDBRANCH  25  26
ENDBRANCH  24  25
ENDBRANCH   3  24
TORSDOF 5
