REMARK  Name = ZINC16755018
REMARK  7 active torsions:
REMARK  status: ('A' for Active; 'I' for Inactive)
REMARK    1  A    between atoms: C_1  and  C_2
REMARK    2  A    between atoms: C_2  and  N_3
REMARK    3  A    between atoms: C_7  and  C_8
REMARK    4  A    between atoms: C_11  and  O_15
REMARK    5  A    between atoms: C_13  and  O_14
REMARK    6  A    between atoms: N_18  and  S_19
REMARK    7  A    between atoms: S_19  and  C_22
REMARK                            x       y       z     vdW  Elec       q    Type
REMARK                         _______ _______ _______ _____ _____    ______ ____
ROOT
ATOM      1  N   UNL     1       6.173  -1.661  -3.223  0.00  0.00    -0.245 N 
ATOM      2  C   UNL     1       7.249  -2.422  -3.335  0.00  0.00    +0.259 C 
ATOM      3  O   UNL     1       7.697  -2.732  -4.423  0.00  0.00    -0.269 OA
ATOM      4  C   UNL     1       7.880  -2.878  -2.084  0.00  0.00    +0.078 C 
ATOM      5  C   UNL     1       8.979  -3.657  -1.909  0.00  0.00    +0.032 C 
ATOM      6  S   UNL     1       6.818  -2.125  -0.861  0.00  0.00    -0.047 S 
ATOM      7  C   UNL     1       5.680  -1.322  -1.979  0.00  0.00    +0.189 C 
ATOM      8  N   UNL     1       4.641  -0.588  -1.690  0.00  0.00    -0.105 NA
ENDROOT
BRANCH   5   9
ATOM      9  C   UNL     1       9.538  -3.843  -0.566  0.00  0.00    +0.018 A 
ATOM     10  C   UNL     1       9.204  -2.956   0.466  0.00  0.00    +0.015 A 
ATOM     11  C   UNL     1       9.731  -3.136   1.724  0.00  0.00    +0.046 A 
ATOM     12  C   UNL     1      10.596  -4.196   1.976  0.00  0.00    +0.120 A 
ATOM     13  C   UNL     1      10.934  -5.082   0.963  0.00  0.00    +0.091 A 
ATOM     14  C   UNL     1      10.408  -4.917  -0.306  0.00  0.00    +0.127 A 
BRANCH  14  15
ATOM     15  O   UNL     1      10.734  -5.785  -1.297  0.00  0.00    -0.506 OA
ATOM     16  H   UNL     1      11.519  -5.529  -1.801  0.00  0.00    +0.292 HD
ENDBRANCH  14  15
BRANCH  12  17
ATOM     17  O   UNL     1      11.112  -4.365   3.221  0.00  0.00    -0.507 OA
ATOM     18  H   UNL     1      10.573  -4.924   3.797  0.00  0.00    +0.292 HD
ENDBRANCH  12  17
ENDBRANCH   5   9
BRANCH   8  19
ATOM     19  S   UNL     1       4.235  -0.312  -0.109  0.00  0.00    +0.101 S 
ATOM     20  O   UNL     1       5.284   0.467   0.450  0.00  0.00    -0.146 OA
ATOM     21  O   UNL     1       3.845  -1.566   0.435  0.00  0.00    -0.146 OA
BRANCH  19  22
ATOM     22  C   UNL     1       2.797   0.706  -0.110  0.00  0.00    +0.113 A 
ATOM     23  C   UNL     1       1.541   0.127  -0.117  0.00  0.00    +0.032 A 
ATOM     24  C   UNL     1       0.412   0.924  -0.118  0.00  0.00    +0.040 A 
ATOM     25  C   UNL     1       0.539   2.303  -0.112  0.00  0.00    +0.124 A 
ATOM     26  C   UNL     1       1.797   2.881  -0.104  0.00  0.00    +0.040 A 
ATOM     27  C   UNL     1       2.925   2.082  -0.103  0.00  0.00    +0.032 A 
ATOM     28  F   UNL     1      -0.564   3.083  -0.118  0.00  0.00    -0.205 F 
ENDBRANCH  19  22
ENDBRANCH   8  19
BRANCH   1  30
ATOM     29  C   UNL     1       6.097   0.172  -4.840  0.00  0.00    +0.025 C 
ATOM     30  C   UNL     1       5.498  -1.175  -4.429  0.00  0.00    +0.112 C 
ENDBRANCH   1  30
TORSDOF 6
