REMARK  Name = ZINC36068453
REMARK  10 active torsions:
REMARK  status: ('A' for Active; 'I' for Inactive)
REMARK    1  A    between atoms: C_4  and  C_7
REMARK    2  A    between atoms: C_7  and  N_8
REMARK    3  A    between atoms: C_9  and  C_11
REMARK    4  A    between atoms: C_14  and  C_16
REMARK    5  A    between atoms: C_16  and  N_17
REMARK    6  A    between atoms: N_17  and  C_18
REMARK    7  A    between atoms: N_17  and  C_28
REMARK    8  A    between atoms: C_18  and  C_19
REMARK    9  A    between atoms: C_28  and  C_29
REMARK   10  A    between atoms: C_34  and  C_35
REMARK                            x       y       z     vdW  Elec       q    Type
REMARK                         _______ _______ _______ _____ _____    ______ ____
ROOT
ATOM      1  N   UNL     1       4.897  -3.747   6.589  0.00  0.00    +0.391 N 
ATOM      2  H   UNL     1       4.000  -3.670   6.134  0.00  0.00    -0.080 HD
ENDROOT
BRANCH   1   3
ATOM      3  C   UNL     1       5.886  -2.941   5.860  0.00  0.00    +0.020 C 
BRANCH   3   7
ATOM      4  C   UNL     1       5.470  -3.486   2.303  0.00  0.00    +0.163 A 
ATOM      5  C   UNL     1       6.429  -4.410   2.581  0.00  0.00    +0.230 A 
ATOM      6  O   UNL     1       6.690  -4.319   3.895  0.00  0.00    -0.449 OA
ATOM      7  C   UNL     1       5.908  -3.362   4.413  0.00  0.00    +0.179 A 
ATOM      8  N   UNL     1       5.176  -2.850   3.470  0.00  0.00    -0.210 NA
BRANCH   4  10
ATOM      9  N   UNL     1       3.925  -2.264   0.855  0.00  0.00    -0.306 N 
ATOM     10  C   UNL     1       4.866  -3.220   0.985  0.00  0.00    +0.266 C 
ATOM     11  O   UNL     1       5.219  -3.861   0.014  0.00  0.00    -0.268 OA
ATOM     12  H   UNL     1       3.643  -1.752   1.629  0.00  0.00    +0.149 HD
BRANCH   9  13
ATOM     13  C   UNL     1       3.325  -2.000  -0.455  0.00  0.00    +0.140 C 
BRANCH  13  17
ATOM     14  C   UNL     1       0.443   1.133  -0.099  0.00  0.00    +0.000 A 
ATOM     15  C   UNL     1       1.762   1.436  -0.382  0.00  0.00    +0.000 A 
ATOM     16  C   UNL     1       2.695   0.422  -0.497  0.00  0.00    +0.005 A 
ATOM     17  C   UNL     1       2.309  -0.894  -0.329  0.00  0.00    -0.030 A 
ATOM     18  C   UNL     1       0.990  -1.197  -0.045  0.00  0.00    +0.005 A 
ATOM     19  C   UNL     1       0.057  -0.183   0.069  0.00  0.00    +0.000 A 
ENDBRANCH  13  17
ENDBRANCH   9  13
ENDBRANCH   4  10
ENDBRANCH   3   7
ENDBRANCH   1   3
BRANCH   1  20
ATOM     20  C   UNL     1       4.789  -3.258   7.970  0.00  0.00    -0.042 C 
BRANCH  20  21
ATOM     21  C   UNL     1       4.219  -1.863   7.966  0.00  0.00    -0.060 A 
ATOM     22  C   UNL     1       5.066  -0.771   8.004  0.00  0.00    +0.005 A 
ATOM     23  C   UNL     1       4.547   0.510   8.000  0.00  0.00    +0.050 A 
ATOM     24  C   UNL     1       3.176   0.703   7.957  0.00  0.00    +0.166 A 
ATOM     25  C   UNL     1       2.323  -0.397   7.918  0.00  0.00    +0.166 A 
ATOM     26  C   UNL     1       2.850  -1.678   7.917  0.00  0.00    +0.051 A 
ATOM     27  O   UNL     1       1.034   0.052   7.881  0.00  0.00    -0.453 OA
ATOM     28  C   UNL     1       1.093   1.426   8.309  0.00  0.00    +0.466 C 
ATOM     29  O   UNL     1       2.422   1.841   7.944  0.00  0.00    -0.453 OA
ENDBRANCH  20  21
ENDBRANCH   1  20
BRANCH   1  30
ATOM     30  C   UNL     1       5.323  -5.153   6.599  0.00  0.00    -0.041 C 
BRANCH  30  31
ATOM     31  C   UNL     1       4.252  -5.997   7.242  0.00  0.00    -0.052 A 
ATOM     32  C   UNL     1       4.345  -6.329   8.581  0.00  0.00    +0.002 A 
ATOM     33  C   UNL     1       3.363  -7.103   9.170  0.00  0.00    +0.000 A 
ATOM     34  C   UNL     1       2.288  -7.545   8.421  0.00  0.00    +0.001 A 
ATOM     35  C   UNL     1       2.196  -7.212   7.082  0.00  0.00    +0.012 A 
ATOM     36  C   UNL     1       3.176  -6.434   6.494  0.00  0.00    +0.056 A 
BRANCH  36  37
ATOM     37  C   UNL     1       3.072  -6.067   5.036  0.00  0.00    +0.418 C 
ATOM     38  F   UNL     1       1.975  -6.723   4.467  0.00  0.00    -0.166 F 
ATOM     39  F   UNL     1       2.903  -4.684   4.915  0.00  0.00    -0.166 F 
ATOM     40  F   UNL     1       4.241  -6.454   4.373  0.00  0.00    -0.166 F 
ENDBRANCH  36  37
ENDBRANCH  30  31
ENDBRANCH   1  30
TORSDOF 10
