REMARK  Name = ZINC64693007
REMARK  5 active torsions:
REMARK  status: ('A' for Active; 'I' for Inactive)
REMARK    1  A    between atoms: C_1  and  C_2
REMARK    2  A    between atoms: N_4  and  C_5
REMARK    3  A    between atoms: C_7  and  C_12
REMARK    4  A    between atoms: C_12  and  O_14
REMARK    5  A    between atoms: O_14  and  C_15
REMARK                            x       y       z     vdW  Elec       q    Type
REMARK                         _______ _______ _______ _____ _____    ______ ____
ROOT
ATOM      1  C   UNL     1       0.121  -2.065  -1.229  0.00  0.00    +0.070 A 
ATOM      2  C   UNL     1       0.132  -2.812  -0.064  0.00  0.00    +0.041 A 
ATOM      3  C   UNL     1       0.233  -4.203  -0.133  0.00  0.00    +0.061 A 
ATOM      4  C   UNL     1       0.321  -4.832  -1.377  0.00  0.00    +0.018 A 
ATOM      5  C   UNL     1       0.309  -4.080  -2.533  0.00  0.00    +0.041 A 
ATOM      6  C   UNL     1       0.204  -2.701  -2.465  0.00  0.00    +0.145 A 
ATOM      7  F   UNL     1       0.187  -1.970  -3.601  0.00  0.00    -0.204 F 
ENDROOT
BRANCH   1  11
ATOM      8  C   UNL     1       0.576   1.510  -0.135  0.00  0.00    +0.109 C 
ATOM      9  C   UNL     1       0.601   0.003  -0.152  0.00  0.00    +0.214 C 
ATOM     10  O   UNL     1       1.143  -0.605   0.747  0.00  0.00    -0.276 OA
ATOM     11  N   UNL     1       0.019  -0.669  -1.165  0.00  0.00    -0.283 N 
ATOM     12  H   UNL     1      -0.469  -0.186  -1.850  0.00  0.00    +0.155 HD
ENDBRANCH   1  11
BRANCH   3  13
ATOM     13  C   UNL     1       0.246  -5.006   1.106  0.00  0.00    +0.345 C 
ATOM     14  O   UNL     1       0.170  -4.457   2.187  0.00  0.00    -0.245 OA
BRANCH  13  15
ATOM     15  O   UNL     1       0.343  -6.348   1.037  0.00  0.00    -0.421 OA
BRANCH  15  16
ATOM     16  C   UNL     1       0.246  -7.055   2.194  0.00  0.00    +0.146 A 
ATOM     17  C   UNL     1       1.392  -7.510   2.829  0.00  0.00    +0.047 A 
ATOM     18  C   UNL     1       1.290  -8.228   4.005  0.00  0.00    +0.004 A 
ATOM     19  C   UNL     1       0.047  -8.493   4.550  0.00  0.00    +0.001 A 
ATOM     20  C   UNL     1      -1.097  -8.041   3.919  0.00  0.00    +0.019 A 
ATOM     21  C   UNL     1      -1.001  -7.318   2.745  0.00  0.00    +0.060 A 
ATOM     22 BR   UNL     1      -2.566  -6.694   1.887  0.00  0.00    -0.046 Br
ENDBRANCH  15  16
ENDBRANCH  13  15
ENDBRANCH   3  13
TORSDOF 4
