REMARK  Name = ZINC09090314
REMARK  9 active torsions:
REMARK  status: ('A' for Active; 'I' for Inactive)
REMARK    1  A    between atoms: C_1  and  C_2
REMARK    2  A    between atoms: C_6  and  C_19
REMARK    3  A    between atoms: C_7  and  O_8
REMARK    4  A    between atoms: O_8  and  S_9
REMARK    5  A    between atoms: S_9  and  C_12
REMARK    6  A    between atoms: N_20  and  N_21
REMARK    7  A    between atoms: C_26  and  C_29
REMARK    8  A    between atoms: C_29  and  C_30
REMARK    9  A    between atoms: C_29  and  C_31
REMARK                            x       y       z     vdW  Elec       q    Type
REMARK                         _______ _______ _______ _____ _____    ______ ____
ROOT
ATOM      1  C   UNL     1      -1.350  -1.074  -0.964  0.00  0.00    +0.047 C 
ATOM      2  C   UNL     1      -0.183  -0.190  -0.608  0.00  0.00    -0.005 A 
ATOM      3  C   UNL     1      -0.294   1.183  -0.735  0.00  0.00    +0.007 A 
ATOM      4  C   UNL     1       0.772   2.005  -0.411  0.00  0.00    +0.001 A 
ATOM      5  C   UNL     1       1.956   1.462   0.042  0.00  0.00    +0.013 A 
ATOM      6  C   UNL     1       2.081   0.076   0.175  0.00  0.00    +0.040 A 
ATOM      7  C   UNL     1       0.998  -0.752  -0.155  0.00  0.00    +0.168 A 
ENDROOT
BRANCH   6   8
ATOM      8  C   UNL     1       3.341  -0.510   0.657  0.00  0.00    +0.146 C 
ATOM      9  N   UNL     1       3.492  -1.806   0.677  0.00  0.00    -0.155 NA
BRANCH   9  10
ATOM     10  N   UNL     1       4.555  -2.324   1.193  0.00  0.00    -0.127 NA
ATOM     11  C   UNL     1       4.759  -3.622   1.115  0.00  0.00    +0.183 C 
ATOM     12  N   UNL     1       5.773  -4.361   1.688  0.00  0.00    -0.263 N 
ATOM     13  C   UNL     1       5.866  -5.671   1.538  0.00  0.00    +0.232 C 
ATOM     14  O   UNL     1       6.756  -6.316   2.049  0.00  0.00    -0.274 OA
ATOM     15  C   UNL     1       4.791  -6.317   0.679  0.00  0.00    +0.143 C 
ATOM     16  S   UNL     1       3.793  -4.840   0.235  0.00  0.00    -0.075 S 
ATOM     17  H   UNL     1       6.439  -3.903   2.224  0.00  0.00    +0.157 HD
BRANCH  15  18
ATOM     18  C   UNL     1       3.965  -7.321   1.485  0.00  0.00    +0.005 C 
ATOM     19  C   UNL     1       2.858  -7.898   0.601  0.00  0.00    +0.009 C 
ATOM     20  C   UNL     1       4.872  -8.454   1.970  0.00  0.00    +0.009 C 
ENDBRANCH  15  18
ENDBRANCH   9  10
ENDBRANCH   6   8
BRANCH   7  21
ATOM     21  O   UNL     1       1.107  -2.100  -0.030  0.00  0.00    -0.341 OA
BRANCH  21  22
ATOM     22  S   UNL     1       0.862  -2.613   1.382  0.00  0.00    +0.151 S 
ATOM     23  O   UNL     1       1.240  -3.983   1.387  0.00  0.00    -0.131 OA
ATOM     24  O   UNL     1       1.437  -1.661   2.265  0.00  0.00    -0.131 OA
BRANCH  22  25
ATOM     25  C   UNL     1      -0.878  -2.570   1.657  0.00  0.00    +0.128 A 
ATOM     26  C   UNL     1      -1.450  -1.483   2.292  0.00  0.00    +0.032 A 
ATOM     27  C   UNL     1      -2.815  -1.445   2.503  0.00  0.00    +0.022 A 
ATOM     28  C   UNL     1      -3.608  -2.501   2.089  0.00  0.00    +0.041 A 
ATOM     29  C   UNL     1      -3.034  -3.591   1.460  0.00  0.00    +0.022 A 
ATOM     30  C   UNL     1      -1.669  -3.625   1.244  0.00  0.00    +0.032 A 
ATOM     31 CL   UNL     1      -5.322  -2.458   2.360  0.00  0.00    -0.084 Cl
ENDBRANCH  22  25
ENDBRANCH  21  22
ENDBRANCH   7  21
TORSDOF 6
