REMARK  Name = ZINC64131546
REMARK  8 active torsions:
REMARK  status: ('A' for Active; 'I' for Inactive)
REMARK    1  A    between atoms: C_1  and  C_2
REMARK    2  A    between atoms: C_5  and  O_9
REMARK    3  A    between atoms: C_7  and  C_8
REMARK    4  A    between atoms: O_9  and  C_10
REMARK    5  A    between atoms: C_10  and  C_11
REMARK    6  A    between atoms: C_13  and  C_17
REMARK    7  A    between atoms: N_19  and  C_20
REMARK    8  A    between atoms: C_20  and  C_21
REMARK                            x       y       z     vdW  Elec       q    Type
REMARK                         _______ _______ _______ _____ _____    ______ ____
ROOT
ATOM      1  C   UNL     1       0.079  -6.266  -1.108  0.00  0.00    +0.161 C 
ATOM      2  C   UNL     1      -0.901  -7.064  -1.474  0.00  0.00    +0.051 C 
ATOM      3  C   UNL     1      -0.500  -8.485  -1.126  0.00  0.00    +0.204 C 
ATOM      4  N   UNL     1       0.964  -8.364  -0.901  0.00  0.00    -0.140 NA
ATOM      5  O   UNL     1       1.110  -6.941  -0.547  0.00  0.00    -0.407 OA
ATOM      6  H   UNL     1       1.478  -8.578  -1.742  0.00  0.00    +0.168 HD
ENDROOT
BRANCH   3   7
ATOM      7  C   UNL     1      -1.201  -8.947   0.126  0.00  0.00    +0.237 C 
ATOM      8  O   UNL     1      -0.616  -8.933   1.188  0.00  0.00    -0.274 OA
ATOM      9  N   UNL     1      -2.477  -9.375   0.065  0.00  0.00    -0.311 N 
ATOM     10  H   UNL     1      -2.945  -9.386  -0.785  0.00  0.00    +0.149 HD
BRANCH   9  11
ATOM     11  C   UNL     1      -3.158  -9.824   1.281  0.00  0.00    +0.133 C 
BRANCH  11  12
ATOM     12  C   UNL     1      -4.586 -10.254   0.938  0.00  0.00    +0.120 C 
ATOM     13  C   UNL     1      -5.361 -10.548   2.203  0.00  0.00    +0.009 C 
ATOM     14  C   UNL     1      -6.399  -9.682   2.215  0.00  0.00    -0.004 A 
ATOM     15  C   UNL     1      -7.500  -9.463   3.161  0.00  0.00    +0.010 A 
ATOM     16  C   UNL     1      -8.410  -8.498   2.896  0.00  0.00    +0.001 A 
ATOM     17  C   UNL     1      -8.329  -7.704   1.744  0.00  0.00    +0.002 A 
ATOM     18  C   UNL     1      -7.348  -7.846   0.829  0.00  0.00    +0.026 A 
ATOM     19  C   UNL     1      -6.336  -8.830   1.006  0.00  0.00    +0.043 A 
ATOM     20  N   UNL     1      -5.298  -9.158   0.273  0.00  0.00    -0.376 N 
ATOM     21  H   UNL     1      -5.044  -8.745  -0.568  0.00  0.00    +0.160 HD
ENDBRANCH  11  12
ENDBRANCH   9  11
ENDBRANCH   3   7
BRANCH   1  22
ATOM     22  C   UNL     1       0.058  -4.771  -1.298  0.00  0.00    +0.304 C 
BRANCH  22  23
ATOM     23  O   UNL     1       0.057  -4.129  -0.021  0.00  0.00    -0.484 OA
BRANCH  23  28
ATOM     24  C   UNL     1      -0.018   1.503   0.010  0.00  0.00    +0.044 C 
ATOM     25  C   UNL     1       0.002  -0.004   0.002  0.00  0.00    -0.047 A 
ATOM     26  C   UNL     1       0.006  -0.688  -1.200  0.00  0.00    +0.007 A 
ATOM     27  C   UNL     1       0.024  -2.069  -1.210  0.00  0.00    +0.046 A 
ATOM     28  C   UNL     1       0.039  -2.770  -0.013  0.00  0.00    +0.121 A 
ATOM     29  C   UNL     1       0.036  -2.082   1.191  0.00  0.00    +0.049 A 
ATOM     30  C   UNL     1       0.023  -0.701   1.196  0.00  0.00    -0.044 A 
ATOM     31  C   UNL     1       0.025   0.048   2.504  0.00  0.00    +0.044 C 
ENDBRANCH  23  28
ENDBRANCH  22  23
ENDBRANCH   1  22
TORSDOF 6
