REMARK  Name = ZINC35665249
REMARK  12 active torsions:
REMARK  status: ('A' for Active; 'I' for Inactive)
REMARK    1  A    between atoms: C_1  and  C_2
REMARK    2  A    between atoms: C_2  and  C_3
REMARK    3  A    between atoms: N_8  and  C_13
REMARK    4  A    between atoms: C_10  and  C_12
REMARK    5  A    between atoms: C_13  and  C_14
REMARK    6  A    between atoms: C_15  and  C_33
REMARK    7  A    between atoms: C_16  and  C_25
REMARK    8  A    between atoms: N_21  and  C_22
REMARK    9  A    between atoms: C_22  and  C_23
REMARK   10  A    between atoms: C_33  and  O_35
REMARK   11  A    between atoms: O_35  and  C_36
REMARK   12  A    between atoms: C_36  and  C_37
REMARK                            x       y       z     vdW  Elec       q    Type
REMARK                         _______ _______ _______ _____ _____    ______ ____
ROOT
ATOM      1  C   UNL     1      -0.555  -6.234  -1.654  0.00  0.00    +0.041 C 
ATOM      2  C   UNL     1      -0.866  -7.400  -1.047  0.00  0.00    +0.080 C 
ATOM      3  C   UNL     1       0.227  -8.443  -0.922  0.00  0.00    +0.145 C 
ATOM      4  N   UNL     1       1.546  -8.097  -1.478  0.00  0.00    -0.288 N 
ATOM      5  C   UNL     1       1.702  -6.889  -2.057  0.00  0.00    +0.307 C 
ATOM      6  O   UNL     1       2.787  -6.594  -2.518  0.00  0.00    -0.252 OA
ATOM      7  N   UNL     1       0.699  -6.006  -2.144  0.00  0.00    -0.254 N 
ATOM      8  H   UNL     1       2.285  -8.723  -1.429  0.00  0.00    +0.151 HD
ENDROOT
BRANCH   3   9
ATOM      9  C   UNL     1       0.407  -8.754   0.541  0.00  0.00    -0.004 A 
ATOM     10  C   UNL     1      -0.061  -7.873   1.498  0.00  0.00    +0.008 A 
ATOM     11  C   UNL     1       0.104  -8.159   2.840  0.00  0.00    +0.020 A 
ATOM     12  C   UNL     1       0.738  -9.326   3.227  0.00  0.00    +0.042 A 
ATOM     13  C   UNL     1       1.206 -10.208   2.270  0.00  0.00    +0.040 A 
ATOM     14  C   UNL     1       1.036  -9.924   0.926  0.00  0.00    +0.048 A 
ATOM     15 CL   UNL     1       1.618 -11.034  -0.276  0.00  0.00    -0.083 Cl
ATOM     16 CL   UNL     1       0.946  -9.684   4.913  0.00  0.00    -0.083 Cl
ENDBRANCH   3   9
BRANCH   2  17
ATOM     17  C   UNL     1      -2.166  -7.639  -0.543  0.00  0.00    +0.339 C 
ATOM     18  O   UNL     1      -3.062  -6.848  -0.771  0.00  0.00    -0.245 OA
BRANCH  17  19
ATOM     19  O   UNL     1      -2.413  -8.744   0.190  0.00  0.00    -0.462 OA
BRANCH  19  20
ATOM     20  C   UNL     1      -3.748  -8.922   0.666  0.00  0.00    +0.229 C 
ATOM     21  C   UNL     1      -3.834 -10.220   1.471  0.00  0.00    +0.048 C 
ENDBRANCH  19  20
ENDBRANCH  17  19
ENDBRANCH   2  17
BRANCH   1  22
ATOM     22  C   UNL     1      -1.612  -5.169  -1.799  0.00  0.00    +0.136 C 
BRANCH  22  28
ATOM     23  C   UNL     1      -5.374  -5.346  -5.705  0.00  0.00    +0.216 C 
ATOM     24  O   UNL     1      -5.923  -4.297  -5.967  0.00  0.00    -0.276 OA
ATOM     25  N   UNL     1      -4.153  -5.344  -5.135  0.00  0.00    -0.296 N 
ATOM     26  C   UNL     1      -3.512  -6.600  -4.716  0.00  0.00    +0.123 C 
ATOM     27  C   UNL     1      -3.054  -6.452  -3.262  0.00  0.00    +0.104 C 
ATOM     28  N   UNL     1      -2.212  -5.254  -3.137  0.00  0.00    -0.294 NA
ATOM     29  C   UNL     1      -2.970  -4.035  -3.452  0.00  0.00    +0.107 C 
ATOM     30  C   UNL     1      -3.423  -4.085  -4.920  0.00  0.00    +0.087 C 
ATOM     31  C   UNL     1      -4.344  -2.900  -5.216  0.00  0.00    +0.029 C 
BRANCH  23  33
ATOM     32  C   UNL     1      -7.420  -6.377  -6.655  0.00  0.00    +0.013 C 
ATOM     33  C   UNL     1      -6.057  -6.653  -6.017  0.00  0.00    +0.092 C 
ENDBRANCH  23  33
ENDBRANCH  22  28
ENDBRANCH   1  22
BRANCH   7  34
ATOM     34  C   UNL     1       0.964  -4.722  -2.796  0.00  0.00    +0.141 C 
BRANCH  34  35
ATOM     35  C   UNL     1       1.544  -3.759  -1.793  0.00  0.00    -0.015 C 
ATOM     36  C   UNL     1       2.692  -3.175  -2.033  0.00  0.00    +0.005 C 
ENDBRANCH  34  35
ENDBRANCH   7  34
TORSDOF 9
