REMARK  Name = ZINC15672431
REMARK  10 active torsions:
REMARK  status: ('A' for Active; 'I' for Inactive)
REMARK    1  A    between atoms: C_1  and  C_2
REMARK    2  A    between atoms: C_2  and  C_26
REMARK    3  A    between atoms: N_14  and  C_15
REMARK    4  A    between atoms: C_15  and  C_16
REMARK    5  A    between atoms: C_16  and  C_17
REMARK    6  A    between atoms: C_17  and  N_71
REMARK    7  A    between atoms: C_18  and  N_71
REMARK    8  A    between atoms: C_19  and  C_20
REMARK    9  A    between atoms: C_19  and  N_71
REMARK   10  A    between atoms: N_28  and  C_29
REMARK                            x       y       z     vdW  Elec       q    Type
REMARK                         _______ _______ _______ _____ _____    ______ ____
ROOT
ATOM      1  C   UNL     1      -4.068   4.881  -0.288  0.00  0.00    +0.043 C 
ATOM      2  C   UNL     1      -2.971   3.861  -0.602  0.00  0.00    +0.128 C 
ATOM      3  C   UNL     1      -1.675   4.304   0.078  0.00  0.00    +0.157 C 
ATOM      4  N   UNL     1      -0.713   3.200   0.037  0.00  0.00    -0.333 N 
ATOM      5  C   UNL     1       0.669   3.253   0.015  0.00  0.00    +0.057 A 
ATOM      6  C   UNL     1       1.690   4.214   0.007  0.00  0.00    +0.034 A 
ATOM      7  C   UNL     1       2.984   3.831  -0.009  0.00  0.00    +0.048 A 
ATOM      8  S   UNL     1       2.863   2.050  -0.016  0.00  0.00    -0.095 S 
ATOM      9  C   UNL     1       1.094   1.916   0.002  0.00  0.00    +0.038 A 
ATOM     10  C   UNL     1      -0.013   1.076   0.008  0.00  0.00    +0.048 A 
ATOM     11  C   UNL     1      -1.120   1.870   0.017  0.00  0.00    +0.106 A 
ATOM     12  C   UNL     1      -2.547   1.524   0.040  0.00  0.00    +0.264 C 
ATOM     13  O   UNL     1      -2.929   0.383   0.223  0.00  0.00    -0.268 OA
ATOM     14  N   UNL     1      -3.414   2.544  -0.159  0.00  0.00    -0.281 N 
ENDROOT
BRANCH   2  15
ATOM     15  C   UNL     1      -2.752   3.825  -2.092  0.00  0.00    +0.238 C 
ATOM     16  O   UNL     1      -3.055   4.782  -2.773  0.00  0.00    -0.273 OA
ATOM     17  N   UNL     1      -2.219   2.730  -2.669  0.00  0.00    -0.311 N 
ATOM     18  H   UNL     1      -1.976   1.964  -2.124  0.00  0.00    +0.149 HD
BRANCH  17  19
ATOM     19  C   UNL     1      -2.005   2.695  -4.118  0.00  0.00    +0.073 C 
ATOM     20  C   UNL     1      -3.295   2.253  -4.812  0.00  0.00    +0.022 C 
ATOM     21  C   UNL     1      -3.072   2.216  -6.326  0.00  0.00    +0.002 C 
ATOM     22  C   UNL     1      -1.951   1.227  -6.653  0.00  0.00    +0.000 C 
ATOM     23  C   UNL     1      -0.662   1.669  -5.958  0.00  0.00    +0.002 C 
ATOM     24  C   UNL     1      -0.885   1.706  -4.445  0.00  0.00    +0.022 C 
ENDBRANCH  17  19
ENDBRANCH   2  15
BRANCH  14  25
ATOM     25  C   UNL     1      -4.843   2.318   0.078  0.00  0.00    +0.107 C 
BRANCH  25  26
ATOM     26  C   UNL     1      -5.503   1.832  -1.214  0.00  0.00    +0.000 C 
BRANCH  26  27
ATOM     27  C   UNL     1      -6.994   1.596  -0.967  0.00  0.00    -0.077 C 
BRANCH  27  29
ATOM     28  C   UNL     1      -7.123  -0.197  -2.590  0.00  0.00    -0.096 C 
ATOM     29  N   UNL     1      -7.621   1.147  -2.228  0.00  0.00    +0.381 N 
ATOM     30  H   UNL     1      -7.375   1.807  -2.976  0.00  0.00    -0.082 HD
BRANCH  29  31
ATOM     31  C   UNL     1      -9.091   1.118  -2.079  0.00  0.00    -0.043 C 
BRANCH  31  32
ATOM     32  C   UNL     1      -9.712   0.874  -3.430  0.00  0.00    -0.064 A 
ATOM     33  C   UNL     1     -10.029   1.942  -4.248  0.00  0.00    +0.002 A 
ATOM     34  C   UNL     1     -10.594   1.719  -5.490  0.00  0.00    +0.000 A 
ATOM     35  C   UNL     1     -10.852   0.427  -5.909  0.00  0.00    +0.000 A 
ATOM     36  C   UNL     1     -10.540  -0.641  -5.089  0.00  0.00    +0.000 A 
ATOM     37  C   UNL     1      -9.970  -0.418  -3.850  0.00  0.00    +0.002 A 
ENDBRANCH  31  32
ENDBRANCH  29  31
ENDBRANCH  27  29
ENDBRANCH  26  27
ENDBRANCH  25  26
ENDBRANCH  14  25
TORSDOF 8
