REMARK  Name = ZINC01132061
REMARK  6 active torsions:
REMARK  status: ('A' for Active; 'I' for Inactive)
REMARK    1  A    between atoms: C_1  and  C_2
REMARK    2  A    between atoms: C_3  and  C_29
REMARK    3  A    between atoms: C_4  and  C_22
REMARK    4  A    between atoms: C_10  and  C_15
REMARK    5  A    between atoms: C_29  and  O_31
REMARK    6  A    between atoms: O_31  and  C_32
REMARK                            x       y       z     vdW  Elec       q    Type
REMARK                         _______ _______ _______ _____ _____    ______ ____
ROOT
ATOM      1  C   UNL     1      -6.491  -1.380   3.798  0.00  0.00    +0.061 C 
ATOM      2  C   UNL     1      -6.182  -0.707   2.486  0.00  0.00    +0.016 C 
ATOM      3  C   UNL     1      -6.851  -1.068   1.377  0.00  0.00    +0.065 C 
ATOM      4  C   UNL     1      -6.575  -0.415   0.054  0.00  0.00    +0.095 C 
ATOM      5  C   UNL     1      -5.247   0.299   0.070  0.00  0.00    +0.024 C 
ATOM      6  C   UNL     1      -4.646   0.610   1.238  0.00  0.00    +0.016 C 
ATOM      7  N   UNL     1      -5.224   0.266   2.430  0.00  0.00    -0.321 N 
ATOM      8  C   UNL     1      -3.329   1.346   1.261  0.00  0.00    +0.059 C 
ATOM      9  C   UNL     1      -2.513   0.978   0.020  0.00  0.00    +0.032 C 
ATOM     10  C   UNL     1      -3.331   1.341  -1.224  0.00  0.00    +0.088 C 
ATOM     11  C   UNL     1      -4.658   0.634  -1.161  0.00  0.00    +0.162 C 
ATOM     12  O   UNL     1      -5.229   0.346  -2.194  0.00  0.00    -0.292 OA
ATOM     13  H   UNL     1      -4.910   0.781   3.350  0.00  0.00    +0.152 HD
ENDROOT
BRANCH   9  14
ATOM     14  C   UNL     1      -1.219   1.750   0.017  0.00  0.00    -0.043 A 
ATOM     15  C   UNL     1      -0.013   1.076   0.008  0.00  0.00    +0.007 A 
ATOM     16  C   UNL     1       1.175   1.783   0.000  0.00  0.00    +0.038 A 
ATOM     17  C   UNL     1       1.156   3.167   0.008  0.00  0.00    +0.123 A 
ATOM     18  C   UNL     1      -0.053   3.842   0.022  0.00  0.00    +0.038 A 
ATOM     19  C   UNL     1      -1.240   3.133   0.030  0.00  0.00    +0.007 A 
ATOM     20  F   UNL     1       2.316   3.859  -0.000  0.00  0.00    -0.205 F 
ENDBRANCH   9  14
BRANCH   4  21
ATOM     21  C   UNL     1      -7.668   0.578  -0.245  0.00  0.00    -0.000 A 
ATOM     22  C   UNL     1      -7.877   1.651   0.600  0.00  0.00    +0.007 A 
ATOM     23  C   UNL     1      -8.876   2.566   0.322  0.00  0.00    +0.000 A 
ATOM     24  C   UNL     1      -9.674   2.401  -0.795  0.00  0.00    +0.003 A 
ATOM     25  C   UNL     1      -9.471   1.326  -1.638  0.00  0.00    +0.038 A 
ATOM     26  C   UNL     1      -8.467   0.412  -1.364  0.00  0.00    +0.127 A 
ATOM     27  F   UNL     1      -8.267  -0.640  -2.188  0.00  0.00    -0.205 F 
ENDBRANCH   4  21
BRANCH   3  28
ATOM     28  C   UNL     1      -7.833  -2.083   1.459  0.00  0.00    +0.338 C 
ATOM     29  O   UNL     1      -8.066  -2.619   2.526  0.00  0.00    -0.245 OA
BRANCH  28  30
ATOM     30  O   UNL     1      -8.512  -2.455   0.354  0.00  0.00    -0.458 OA
BRANCH  30  31
ATOM     31  C   UNL     1      -9.490  -3.486   0.510  0.00  0.00    +0.177 C 
ATOM     32  C   UNL     1      -8.854  -4.864   0.233  0.00  0.00    +0.044 C 
ATOM     33  C   UNL     1      -9.969  -5.657  -0.495  0.00  0.00    +0.004 C 
ATOM     34  C   UNL     1     -10.625  -4.579  -1.393  0.00  0.00    +0.004 C 
ATOM     35  C   UNL     1     -10.616  -3.305  -0.523  0.00  0.00    +0.044 C 
ENDBRANCH  30  31
ENDBRANCH  28  30
ENDBRANCH   3  28
TORSDOF 5
