REMARK  Name = ZINC25589402
REMARK  9 active torsions:
REMARK  status: ('A' for Active; 'I' for Inactive)
REMARK    1  A    between atoms: C_1  and  C_2
REMARK    2  A    between atoms: C_2  and  C_3
REMARK    3  A    between atoms: C_4  and  C_27
REMARK    4  A    between atoms: C_5  and  N_26
REMARK    5  A    between atoms: C_7  and  S_9
REMARK    6  A    between atoms: S_9  and  C_10
REMARK    7  A    between atoms: C_10  and  C_11
REMARK    8  A    between atoms: N_13  and  C_14
REMARK    9  A    between atoms: C_19  and  N_20
REMARK                            x       y       z     vdW  Elec       q    Type
REMARK                         _______ _______ _______ _____ _____    ______ ____
ROOT
ATOM      1  C   UNL     1      -3.361   1.038  -1.085  0.00  0.00    +0.055 A 
ATOM      2  C   UNL     1      -2.478   0.955  -0.009  0.00  0.00    +0.043 A 
ATOM      3  C   UNL     1      -2.838   0.150   1.087  0.00  0.00    +0.129 A 
ATOM      4  N   UNL     1      -3.995  -0.501   1.053  0.00  0.00    -0.207 NA
ATOM      5  C   UNL     1      -4.800  -0.397   0.005  0.00  0.00    +0.191 A 
ATOM      6  N   UNL     1      -4.492   0.353  -1.044  0.00  0.00    -0.226 NA
ENDROOT
BRANCH   2   7
ATOM      7  C   UNL     1      -1.197   1.701  -0.017  0.00  0.00    -0.013 A 
ATOM      8  C   UNL     1       0.014   1.011  -0.026  0.00  0.00    +0.010 A 
ATOM      9  C   UNL     1       1.204   1.710  -0.038  0.00  0.00    +0.020 A 
ATOM     10  C   UNL     1       1.196   3.095  -0.037  0.00  0.00    +0.041 A 
ATOM     11  C   UNL     1      -0.004   3.785  -0.023  0.00  0.00    +0.020 A 
ATOM     12  C   UNL     1      -1.200   3.095  -0.010  0.00  0.00    +0.010 A 
ATOM     13 CL   UNL     1       2.696   3.968  -0.054  0.00  0.00    -0.084 Cl
ENDBRANCH   2   7
BRANCH   3  14
ATOM     14  N   UNL     1      -2.001   0.038   2.183  0.00  0.00    -0.343 N 
ATOM     15  H   UNL     1      -2.291  -0.594   3.035  0.00  0.00    +0.144 HD
ATOM     16  H   UNL     1      -1.045   0.582   2.202  0.00  0.00    +0.144 HD
ENDBRANCH   3  14
BRANCH   1  18
ATOM     17  C   UNL     1      -2.262   1.054  -3.308  0.00  0.00    +0.010 C 
ATOM     18  C   UNL     1      -3.027   1.891  -2.281  0.00  0.00    +0.053 C 
ENDBRANCH   1  18
BRANCH   5  19
ATOM     19  S   UNL     1      -6.324  -1.281   0.007  0.00  0.00    -0.077 S 
BRANCH  19  20
ATOM     20  C   UNL     1      -6.214  -2.096   1.619  0.00  0.00    +0.173 C 
BRANCH  20  21
ATOM     21  C   UNL     1      -7.446  -2.933   1.845  0.00  0.00    +0.228 C 
ATOM     22  O   UNL     1      -8.314  -2.974   0.998  0.00  0.00    -0.275 OA
ATOM     23  N   UNL     1      -7.584  -3.635   2.986  0.00  0.00    -0.283 N 
ATOM     24  H   UNL     1      -6.766  -3.656   3.721  0.00  0.00    +0.155 HD
BRANCH  23  25
ATOM     25  C   UNL     1      -8.770  -4.338   3.237  0.00  0.00    +0.055 A 
ATOM     26  C   UNL     1      -9.462  -4.930   2.191  0.00  0.00    +0.025 A 
ATOM     27  C   UNL     1     -10.629  -5.627   2.442  0.00  0.00    +0.002 A 
ATOM     28  C   UNL     1     -11.115  -5.729   3.733  0.00  0.00    +0.002 A 
ATOM     29  C   UNL     1     -10.434  -5.138   4.780  0.00  0.00    +0.025 A 
ATOM     30  C   UNL     1      -9.260  -4.441   4.539  0.00  0.00    +0.057 A 
BRANCH  30  31
ATOM     31  N   UNL     1      -8.568  -3.841   5.599  0.00  0.00    -0.270 N 
ATOM     32  C   UNL     1      -8.793  -2.466   6.062  0.00  0.00    +0.114 C 
ATOM     33  C   UNL     1      -8.160  -2.400   7.472  0.00  0.00    +0.029 C 
ATOM     34  C   UNL     1      -7.089  -3.511   7.387  0.00  0.00    +0.098 C 
ATOM     35  C   UNL     1      -7.610  -4.448   6.319  0.00  0.00    +0.220 C 
ATOM     36  O   UNL     1      -7.220  -5.582   6.140  0.00  0.00    -0.275 OA
ENDBRANCH  30  31
ENDBRANCH  23  25
ENDBRANCH  20  21
ENDBRANCH  19  20
ENDBRANCH   5  19
TORSDOF 8
