REMARK  Name = ZINC09935075
REMARK  4 active torsions:
REMARK  status: ('A' for Active; 'I' for Inactive)
REMARK    1  A    between atoms: C_7  and  C_18
REMARK    2  A    between atoms: C_7  and  O_26
REMARK    3  A    between atoms: N_10  and  C_11
REMARK    4  A    between atoms: C_11  and  N_48
REMARK                            x       y       z     vdW  Elec       q    Type
REMARK                         _______ _______ _______ _____ _____    ______ ____
ROOT
ATOM      1  C   UNL     1       6.246   2.190  -1.022  0.00  0.00    +0.000 A 
ATOM      2  C   UNL     1       7.209   1.200  -1.097  0.00  0.00    +0.002 A 
ATOM      3  C   UNL     1       6.840  -0.123  -1.226  0.00  0.00    +0.024 A 
ATOM      4  C   UNL     1       5.492  -0.472  -1.281  0.00  0.00    +0.041 A 
ATOM      5  C   UNL     1       4.535   0.532  -1.205  0.00  0.00    +0.016 A 
ATOM      6  C   UNL     1       4.905   1.851  -1.076  0.00  0.00    +0.009 A 
ATOM      7  C   UNL     1       3.191  -0.155  -1.292  0.00  0.00    +0.189 C 
ATOM      8  C   UNL     1       3.533  -1.624  -1.425  0.00  0.00    +0.256 C 
ATOM      9  O   UNL     1       2.745  -2.541  -1.526  0.00  0.00    -0.272 OA
ATOM     10  N   UNL     1       4.876  -1.718  -1.408  0.00  0.00    -0.285 N 
ENDROOT
BRANCH   7  11
ATOM     11  C   UNL     1       2.378   0.094  -0.020  0.00  0.00    +0.187 C 
ATOM     12  C   UNL     1       1.092  -0.725  -0.012  0.00  0.00    +0.255 C 
ATOM     13  O   UNL     1       1.082  -1.940  -0.018  0.00  0.00    -0.272 OA
ATOM     14  N   UNL     1       0.002  -0.004   0.002  0.00  0.00    -0.159 NA
ATOM     15  C   UNL     1      -0.016   1.319   0.009  0.00  0.00    +0.145 C 
ATOM     16  S   UNL     1       1.657   1.784  -0.004  0.00  0.00    -0.077 S 
ATOM     17  N   UNL     1      -1.107   2.137   0.019  0.00  0.00    -0.340 N 
ATOM     18  H   UNL     1      -1.999   1.756   0.022  0.00  0.00    +0.144 HD
ATOM     19  H   UNL     1      -0.991   3.100   0.023  0.00  0.00    +0.144 HD
ENDBRANCH   7  11
BRANCH   7  20
ATOM     20  O   UNL     1       2.471   0.297  -2.441  0.00  0.00    -0.373 OA
ATOM     21  H   UNL     1       2.940   0.164  -3.276  0.00  0.00    +0.211 HD
ENDBRANCH   7  20
BRANCH  10  22
ATOM     22  C   UNL     1       5.607  -2.983  -1.513  0.00  0.00    +0.038 C 
BRANCH  22  29
ATOM     23  C   UNL     1       6.914  -2.812   0.529  0.00  0.00    -0.077 C 
ATOM     24  C   UNL     1       7.359  -3.503   1.788  0.00  0.00    -0.019 C 
ATOM     25  C   UNL     1       8.560  -4.412   1.449  0.00  0.00    -0.002 C 
ATOM     26  C   UNL     1       8.145  -5.659   0.815  0.00  0.00    -0.002 C 
ATOM     27  C   UNL     1       7.412  -5.418  -0.521  0.00  0.00    -0.019 C 
ATOM     28  C   UNL     1       5.997  -5.003  -0.220  0.00  0.00    -0.077 C 
ATOM     29  N   UNL     1       5.776  -3.518  -0.153  0.00  0.00    +0.390 N 
ATOM     30  H   UNL     1       4.918  -3.342   0.382  0.00  0.00    -0.080 HD
ENDBRANCH  22  29
ENDBRANCH  10  22
TORSDOF 4
