REMARK  Name = ZINC52663039
REMARK  8 active torsions:
REMARK  status: ('A' for Active; 'I' for Inactive)
REMARK    1  A    between atoms: C_1  and  C_2
REMARK    2  A    between atoms: N_10  and  C_13
REMARK    3  A    between atoms: C_13  and  C_14
REMARK    4  A    between atoms: N_16  and  C_17
REMARK    5  A    between atoms: C_17  and  C_18
REMARK    6  A    between atoms: C_18  and  O_19
REMARK    7  A    between atoms: O_19  and  C_20
REMARK    8  A    between atoms: C_26  and  C_28
REMARK                            x       y       z     vdW  Elec       q    Type
REMARK                         _______ _______ _______ _____ _____    ______ ____
ROOT
ATOM      1  C   UNL     1      -1.499  -6.734   5.095  0.00  0.00    +0.227 C 
ATOM      2  O   UNL     1      -0.549  -7.140   4.459  0.00  0.00    -0.274 OA
ATOM      3  N   UNL     1      -2.236  -7.593   5.827  0.00  0.00    -0.312 N 
ATOM      4  H   UNL     1      -2.996  -7.269   6.335  0.00  0.00    +0.149 HD
ENDROOT
BRANCH   1   5
ATOM      5  C   UNL     1      -1.855  -5.271   5.066  0.00  0.00    +0.180 C 
BRANCH   5  15
ATOM      6  C   UNL     1      -0.018   1.503   0.010  0.00  0.00    +0.066 C 
ATOM      7  C   UNL     1       0.002  -0.004   0.002  0.00  0.00    +0.047 A 
ATOM      8  C   UNL     1       0.006  -0.705  -1.157  0.00  0.00    +0.071 A 
ATOM      9  S   UNL     1       0.033  -2.378  -0.535  0.00  0.00    -0.060 S 
ATOM     10  C   UNL     1       0.035  -2.016   1.109  0.00  0.00    +0.161 A 
ATOM     11  N   UNL     1       0.022  -0.700   1.125  0.00  0.00    -0.230 NA
ATOM     12  N   UNL     1       0.053  -2.891   2.183  0.00  0.00    -0.307 N 
ATOM     13  C   UNL     1       0.045  -2.389   3.566  0.00  0.00    +0.122 C 
ATOM     14  C   UNL     1      -1.073  -3.099   4.336  0.00  0.00    +0.104 C 
ATOM     15  N   UNL     1      -0.907  -4.552   4.204  0.00  0.00    -0.291 NA
ATOM     16  C   UNL     1      -1.041  -4.979   2.805  0.00  0.00    +0.104 C 
ATOM     17  C   UNL     1       0.072  -4.346   1.972  0.00  0.00    +0.122 C 
ENDBRANCH   5  15
ENDBRANCH   1   5
BRANCH   3  18
ATOM     18  C   UNL     1      -1.889  -9.017   5.854  0.00  0.00    +0.132 C 
BRANCH  18  19
ATOM     19  C   UNL     1      -2.877  -9.765   6.752  0.00  0.00    +0.179 C 
BRANCH  19  20
ATOM     20  O   UNL     1      -4.184  -9.705   6.177  0.00  0.00    -0.375 OA
BRANCH  20  21
ATOM     21  C   UNL     1      -5.186 -10.377   6.942  0.00  0.00    +0.121 C 
ATOM     22  C   UNL     1      -5.281 -11.835   6.489  0.00  0.00    +0.032 C 
ATOM     23  C   UNL     1      -5.651 -11.886   5.006  0.00  0.00    +0.003 C 
ATOM     24  C   UNL     1      -7.001 -11.198   4.793  0.00  0.00    +0.000 C 
ATOM     25  C   UNL     1      -6.907  -9.739   5.246  0.00  0.00    +0.006 C 
ATOM     26  C   UNL     1      -6.536  -9.688   6.729  0.00  0.00    +0.015 C 
ATOM     27  C   UNL     1      -6.442  -8.230   7.182  0.00  0.00    +0.010 C 
ENDBRANCH  20  21
ENDBRANCH  19  20
ENDBRANCH  18  19
ENDBRANCH   3  18
TORSDOF 6
