REMARK  Name = ZINC40315088
REMARK  12 active torsions:
REMARK  status: ('A' for Active; 'I' for Inactive)
REMARK    1  A    between atoms: C_1  and  C_2
REMARK    2  A    between atoms: C_5  and  O_9
REMARK    3  A    between atoms: C_7  and  C_8
REMARK    4  A    between atoms: O_9  and  C_10
REMARK    5  A    between atoms: C_10  and  C_11
REMARK    6  A    between atoms: C_11  and  C_13
REMARK    7  A    between atoms: C_11  and  O_36
REMARK    8  A    between atoms: C_13  and  N_14
REMARK    9  A    between atoms: N_14  and  C_15
REMARK   10  A    between atoms: N_14  and  C_28
REMARK   11  A    between atoms: C_15  and  C_16
REMARK   12  A    between atoms: C_19  and  C_21
REMARK                            x       y       z     vdW  Elec       q    Type
REMARK                         _______ _______ _______ _____ _____    ______ ____
ROOT
ATOM      1  N   UNL     1      -0.365  -8.285  -2.474  0.00  0.00    +0.389 N 
ATOM      2  H   UNL     1      -1.284  -8.693  -2.394  0.00  0.00    -0.081 HD
ENDROOT
BRANCH   1   3
ATOM      3  C   UNL     1       0.340  -8.410  -1.192  0.00  0.00    -0.045 C 
ATOM      4  C   UNL     1       0.294  -9.871  -0.714  0.00  0.00    +0.009 C 
ATOM      5  C   UNL     1       0.743  -9.957   0.765  0.00  0.00    +0.164 C 
ATOM      6  S   UNL     1       0.277  -8.305   1.425  0.00  0.00    -0.033 S 
ATOM      7  O   UNL     1       1.454  -7.622   1.835  0.00  0.00    -0.174 OA
ATOM      8  O   UNL     1      -0.796  -8.460   2.343  0.00  0.00    -0.174 OA
ATOM      9  C   UNL     1      -0.360  -7.528  -0.119  0.00  0.00    +0.151 C 
ENDBRANCH   1   3
BRANCH   1  10
ATOM     10  C   UNL     1      -0.489  -6.865  -2.828  0.00  0.00    -0.043 C 
BRANCH  10  11
ATOM     11  C   UNL     1      -1.966  -6.465  -2.820  0.00  0.00    +0.135 C 
BRANCH  11  12
ATOM     12  O   UNL     1      -2.654  -7.162  -3.860  0.00  0.00    -0.390 OA
ATOM     13  H   UNL     1      -2.314  -6.981  -4.747  0.00  0.00    +0.210 HD
ENDBRANCH  11  12
BRANCH  11  14
ATOM     14  C   UNL     1      -2.087  -4.957  -3.050  0.00  0.00    +0.258 C 
BRANCH  14  15
ATOM     15  O   UNL     1      -3.455  -4.564  -2.927  0.00  0.00    -0.489 OA
BRANCH  15  20
ATOM     16  C   UNL     1      -4.626   0.896  -3.664  0.00  0.00    +0.044 C 
ATOM     17  C   UNL     1      -4.313  -0.565  -3.466  0.00  0.00    -0.047 A 
ATOM     18  C   UNL     1      -3.008  -1.012  -3.571  0.00  0.00    +0.007 A 
ATOM     19  C   UNL     1      -2.718  -2.350  -3.391  0.00  0.00    +0.046 A 
ATOM     20  C   UNL     1      -3.738  -3.247  -3.104  0.00  0.00    +0.121 A 
ATOM     21  C   UNL     1      -5.045  -2.796  -3.000  0.00  0.00    +0.049 A 
ATOM     22  C   UNL     1      -5.329  -1.456  -3.175  0.00  0.00    -0.044 A 
ATOM     23  C   UNL     1      -6.749  -0.965  -3.056  0.00  0.00    +0.044 C 
ENDBRANCH  15  20
ENDBRANCH  14  15
ENDBRANCH  11  14
ENDBRANCH  10  11
ENDBRANCH   1  10
BRANCH   1  24
ATOM     24  C   UNL     1       0.392  -8.986  -3.520  0.00  0.00    -0.003 C 
BRANCH  24  25
ATOM     25  C   UNL     1       0.392 -10.466  -3.233  0.00  0.00    +0.089 A 
ATOM     26  C   UNL     1      -0.691 -11.267  -3.236  0.00  0.00    +0.043 A 
ATOM     27  C   UNL     1      -0.245 -12.566  -2.920  0.00  0.00    +0.050 A 
ATOM     28  C   UNL     1       1.100 -12.485  -2.739  0.00  0.00    +0.135 A 
ATOM     29  O   UNL     1       1.474 -11.206  -2.938  0.00  0.00    -0.462 OA
BRANCH  28  30
ATOM     30  C   UNL     1       1.998 -13.606  -2.391  0.00  0.00    +0.017 A 
ATOM     31  C   UNL     1       1.480 -14.891  -2.223  0.00  0.00    +0.014 A 
ATOM     32  C   UNL     1       2.322 -15.934  -1.898  0.00  0.00    +0.039 A 
ATOM     33  C   UNL     1       3.679 -15.708  -1.737  0.00  0.00    +0.123 A 
ATOM     34  C   UNL     1       4.199 -14.434  -1.903  0.00  0.00    +0.039 A 
ATOM     35  C   UNL     1       3.367 -13.385  -2.234  0.00  0.00    +0.014 A 
ATOM     36  F   UNL     1       4.499 -16.733  -1.418  0.00  0.00    -0.205 F 
ENDBRANCH  28  30
ENDBRANCH  24  25
ENDBRANCH   1  24
TORSDOF 10
