REMARK  Name = ZINC27562179
REMARK  7 active torsions:
REMARK  status: ('A' for Active; 'I' for Inactive)
REMARK    1  A    between atoms: C_10  and  C_11
REMARK    2  A    between atoms: C_13  and  C_30
REMARK    3  A    between atoms: C_14  and  N_16
REMARK    4  A    between atoms: N_16  and  C_17
REMARK    5  A    between atoms: C_17  and  C_18
REMARK    6  A    between atoms: C_18  and  C_20
REMARK    7  A    between atoms: C_18  and  N_25
REMARK                            x       y       z     vdW  Elec       q    Type
REMARK                         _______ _______ _______ _____ _____    ______ ____
ROOT
ATOM      1  C   UNL     1      -0.052   0.052   0.732  0.00  0.00    +0.231 A 
ATOM      2  N   UNL     1       1.041  -0.665   0.665  0.00  0.00    -0.196 NA
ATOM      3  C   UNL     1       0.695  -1.974   0.551  0.00  0.00    +0.201 A 
ATOM      4  C   UNL     1      -0.692  -2.025   0.544  0.00  0.00    +0.225 A 
ATOM      5  O   UNL     1      -1.127  -0.757   0.657  0.00  0.00    -0.421 OA
ENDROOT
BRANCH   1  15
ATOM      6  C   UNL     1      -2.614   3.831  -1.564  0.00  0.00    +0.001 A 
ATOM      7  C   UNL     1      -2.586   2.445  -1.706  0.00  0.00    +0.001 A 
ATOM      8  C   UNL     1      -1.774   1.677  -0.926  0.00  0.00    +0.009 A 
ATOM      9  C   UNL     1      -0.956   2.287   0.035  0.00  0.00    -0.006 A 
ATOM     10  C   UNL     1      -0.983   3.695   0.181  0.00  0.00    -0.017 A 
ATOM     11  C   UNL     1      -1.833   4.456  -0.641  0.00  0.00    +0.008 A 
ATOM     12  C   UNL     1      -0.163   4.307   1.144  0.00  0.00    +0.008 A 
ATOM     13  C   UNL     1       0.653   3.549   1.930  0.00  0.00    +0.001 A 
ATOM     14  C   UNL     1       0.689   2.166   1.805  0.00  0.00    +0.014 A 
ATOM     15  C   UNL     1      -0.100   1.520   0.864  0.00  0.00    +0.045 A 
ENDBRANCH   1  15
BRANCH   4  16
ATOM     16  N   UNL     1      -1.472  -3.155   0.440  0.00  0.00    -0.314 N 
ATOM     17  H   UNL     1      -0.999  -4.144   0.353  0.00  0.00    +0.149 HD
BRANCH  16  18
ATOM     18  C   UNL     1      -2.933  -3.040   0.447  0.00  0.00    +0.097 C 
BRANCH  18  19
ATOM     19  C   UNL     1      -3.554  -4.438   0.454  0.00  0.00    +0.016 C 
BRANCH  19  20
ATOM     20  N   UNL     1      -5.016  -4.325   0.356  0.00  0.00    +0.387 N 
ATOM     21  C   UNL     1      -5.413  -3.625  -0.892  0.00  0.00    -0.078 C 
ATOM     22  C   UNL     1      -6.888  -4.055  -1.086  0.00  0.00    -0.020 C 
ATOM     23  C   UNL     1      -6.882  -5.530  -0.623  0.00  0.00    -0.020 C 
ATOM     24  C   UNL     1      -5.647  -5.661   0.288  0.00  0.00    -0.078 C 
ATOM     25  H   UNL     1      -5.334  -3.774   1.254  0.00  0.00    -0.081 HD
ENDBRANCH  19  20
BRANCH  19  26
ATOM     26  C   UNL     1      -3.190  -5.144   1.735  0.00  0.00    +0.093 A 
ATOM     27  C   UNL     1      -2.218  -6.063   1.878  0.00  0.00    +0.043 A 
ATOM     28  C   UNL     1      -2.222  -6.455   3.236  0.00  0.00    +0.041 A 
ATOM     29  C   UNL     1      -3.201  -5.758   3.840  0.00  0.00    +0.195 A 
ATOM     30  O   UNL     1      -3.784  -4.966   2.926  0.00  0.00    -0.469 OA
ENDBRANCH  19  26
ENDBRANCH  18  19
ENDBRANCH  16  18
ENDBRANCH   4  16
BRANCH   3  31
ATOM     31  C   UNL     1       1.590  -3.087   0.452  0.00  0.00    +0.124 C 
ATOM     32  N   UNL     1       2.300  -3.970   0.373  0.00  0.00    -0.189 NA
ENDBRANCH   3  31
TORSDOF 7
