REMARK  Name = ZINC63732000
REMARK  7 active torsions:
REMARK  status: ('A' for Active; 'I' for Inactive)
REMARK    1  A    between atoms: C_6  and  C_11
REMARK    2  A    between atoms: C_11  and  C_12
REMARK    3  A    between atoms: C_12  and  C_14
REMARK    4  A    between atoms: C_12  and  N_23
REMARK    5  A    between atoms: N_16  and  C_17
REMARK    6  A    between atoms: N_23  and  S_24
REMARK    7  A    between atoms: S_24  and  C_27
REMARK                            x       y       z     vdW  Elec       q    Type
REMARK                         _______ _______ _______ _____ _____    ______ ____
ROOT
ATOM      1  C   UNL     1       5.127  -2.827  -1.325  0.00  0.00    +0.164 C 
ENDROOT
BRANCH   1   2
ATOM      2  C   UNL     1       5.676  -3.311  -2.642  0.00  0.00    +0.232 C 
ATOM      3  O   UNL     1       6.455  -4.240  -2.669  0.00  0.00    -0.274 OA
ATOM      4  N   UNL     1       5.302  -2.711  -3.789  0.00  0.00    -0.311 N 
ATOM      5  H   UNL     1       4.679  -1.968  -3.767  0.00  0.00    +0.149 HD
BRANCH   4   6
ATOM      6  C   UNL     1       5.836  -3.182  -5.070  0.00  0.00    +0.073 C 
ATOM      7  C   UNL     1       7.188  -2.517  -5.335  0.00  0.00    +0.022 C 
ATOM      8  C   UNL     1       7.745  -3.008  -6.672  0.00  0.00    +0.002 C 
ATOM      9  C   UNL     1       6.770  -2.647  -7.794  0.00  0.00    +0.000 C 
ATOM     10  C   UNL     1       5.418  -3.313  -7.530  0.00  0.00    +0.002 C 
ATOM     11  C   UNL     1       4.861  -2.821  -6.192  0.00  0.00    +0.022 C 
ENDBRANCH   4   6
ENDBRANCH   1   2
BRANCH   1  12
ATOM     12  N   UNL     1       5.683  -3.636  -0.237  0.00  0.00    -0.178 NA
ATOM     13  H   UNL     1       5.261  -4.474   0.008  0.00  0.00    +0.149 HD
BRANCH  12  14
ATOM     14  S   UNL     1       7.031  -3.119   0.574  0.00  0.00    +0.059 S 
ATOM     15  O   UNL     1       7.287  -4.079   1.590  0.00  0.00    -0.153 OA
ATOM     16  O   UNL     1       7.994  -2.780  -0.414  0.00  0.00    -0.153 OA
BRANCH  14  17
ATOM     17  C   UNL     1       6.603  -1.620   1.395  0.00  0.00    +0.106 A 
ATOM     18  C   UNL     1       6.729  -0.411   0.735  0.00  0.00    +0.030 A 
ATOM     19  C   UNL     1       6.394   0.766   1.374  0.00  0.00    +0.025 A 
ATOM     20  C   UNL     1       5.930   0.735   2.683  0.00  0.00    +0.037 A 
ATOM     21  C   UNL     1       5.803  -0.480   3.342  0.00  0.00    -0.024 A 
ATOM     22  C   UNL     1       6.135  -1.655   2.696  0.00  0.00    +0.034 A 
ATOM     23  C   UNL     1       5.298  -0.514   4.761  0.00  0.00    +0.046 C 
ATOM     24  C   UNL     1       5.777   0.734   5.504  0.00  0.00    +0.101 C 
ATOM     25  C   UNL     1       5.497   1.960   4.678  0.00  0.00    +0.218 C 
ATOM     26  O   UNL     1       5.185   2.995   5.229  0.00  0.00    -0.275 OA
ATOM     27  N   UNL     1       5.588   1.923   3.336  0.00  0.00    -0.285 N 
ATOM     28  H   UNL     1       5.417   2.725   2.819  0.00  0.00    +0.155 HD
ENDBRANCH  14  17
ENDBRANCH  12  14
ENDBRANCH   1  12
BRANCH   1  29
ATOM     29  C   UNL     1       3.603  -2.956  -1.329  0.00  0.00    +0.058 C 
BRANCH  29  35
ATOM     30  C   UNL     1      -0.579   0.502   0.258  0.00  0.00    +0.001 A 
ATOM     31  C   UNL     1       0.481   1.419   0.271  0.00  0.00    +0.002 A 
ATOM     32  C   UNL     1       1.775   1.040   0.207  0.00  0.00    +0.026 A 
ATOM     33  C   UNL     1       2.116  -0.338   0.121  0.00  0.00    +0.043 A 
ATOM     34  N   UNL     1       3.275  -0.947   0.048  0.00  0.00    -0.378 N 
ATOM     35  C   UNL     1       3.039  -2.393  -0.022  0.00  0.00    +0.105 C 
ATOM     36  C   UNL     1       1.538  -2.571   0.019  0.00  0.00    +0.007 C 
ATOM     37  C   UNL     1       1.015  -1.327   0.105  0.00  0.00    -0.004 A 
ATOM     38  C   UNL     1      -0.364  -0.831   0.179  0.00  0.00    +0.010 A 
ATOM     39  H   UNL     1       4.143  -0.513   0.042  0.00  0.00    +0.160 HD
ENDBRANCH  29  35
ENDBRANCH   1  29
TORSDOF 7
