REMARK  Name = ZINC09275573
REMARK  9 active torsions:
REMARK  status: ('A' for Active; 'I' for Inactive)
REMARK    1  A    between atoms: C_1  and  C_2
REMARK    2  A    between atoms: C_2  and  O_3
REMARK    3  A    between atoms: O_3  and  C_4
REMARK    4  A    between atoms: C_7  and  N_10
REMARK    5  A    between atoms: C_11  and  C_28
REMARK    6  A    between atoms: C_14  and  C_15
REMARK    7  A    between atoms: C_14  and  O_23
REMARK    8  A    between atoms: C_16  and  C_17
REMARK    9  A    between atoms: C_32  and  N_34
REMARK                            x       y       z     vdW  Elec       q    Type
REMARK                         _______ _______ _______ _____ _____    ______ ____
ROOT
ATOM      1  N   UNL     1       1.149   2.139   0.166  0.00  0.00    -0.253 N 
ATOM      2  C   UNL     1      -0.185   1.530   0.161  0.00  0.00    +0.150 C 
ATOM      3  C   UNL     1      -0.687   1.602  -1.262  0.00  0.00    +0.071 C 
ATOM      4  C   UNL     1      -1.906   1.144  -1.740  0.00  0.00    +0.126 C 
ATOM      5  C   UNL     1       0.327   2.222  -2.003  0.00  0.00    +0.249 C 
ATOM      6  O   UNL     1       0.295   2.461  -3.197  0.00  0.00    -0.282 OA
ATOM      7  C   UNL     1       1.448   2.540  -1.081  0.00  0.00    +0.292 C 
ATOM      8  O   UNL     1       2.485   3.083  -1.407  0.00  0.00    -0.266 OA
ENDROOT
BRANCH   1  12
ATOM      9  C   UNL     1       3.610   2.557   3.504  0.00  0.00    +0.121 A 
ATOM     10  C   UNL     1       4.037   3.015   2.266  0.00  0.00    +0.047 A 
ATOM     11  C   UNL     1       3.222   2.877   1.159  0.00  0.00    +0.027 A 
ATOM     12  C   UNL     1       1.975   2.279   1.286  0.00  0.00    +0.038 A 
ATOM     13  C   UNL     1       1.546   1.826   2.527  0.00  0.00    +0.027 A 
ATOM     14  C   UNL     1       2.364   1.960   3.631  0.00  0.00    +0.047 A 
BRANCH   9  15
ATOM     15  O   UNL     1       4.413   2.692   4.592  0.00  0.00    -0.492 OA
BRANCH  15  17
ATOM     16  C   UNL     1       4.946   2.438   6.936  0.00  0.00    +0.048 C 
ATOM     17  C   UNL     1       3.910   2.198   5.835  0.00  0.00    +0.225 C 
ENDBRANCH  15  17
ENDBRANCH   9  15
ENDBRANCH   1  12
BRANCH   2  18
ATOM     18  C   UNL     1      -1.106   2.297   1.074  0.00  0.00    -0.020 A 
ATOM     19  C   UNL     1      -1.036   3.677   1.126  0.00  0.00    +0.006 A 
ATOM     20  C   UNL     1      -1.885   4.381   1.959  0.00  0.00    +0.003 A 
ATOM     21  C   UNL     1      -2.796   3.705   2.749  0.00  0.00    +0.033 A 
ATOM     22  C   UNL     1      -2.862   2.325   2.701  0.00  0.00    +0.127 A 
ATOM     23  C   UNL     1      -2.017   1.621   1.863  0.00  0.00    +0.038 A 
BRANCH  22  24
ATOM     24  N   UNL     1      -3.838   1.601   3.547  0.00  0.00    +0.056 N 
ATOM     25  O   UNL     1      -3.896   0.385   3.505  0.00  0.00    -0.126 OA
ATOM     26  O   UNL     1      -4.582   2.221   4.285  0.00  0.00    -0.126 OA
ENDBRANCH  22  24
ENDBRANCH   2  18
BRANCH   4  27
ATOM     27  C   UNL     1      -2.827   0.536  -0.858  0.00  0.00    +0.046 C 
ATOM     28  C   UNL     1      -4.062   0.196  -1.297  0.00  0.00    +0.011 C 
BRANCH  28  29
ATOM     29  C   UNL     1      -4.969  -0.565  -0.425  0.00  0.00    -0.025 A 
ATOM     30  C   UNL     1      -4.558  -0.945   0.858  0.00  0.00    +0.008 A 
ATOM     31  C   UNL     1      -5.416  -1.652   1.671  0.00  0.00    +0.001 A 
ATOM     32  C   UNL     1      -6.678  -1.998   1.218  0.00  0.00    +0.000 A 
ATOM     33  C   UNL     1      -7.090  -1.631  -0.051  0.00  0.00    +0.001 A 
ATOM     34  C   UNL     1      -6.246  -0.918  -0.875  0.00  0.00    +0.008 A 
ENDBRANCH  28  29
ENDBRANCH   4  27
BRANCH   4  35
ATOM     35  O   UNL     1      -2.214   1.281  -3.049  0.00  0.00    -0.506 OA
ATOM     36  H   UNL     1      -3.123   0.901  -3.220  0.00  0.00    +0.292 HD
ENDBRANCH   4  35
TORSDOF 8
