REMARK  Name = ZINC38671061
REMARK  7 active torsions:
REMARK  status: ('A' for Active; 'I' for Inactive)
REMARK    1  A    between atoms: C_1  and  N_2
REMARK    2  A    between atoms: C_10  and  C_12
REMARK    3  A    between atoms: C_12  and  C_14
REMARK    4  A    between atoms: C_12  and  N_32
REMARK    5  A    between atoms: C_14  and  N_15
REMARK    6  A    between atoms: C_16  and  C_18
REMARK    7  A    between atoms: N_23  and  C_25
REMARK                            x       y       z     vdW  Elec       q    Type
REMARK                         _______ _______ _______ _____ _____    ______ ____
ROOT
ATOM      1  C   UNL     1       4.884  -2.763  -0.420  0.00  0.00    -0.020 C 
ENDROOT
BRANCH   1  11
ATOM      2  C   UNL     1      -0.211   1.285   0.064  0.00  0.00    +0.129 C 
ATOM      3  N   UNL     1      -0.150  -0.171  -0.079  0.00  0.00    -0.333 N 
ATOM      4  C   UNL     1      -1.383  -0.968  -0.141  0.00  0.00    +0.105 C 
ATOM      5  C   UNL     1      -1.199  -2.189   0.769  0.00  0.00    +0.024 C 
ATOM      6  C   UNL     1      -0.058  -3.046   0.222  0.00  0.00    +0.038 C 
ATOM      7  C   UNL     1       1.167  -2.204  -0.015  0.00  0.00    -0.026 A 
ATOM      8  C   UNL     1       1.084  -0.827  -0.163  0.00  0.00    +0.033 A 
ATOM      9  C   UNL     1       2.233  -0.079  -0.391  0.00  0.00    +0.023 A 
ATOM     10  C   UNL     1       3.461  -0.706  -0.475  0.00  0.00    +0.004 A 
ATOM     11  C   UNL     1       3.545  -2.078  -0.331  0.00  0.00    -0.059 A 
ATOM     12  C   UNL     1       2.402  -2.825  -0.093  0.00  0.00    +0.007 A 
ENDBRANCH   1  11
BRANCH   1  13
ATOM     13  N   UNL     1       5.897  -1.948   0.266  0.00  0.00    +0.385 N 
ATOM     14  C   UNL     1       7.218  -2.563   0.089  0.00  0.00    -0.078 C 
ATOM     15  C   UNL     1       8.287  -1.676   0.732  0.00  0.00    -0.019 C 
ATOM     16  C   UNL     1       7.987  -1.527   2.226  0.00  0.00    -0.004 C 
ATOM     17  C   UNL     1       6.578  -0.955   2.399  0.00  0.00    -0.019 C 
ATOM     18  C   UNL     1       5.572  -1.868   1.695  0.00  0.00    -0.078 C 
ATOM     19  H   UNL     1       5.904  -1.020  -0.130  0.00  0.00    -0.081 HD
ENDBRANCH   1  13
BRANCH   1  20
ATOM     20  C   UNL     1       5.274  -2.931  -1.890  0.00  0.00    +0.093 C 
BRANCH  20  21
ATOM     21  N   UNL     1       4.290  -3.783  -2.562  0.00  0.00    -0.316 N 
ATOM     22  C   UNL     1       4.372  -3.988  -3.891  0.00  0.00    +0.218 C 
ATOM     23  O   UNL     1       5.261  -3.466  -4.531  0.00  0.00    -0.275 OA
ATOM     24  H   UNL     1       3.580  -4.200  -2.050  0.00  0.00    +0.149 HD
BRANCH  22  25
ATOM     25  C   UNL     1       3.360  -4.864  -4.582  0.00  0.00    +0.101 C 
ATOM     26  C   UNL     1       3.463  -6.325  -4.086  0.00  0.00    +0.110 C 
ATOM     27  C   UNL     1       3.203  -7.157  -5.323  0.00  0.00    +0.221 C 
ATOM     28  O   UNL     1       2.918  -8.335  -5.321  0.00  0.00    -0.275 OA
ATOM     29  N   UNL     1       3.334  -6.398  -6.425  0.00  0.00    -0.271 N 
ATOM     30  C   UNL     1       3.694  -5.017  -6.083  0.00  0.00    +0.127 C 
BRANCH  29  31
ATOM     31  C   UNL     1       3.151  -6.866  -7.732  0.00  0.00    +0.036 A 
ATOM     32  C   UNL     1       2.680  -8.154  -7.950  0.00  0.00    +0.025 A 
ATOM     33  C   UNL     1       2.500  -8.613  -9.240  0.00  0.00    +0.022 A 
ATOM     34  C   UNL     1       2.789  -7.790 -10.315  0.00  0.00    +0.041 A 
ATOM     35  C   UNL     1       3.258  -6.506 -10.100  0.00  0.00    +0.022 A 
ATOM     36  C   UNL     1       3.434  -6.041  -8.812  0.00  0.00    +0.025 A 
ATOM     37 CL   UNL     1       2.562  -8.371 -11.935  0.00  0.00    -0.084 Cl
ENDBRANCH  29  31
ENDBRANCH  22  25
ENDBRANCH  20  21
ENDBRANCH   1  20
TORSDOF 6
