REMARK  Name = ZINC36848312
REMARK  10 active torsions:
REMARK  status: ('A' for Active; 'I' for Inactive)
REMARK    1  A    between atoms: C_1  and  C_2
REMARK    2  A    between atoms: C_2  and  C_23
REMARK    3  A    between atoms: N_5  and  C_9
REMARK    4  A    between atoms: C_9  and  C_10
REMARK    5  A    between atoms: N_12  and  C_13
REMARK    6  A    between atoms: C_16  and  C_19
REMARK    7  A    between atoms: C_19  and  C_20
REMARK    8  A    between atoms: C_19  and  C_21
REMARK    9  A    between atoms: C_19  and  C_22
REMARK   10  A    between atoms: C_26  and  C_29
REMARK                            x       y       z     vdW  Elec       q    Type
REMARK                         _______ _______ _______ _____ _____    ______ ____
ROOT
ATOM      1  C   UNL     1      -0.027   1.522  -0.003  0.00  0.00    +0.047 C 
ATOM      2  C   UNL     1      -0.001  -0.008  -0.001  0.00  0.00    +0.135 C 
ATOM      3  C   UNL     1       0.813  -0.528  -1.170  0.00  0.00    +0.251 C 
ATOM      4  O   UNL     1       0.591  -0.358  -2.350  0.00  0.00    -0.272 OA
ATOM      5  N   UNL     1       1.834  -1.219  -0.625  0.00  0.00    -0.215 N 
ATOM      6  C   UNL     1       1.779  -1.207   0.712  0.00  0.00    +0.310 C 
ATOM      7  O   UNL     1       2.591  -1.762   1.426  0.00  0.00    -0.252 OA
ATOM      8  N   UNL     1       0.725  -0.513   1.177  0.00  0.00    -0.281 N 
ATOM      9  H   UNL     1       0.488  -0.372   2.107  0.00  0.00    +0.152 HD
ENDROOT
BRANCH   2  10
ATOM     10  C   UNL     1      -1.402  -0.561  -0.038  0.00  0.00    -0.015 A 
ATOM     11  C   UNL     1      -2.003  -0.833  -1.255  0.00  0.00    +0.007 A 
ATOM     12  C   UNL     1      -3.285  -1.340  -1.296  0.00  0.00    +0.019 A 
ATOM     13  C   UNL     1      -3.977  -1.578  -0.106  0.00  0.00    +0.052 A 
ATOM     14  C   UNL     1      -3.364  -1.301   1.117  0.00  0.00    +0.019 A 
ATOM     15  C   UNL     1      -2.080  -0.800   1.144  0.00  0.00    +0.007 A 
BRANCH  13  16
ATOM     16  C   UNL     1      -5.309  -2.103  -0.142  0.00  0.00    +0.099 C 
ATOM     17  N   UNL     1      -6.365  -2.519  -0.170  0.00  0.00    -0.191 NA
ENDBRANCH  13  16
ENDBRANCH   2  10
BRANCH   5  18
ATOM     18  C   UNL     1       2.874  -1.899  -1.400  0.00  0.00    +0.214 C 
BRANCH  18  19
ATOM     19  C   UNL     1       4.019  -0.950  -1.645  0.00  0.00    +0.235 C 
ATOM     20  O   UNL     1       3.970   0.183  -1.214  0.00  0.00    -0.274 OA
ATOM     21  N   UNL     1       5.097  -1.360  -2.343  0.00  0.00    -0.284 N 
ATOM     22  H   UNL     1       5.166  -2.284  -2.629  0.00  0.00    +0.155 HD
BRANCH  21  23
ATOM     23  C   UNL     1       6.116  -0.452  -2.654  0.00  0.00    +0.033 A 
ATOM     24  C   UNL     1       6.792  -0.552  -3.862  0.00  0.00    +0.023 A 
ATOM     25  C   UNL     1       7.797   0.345  -4.166  0.00  0.00    +0.006 A 
ATOM     26  C   UNL     1       8.131   1.342  -3.268  0.00  0.00    -0.042 A 
ATOM     27  C   UNL     1       7.460   1.444  -2.063  0.00  0.00    +0.006 A 
ATOM     28  C   UNL     1       6.449   0.553  -1.756  0.00  0.00    +0.023 A 
BRANCH  26  29
ATOM     29  C   UNL     1       9.228   2.319  -3.603  0.00  0.00    -0.013 C 
ATOM     30  C   UNL     1       8.863   3.078  -4.880  0.00  0.00    +0.015 C 
ATOM     31  C   UNL     1       9.396   3.311  -2.450  0.00  0.00    +0.015 C 
ATOM     32  C   UNL     1      10.539   1.559  -3.818  0.00  0.00    +0.015 C 
ENDBRANCH  26  29
ENDBRANCH  21  23
ENDBRANCH  18  19
ENDBRANCH   5  18
TORSDOF 6
