REMARK  Name = ZINC03881920
REMARK  9 active torsions:
REMARK  status: ('A' for Active; 'I' for Inactive)
REMARK    1  A    between atoms: C_1  and  C_2
REMARK    2  A    between atoms: C_2  and  O_4
REMARK    3  A    between atoms: O_4  and  C_5
REMARK    4  A    between atoms: C_5  and  C_6
REMARK    5  A    between atoms: C_6  and  C_8
REMARK    6  A    between atoms: C_8  and  O_32
REMARK    7  A    between atoms: C_13  and  C_31
REMARK    8  A    between atoms: C_23  and  C_30
REMARK    9  A    between atoms: C_26  and  O_29
REMARK                            x       y       z     vdW  Elec       q    Type
REMARK                         _______ _______ _______ _____ _____    ______ ____
ROOT
ATOM      1  C   UNL     1      -1.661   1.147   1.318  0.00  0.00    +0.133 C 
ATOM      2  C   UNL     1      -2.691   1.775   2.285  0.00  0.00    +0.043 C 
ATOM      3  C   UNL     1      -2.415   3.290   2.297  0.00  0.00    +0.008 C 
ATOM      4  C   UNL     1      -1.253   3.529   1.295  0.00  0.00    +0.002 C 
ATOM      5  C   UNL     1      -0.541   2.170   1.291  0.00  0.00    +0.007 C 
ATOM      6  C   UNL     1       0.388   1.999   0.113  0.00  0.00    +0.010 C 
ATOM      7  C   UNL     1      -0.349   2.240  -1.202  0.00  0.00    +0.005 C 
ATOM      8  C   UNL     1      -0.900   3.673  -1.205  0.00  0.00    +0.003 C 
ATOM      9  C   UNL     1      -1.904   3.818  -0.062  0.00  0.00    +0.000 C 
ATOM     10  C   UNL     1      -2.405   5.270  -0.038  0.00  0.00    +0.031 C 
ATOM     11  C   UNL     1      -2.900   5.667  -1.396  0.00  0.00    -0.027 C 
ATOM     12  C   UNL     1      -2.556   5.064  -2.489  0.00  0.00    -0.065 C 
ATOM     13  C   UNL     1      -1.587   3.910  -2.547  0.00  0.00    -0.008 C 
ATOM     14  C   UNL     1      -2.333   2.658  -3.001  0.00  0.00    +0.014 C 
ATOM     15  C   UNL     1      -3.520   3.044  -3.882  0.00  0.00    +0.032 C 
ATOM     16  C   UNL     1      -3.200   4.275  -4.728  0.00  0.00    +0.119 C 
ATOM     17  C   UNL     1      -3.162   5.506  -3.812  0.00  0.00    +0.062 C 
ATOM     18  C   UNL     1      -0.512   4.218  -3.591  0.00  0.00    +0.016 C 
ATOM     19  C   UNL     1       0.258   2.031   2.589  0.00  0.00    +0.015 C 
ENDROOT
BRANCH   1  20
ATOM     20  C   UNL     1      -1.171  -0.176   1.849  0.00  0.00    +0.202 C 
ATOM     21  O   UNL     1      -0.249  -0.209   2.629  0.00  0.00    -0.291 OA
BRANCH  20  22
ATOM     22  C   UNL     1      -1.830  -1.456   1.407  0.00  0.00    +0.309 C 
BRANCH  22  23
ATOM     23  O   UNL     1      -1.182  -2.583   2.054  0.00  0.00    -0.457 OA
BRANCH  23  25
ATOM     24  C   UNL     1      -1.031  -5.023   2.399  0.00  0.00    +0.136 C 
ATOM     25  C   UNL     1      -1.654  -3.806   1.765  0.00  0.00    +0.304 C 
ATOM     26  O   UNL     1      -2.578  -3.931   0.997  0.00  0.00    -0.251 OA
ENDBRANCH  23  25
ENDBRANCH  22  23
ENDBRANCH  20  22
ENDBRANCH   1  20
BRANCH  16  27
ATOM     27  O   UNL     1      -1.939   4.093  -5.375  0.00  0.00    -0.391 OA
ATOM     28  H   UNL     1      -1.660   4.848  -5.911  0.00  0.00    +0.210 HD
ENDBRANCH  16  27
BRANCH   1  29
ATOM     29  O   UNL     1      -2.225   0.989   0.014  0.00  0.00    -0.380 OA
ATOM     30  H   UNL     1      -2.993   0.403  -0.014  0.00  0.00    +0.211 HD
ENDBRANCH   1  29
TORSDOF 6
