REMARK  Name = ZINC04168548
REMARK  3 active torsions:
REMARK  status: ('A' for Active; 'I' for Inactive)
REMARK    1  A    between atoms: C_1  and  C_2
REMARK    2  A    between atoms: C_5  and  C_8
REMARK    3  A    between atoms: C_16  and  C_19
REMARK                            x       y       z     vdW  Elec       q    Type
REMARK                         _______ _______ _______ _____ _____    ______ ____
ROOT
ATOM      1  C   UNL     1      -1.205   1.665   0.017  0.00  0.00    +0.146 C 
ATOM      2  N   UNL     1      -1.513   2.465   0.995  0.00  0.00    -0.230 NA
ATOM      3  C   UNL     1      -0.787   2.624   2.142  0.00  0.00    +0.075 A 
ATOM      4  C   UNL     1      -1.504   2.756   3.337  0.00  0.00    +0.031 A 
ATOM      5  C   UNL     1      -0.844   2.931   4.537  0.00  0.00    +0.040 A 
ATOM      6  C   UNL     1       0.538   2.978   4.568  0.00  0.00    +0.124 A 
ATOM      7  C   UNL     1       1.262   2.845   3.396  0.00  0.00    +0.050 A 
ATOM      8  C   UNL     1       0.611   2.666   2.175  0.00  0.00    +0.031 A 
ATOM      9  C   UNL     1       1.454   2.526   0.964  0.00  0.00    +0.105 C 
ATOM     10  N   UNL     1       1.179   1.707   0.000  0.00  0.00    -0.180 NA
ATOM     11  N   UNL     1      -0.011   0.966   0.007  0.00  0.00    -0.220 N 
ATOM     12  F   UNL     1       1.182   3.153   5.743  0.00  0.00    -0.205 F 
ATOM     13  H   UNL     1       0.002  -0.004   0.002  0.00  0.00    +0.176 HD
ENDROOT
BRANCH   1  18
ATOM     14  C   UNL     1      -4.873   1.005  -4.365  0.00  0.00    +0.044 C 
ATOM     15  C   UNL     1      -3.912   1.178  -3.218  0.00  0.00    -0.050 A 
ATOM     16  C   UNL     1      -2.714   0.486  -3.212  0.00  0.00    +0.004 A 
ATOM     17  C   UNL     1      -1.830   0.639  -2.165  0.00  0.00    +0.011 A 
ATOM     18  C   UNL     1      -2.146   1.496  -1.108  0.00  0.00    +0.016 A 
ATOM     19  C   UNL     1      -3.360   2.187  -1.117  0.00  0.00    +0.011 A 
ATOM     20  C   UNL     1      -4.232   2.029  -2.174  0.00  0.00    +0.004 A 
ENDBRANCH   1  18
BRANCH   9  21
ATOM     21  C   UNL     1       2.663   3.358   0.853  0.00  0.00    +0.040 A 
ATOM     22  C   UNL     1       3.600   3.403  -0.164  0.00  0.00    +0.018 A 
ATOM     23  C   UNL     1       4.656   4.277  -0.042  0.00  0.00    +0.008 A 
ATOM     24  C   UNL     1       4.751   5.053   1.069  0.00  0.00    +0.046 A 
ATOM     25  S   UNL     1       3.307   4.567   1.998  0.00  0.00    -0.095 S 
ENDBRANCH   9  21
TORSDOF 2
