REMARK  Name = ZINC43287268
REMARK  12 active torsions:
REMARK  status: ('A' for Active; 'I' for Inactive)
REMARK    1  A    between atoms: C_1  and  C_2
REMARK    2  A    between atoms: C_2  and  C_4
REMARK    3  A    between atoms: C_2  and  N_22
REMARK    4  A    between atoms: C_4  and  C_6
REMARK    5  A    between atoms: C_4  and  N_12
REMARK    6  A    between atoms: N_12  and  C_13
REMARK    7  A    between atoms: N_12  and  C_14
REMARK    8  A    between atoms: C_14  and  C_15
REMARK    9  A    between atoms: N_17  and  C_18
REMARK   10  A    between atoms: C_18  and  C_19
REMARK   11  A    between atoms: C_19  and  O_20
REMARK   12  A    between atoms: O_20  and  C_21
REMARK                            x       y       z     vdW  Elec       q    Type
REMARK                         _______ _______ _______ _____ _____    ______ ____
ROOT
ATOM      1  C   UNL     1       0.742  -0.511   1.242  0.00  0.00    +0.079 C 
ENDROOT
BRANCH   1   2
ATOM      2  C   UNL     1      -0.030  -0.130   2.478  0.00  0.00    +0.006 A 
ATOM      3  C   UNL     1      -0.860  -0.889   3.234  0.00  0.00    +0.028 A 
ATOM      4  C   UNL     1      -1.468  -0.321   4.339  0.00  0.00    +0.025 A 
ATOM      5  C   UNL     1      -1.215   0.978   4.633  0.00  0.00    +0.060 A 
ATOM      6  S   UNL     1      -0.081   1.437   3.333  0.00  0.00    -0.099 S 
ATOM      7 BR   UNL     1      -2.635  -1.341   5.423  0.00  0.00    -0.050 Br
ENDBRANCH   1   2
BRANCH   1   9
ATOM      8  C   UNL     1      -0.019   1.526   0.010  0.00  0.00    -0.012 C 
ATOM      9  C   UNL     1       0.002  -0.004   0.002  0.00  0.00    -0.056 C 
BRANCH   9  10
ATOM     10  N   UNL     1      -1.376  -0.512   0.012  0.00  0.00    +0.381 N 
ATOM     11  H   UNL     1      -1.864  -0.178  -0.805  0.00  0.00    -0.090 HD
ATOM     12  H   UNL     1      -1.362  -1.521   0.007  0.00  0.00    -0.090 HD
ATOM     13  H   UNL     1      -1.848  -0.187   0.843  0.00  0.00    -0.090 HD
ENDBRANCH   9  10
ENDBRANCH   1   9
BRANCH   1  14
ATOM     14  N   UNL     1       2.080   0.093   1.294  0.00  0.00    -0.291 NA
ATOM     15  C   UNL     1       2.787  -0.298   2.521  0.00  0.00    +0.106 C 
BRANCH  14  16
ATOM     16  C   UNL     1       2.863  -0.258   0.102  0.00  0.00    +0.180 C 
BRANCH  16  17
ATOM     17  C   UNL     1       4.124   0.566   0.068  0.00  0.00    +0.227 C 
ATOM     18  O   UNL     1       4.348   1.368   0.950  0.00  0.00    -0.274 OA
ATOM     19  N   UNL     1       5.003   0.413  -0.943  0.00  0.00    -0.312 N 
ATOM     20  H   UNL     1       4.823  -0.228  -1.649  0.00  0.00    +0.149 HD
BRANCH  19  21
ATOM     21  C   UNL     1       6.228   1.215  -0.976  0.00  0.00    +0.132 C 
BRANCH  21  22
ATOM     22  C   UNL     1       7.044   0.849  -2.218  0.00  0.00    +0.178 C 
BRANCH  22  23
ATOM     23  O   UNL     1       6.317   1.221  -3.391  0.00  0.00    -0.381 OA
ATOM     24  C   UNL     1       6.995   0.921  -4.613  0.00  0.00    +0.194 C 
ENDBRANCH  22  23
ENDBRANCH  21  22
ENDBRANCH  19  21
ENDBRANCH  16  17
ENDBRANCH  14  16
ENDBRANCH   1  14
TORSDOF 9
