REMARK  Name = ZINC61396900
REMARK  5 active torsions:
REMARK  status: ('A' for Active; 'I' for Inactive)
REMARK    1  A    between atoms: C_1  and  C_2
REMARK    2  A    between atoms: C_4  and  C_25
REMARK    3  A    between atoms: C_8  and  C_24
REMARK    4  A    between atoms: C_9  and  C_11
REMARK    5  A    between atoms: C_17  and  C_18
REMARK                            x       y       z     vdW  Elec       q    Type
REMARK                         _______ _______ _______ _____ _____    ______ ____
ROOT
ATOM      1  C   UNL     1       1.001  -0.765   4.900  0.00  0.00    +0.254 C 
ATOM      2  O   UNL     1       1.057   0.394   5.265  0.00  0.00    -0.269 OA
ATOM      3  N   UNL     1       1.311  -1.758   5.757  0.00  0.00    -0.289 N 
ATOM      4  C   UNL     1       1.292  -3.199   5.447  0.00  0.00    +0.109 C 
ATOM      5  C   UNL     1       1.102  -3.897   6.816  0.00  0.00    +0.021 C 
ATOM      6  C   UNL     1       1.948  -2.990   7.748  0.00  0.00    +0.030 C 
ATOM      7  C   UNL     1       1.730  -1.582   7.156  0.00  0.00    +0.123 C 
ENDROOT
BRANCH   1  16
ATOM      8  C   UNL     1      -0.567   1.486   0.119  0.00  0.00    +0.044 C 
ATOM      9  C   UNL     1      -0.500  -0.019   0.102  0.00  0.00    -0.039 A 
ATOM     10  C   UNL     1      -0.807  -0.712  -1.033  0.00  0.00    +0.027 A 
ATOM     11  C   UNL     1      -0.747  -2.098  -1.054  0.00  0.00    +0.040 A 
ATOM     12  N   UNL     1      -0.391  -2.767   0.026  0.00  0.00    -0.245 NA
ATOM     13  C   UNL     1      -0.085  -2.147   1.142  0.00  0.00    +0.110 A 
ATOM     14  C   UNL     1      -0.111  -0.736   1.264  0.00  0.00    +0.014 A 
ATOM     15  C   UNL     1       0.249  -0.229   2.524  0.00  0.00    -0.022 A 
ATOM     16  C   UNL     1       0.596  -1.083   3.523  0.00  0.00    +0.080 A 
ATOM     17  S   UNL     1       0.426  -2.685   2.757  0.00  0.00    -0.064 S 
ATOM     18  C   UNL     1       0.252   1.258   2.767  0.00  0.00    +0.046 C 
ATOM     19  C   UNL     1      -1.091  -2.843  -2.318  0.00  0.00    +0.065 C 
ENDBRANCH   1  16
BRANCH   7  20
ATOM     20  C   UNL     1       3.014  -0.795   7.211  0.00  0.00    +0.037 A 
ATOM     21  C   UNL     1       4.018  -0.856   6.313  0.00  0.00    +0.024 A 
ATOM     22  C   UNL     1       5.021   0.035   6.741  0.00  0.00    +0.019 A 
ATOM     23  C   UNL     1       4.593   0.606   7.885  0.00  0.00    +0.083 A 
ATOM     24  N   UNL     1       3.359   0.105   8.176  0.00  0.00    -0.363 N 
ATOM     25  H   UNL     1       2.817   0.346   8.943  0.00  0.00    +0.165 HD
ENDBRANCH   7  20
TORSDOF 2
