REMARK  Name = ZINC29426697
REMARK  7 active torsions:
REMARK  status: ('A' for Active; 'I' for Inactive)
REMARK    1  A    between atoms: C_1  and  C_2
REMARK    2  A    between atoms: C_2  and  C_4
REMARK    3  A    between atoms: C_2  and  N_13
REMARK    4  A    between atoms: C_7  and  C_10
REMARK    5  A    between atoms: C_10  and  C_11
REMARK    6  A    between atoms: C_10  and  C_12
REMARK    7  A    between atoms: C_14  and  C_16
REMARK                            x       y       z     vdW  Elec       q    Type
REMARK                         _______ _______ _______ _____ _____    ______ ____
ROOT
ATOM      1  N   UNL     1      -1.372  -0.511   0.012  0.00  0.00    -0.303 N 
ATOM      2  C   UNL     1      -2.051  -0.643  -1.145  0.00  0.00    +0.265 C 
ATOM      3  O   UNL     1      -1.522  -0.341  -2.197  0.00  0.00    -0.268 OA
ATOM      4  H   UNL     1      -1.794  -0.752   0.852  0.00  0.00    +0.150 HD
ENDROOT
BRANCH   2   5
ATOM      5  C   UNL     1      -3.436  -1.154  -1.134  0.00  0.00    +0.153 A 
ATOM      6  C   UNL     1      -4.183  -1.307  -2.393  0.00  0.00    +0.020 A 
ATOM      7  C   UNL     1      -3.642  -0.987  -3.634  0.00  0.00    +0.011 A 
ATOM      8  C   UNL     1      -4.405  -1.157  -4.769  0.00  0.00    +0.001 A 
ATOM      9  C   UNL     1      -5.703  -1.643  -4.687  0.00  0.00    +0.001 A 
ATOM     10  C   UNL     1      -6.259  -1.965  -3.467  0.00  0.00    +0.014 A 
ATOM     11  C   UNL     1      -5.505  -1.802  -2.309  0.00  0.00    +0.050 A 
ATOM     12  C   UNL     1      -6.018  -2.120  -0.970  0.00  0.00    +0.272 A 
ATOM     13  O   UNL     1      -7.147  -2.551  -0.822  0.00  0.00    -0.266 OA
ATOM     14  N   UNL     1      -5.209  -1.926   0.091  0.00  0.00    -0.242 N 
ATOM     15  H   UNL     1      -5.551  -2.138   0.974  0.00  0.00    +0.192 HD
ATOM     16  N   UNL     1      -4.013  -1.482  -0.004  0.00  0.00    -0.166 NA
ENDBRANCH   2   5
BRANCH   1  18
ATOM     17  C   UNL     1      -0.019   1.526   0.010  0.00  0.00    +0.033 C 
ATOM     18  C   UNL     1       0.002  -0.004   0.002  0.00  0.00    +0.100 C 
BRANCH  18  19
ATOM     19  C   UNL     1       0.731  -0.503   1.223  0.00  0.00    -0.027 A 
ATOM     20  C   UNL     1       0.081  -0.558   2.442  0.00  0.00    +0.006 A 
ATOM     21  C   UNL     1       0.749  -1.016   3.562  0.00  0.00    +0.004 A 
ATOM     22  C   UNL     1       2.068  -1.420   3.463  0.00  0.00    -0.045 A 
ATOM     23  C   UNL     1       2.718  -1.365   2.244  0.00  0.00    +0.004 A 
ATOM     24  C   UNL     1       2.048  -0.911   1.123  0.00  0.00    +0.006 A 
BRANCH  22  25
ATOM     25  C   UNL     1       2.797  -1.918   4.684  0.00  0.00    +0.013 C 
ATOM     26  C   UNL     1       3.262  -3.357   4.449  0.00  0.00    +0.012 C 
ATOM     27  C   UNL     1       4.012  -1.027   4.951  0.00  0.00    +0.012 C 
ENDBRANCH  22  25
ENDBRANCH  18  19
ENDBRANCH   1  18
TORSDOF 4
