REMARK  Name = ZINC08591567
REMARK  9 active torsions:
REMARK  status: ('A' for Active; 'I' for Inactive)
REMARK    1  A    between atoms: C_1  and  C_2
REMARK    2  A    between atoms: C_6  and  N_8
REMARK    3  A    between atoms: C_15  and  C_21
REMARK    4  A    between atoms: N_19  and  C_20
REMARK    5  A    between atoms: N_22  and  C_25
REMARK    6  A    between atoms: C_25  and  C_26
REMARK    7  A    between atoms: N_28  and  C_29
REMARK    8  A    between atoms: C_29  and  C_30
REMARK    9  A    between atoms: C_30  and  C_31
REMARK                            x       y       z     vdW  Elec       q    Type
REMARK                         _______ _______ _______ _____ _____    ______ ____
ROOT
ATOM      1  N   UNL     1       0.053  -2.798   2.394  0.00  0.00    -0.227 N 
ATOM      2  C   UNL     1      -0.026  -4.143   2.374  0.00  0.00    +0.285 A 
ATOM      3  O   UNL     1      -0.110  -4.738   1.315  0.00  0.00    -0.265 OA
ATOM      4  C   UNL     1      -0.009  -4.861   3.598  0.00  0.00    +0.132 A 
ATOM      5  C   UNL     1       0.087  -4.149   4.779  0.00  0.00    +0.085 A 
ATOM      6  C   UNL     1       0.083  -5.129   5.865  0.00  0.00    +0.025 A 
ATOM      7  C   UNL     1       0.155  -5.028   7.257  0.00  0.00    +0.015 A 
ATOM      8  C   UNL     1       0.126  -6.158   8.023  0.00  0.00    -0.050 A 
ATOM      9  C   UNL     1       0.027  -7.410   7.430  0.00  0.00    +0.005 A 
ATOM     10  C   UNL     1      -0.045  -7.534   6.061  0.00  0.00    +0.027 A 
ATOM     11  C   UNL     1      -0.018  -6.396   5.258  0.00  0.00    +0.051 A 
ATOM     12  N   UNL     1      -0.073  -6.212   3.895  0.00  0.00    -0.337 N 
ATOM     13  C   UNL     1      -0.182  -7.287   2.906  0.00  0.00    +0.149 C 
ATOM     14  C   UNL     1       0.203  -6.047   9.524  0.00  0.00    +0.044 C 
ATOM     15  N   UNL     1       0.164  -2.768   4.738  0.00  0.00    -0.282 N 
ATOM     16  C   UNL     1       0.151  -2.126   3.554  0.00  0.00    +0.337 A 
ATOM     17  O   UNL     1       0.225  -0.912   3.535  0.00  0.00    -0.246 OA
ENDROOT
BRANCH   1  23
ATOM     18  C   UNL     1      -2.490  -0.510  -1.139  0.00  0.00    +0.044 C 
ATOM     19  C   UNL     1      -1.182  -0.969  -0.549  0.00  0.00    -0.048 A 
ATOM     20  C   UNL     1       0.006  -0.688  -1.200  0.00  0.00    +0.003 A 
ATOM     21  C   UNL     1       1.208  -1.107  -0.661  0.00  0.00    +0.002 A 
ATOM     22  C   UNL     1       1.227  -1.806   0.530  0.00  0.00    +0.026 A 
ATOM     23  C   UNL     1       0.037  -2.089   1.186  0.00  0.00    +0.055 A 
ATOM     24  C   UNL     1      -1.169  -1.663   0.645  0.00  0.00    +0.029 A 
ENDBRANCH   1  23
BRANCH  15  25
ATOM     25  C   UNL     1       0.267  -2.004   5.983  0.00  0.00    +0.222 C 
BRANCH  25  26
ATOM     26  C   UNL     1       1.719  -1.823   6.343  0.00  0.00    +0.233 C 
ATOM     27  O   UNL     1       2.583  -2.286   5.629  0.00  0.00    -0.274 OA
ATOM     28  N   UNL     1       2.058  -1.145   7.458  0.00  0.00    -0.314 N 
ATOM     29  H   UNL     1       1.367  -0.775   8.029  0.00  0.00    +0.149 HD
BRANCH  28  30
ATOM     30  C   UNL     1       3.470  -0.969   7.807  0.00  0.00    +0.108 C 
BRANCH  30  31
ATOM     31  C   UNL     1       3.577  -0.171   9.108  0.00  0.00    +0.049 C 
BRANCH  31  32
ATOM     32  C   UNL     1       5.029   0.011   9.467  0.00  0.00    -0.072 C 
ATOM     33  C   UNL     1       5.613   1.107   9.101  0.00  0.00    -0.028 C 
ATOM     34  C   UNL     1       7.053   1.425   9.376  0.00  0.00    +0.027 C 
ATOM     35  C   UNL     1       7.593   0.512  10.479  0.00  0.00    +0.004 C 
ATOM     36  C   UNL     1       7.228  -0.937  10.132  0.00  0.00    +0.005 C 
ATOM     37  C   UNL     1       5.707  -1.087  10.233  0.00  0.00    +0.030 C 
ENDBRANCH  31  32
ENDBRANCH  30  31
ENDBRANCH  28  30
ENDBRANCH  25  26
ENDBRANCH  15  25
TORSDOF 6
