REMARK  Name = ZINC02793162
REMARK  7 active torsions:
REMARK  status: ('A' for Active; 'I' for Inactive)
REMARK    1  A    between atoms: C_1  and  C_2
REMARK    2  A    between atoms: C_7  and  N_8
REMARK    3  A    between atoms: C_9  and  C_14
REMARK    4  A    between atoms: C_20  and  C_29
REMARK    5  A    between atoms: C_23  and  C_25
REMARK    6  A    between atoms: C_32  and  O_35
REMARK    7  A    between atoms: O_35  and  C_36
REMARK                            x       y       z     vdW  Elec       q    Type
REMARK                         _______ _______ _______ _____ _____    ______ ____
ROOT
ATOM      1  C   UNL     1      -2.489   0.148   2.813  0.00  0.00    +0.079 A 
ATOM      2  C   UNL     1      -2.980  -0.520   1.669  0.00  0.00    +0.148 A 
ATOM      3  N   UNL     1      -4.287  -0.521   1.721  0.00  0.00    -0.177 NA
ATOM      4  N   UNL     1      -4.695   0.135   2.882  0.00  0.00    -0.238 N 
ATOM      5  C   UNL     1      -3.584   0.539   3.549  0.00  0.00    +0.129 A 
ATOM      6  N   UNL     1      -3.639   1.227   4.757  0.00  0.00    -0.322 N 
ATOM      7  C   UNL     1      -4.965   1.748   5.148  0.00  0.00    +0.104 C 
ATOM      8  C   UNL     1      -6.014   0.667   4.865  0.00  0.00    +0.063 C 
ATOM      9  C   UNL     1      -6.060   0.373   3.359  0.00  0.00    +0.215 C 
ATOM     10  H   UNL     1      -2.854   1.357   5.311  0.00  0.00    +0.148 HD
ENDROOT
BRANCH   1  12
ATOM     11  N   UNL     1       0.025  -0.013   2.419  0.00  0.00    -0.269 N 
ATOM     12  C   UNL     1      -1.071   0.379   3.156  0.00  0.00    +0.174 A 
ATOM     13  N   UNL     1      -0.615   0.995   4.223  0.00  0.00    -0.128 NA
ATOM     14  N   UNL     1       0.669   1.017   4.205  0.00  0.00    -0.121 NA
ATOM     15  C   UNL     1       1.117   0.412   3.131  0.00  0.00    +0.207 A 
ATOM     16  S   UNL     1       2.807   0.189   2.684  0.00  0.00    -0.009 SA
BRANCH  11  23
ATOM     17  C   UNL     1      -0.018   1.503   0.010  0.00  0.00    +0.046 C 
ATOM     18  C   UNL     1       0.002  -0.004   0.002  0.00  0.00    -0.026 A 
ATOM     19  C   UNL     1       0.006  -0.689  -1.198  0.00  0.00    +0.005 A 
ATOM     20  C   UNL     1       0.025  -2.071  -1.206  0.00  0.00    +0.000 A 
ATOM     21  C   UNL     1       0.040  -2.773  -0.014  0.00  0.00    +0.002 A 
ATOM     22  C   UNL     1       0.036  -2.094   1.188  0.00  0.00    +0.026 A 
ATOM     23  C   UNL     1       0.023  -0.705   1.200  0.00  0.00    +0.053 A 
ENDBRANCH  11  23
ENDBRANCH   1  12
BRANCH   7  24
ATOM     24  C   UNL     1      -4.963   2.087   6.616  0.00  0.00    -0.027 A 
ATOM     25  C   UNL     1      -4.315   1.259   7.514  0.00  0.00    +0.009 A 
ATOM     26  C   UNL     1      -4.312   1.567   8.861  0.00  0.00    +0.046 A 
ATOM     27  C   UNL     1      -4.961   2.708   9.312  0.00  0.00    +0.120 A 
ATOM     28  C   UNL     1      -5.610   3.537   8.408  0.00  0.00    +0.046 A 
ATOM     29  C   UNL     1      -5.605   3.227   7.062  0.00  0.00    +0.009 A 
BRANCH  27  30
ATOM     30  O   UNL     1      -4.960   3.013  10.636  0.00  0.00    -0.495 OA
ATOM     31  C   UNL     1      -5.647   4.203  11.028  0.00  0.00    +0.277 C 
ENDBRANCH  27  30
ENDBRANCH   7  24
BRANCH   9  32
ATOM     32  C   UNL     1      -6.912  -0.875   3.118  0.00  0.00    +0.412 C 
ATOM     33  F   UNL     1      -6.359  -1.958   3.811  0.00  0.00    -0.168 F 
ATOM     34  F   UNL     1      -8.215  -0.646   3.574  0.00  0.00    -0.168 F 
ATOM     35  F   UNL     1      -6.941  -1.163   1.749  0.00  0.00    -0.168 F 
ENDBRANCH   9  32
TORSDOF 5
