REMARK  Name = ZINC12203135
REMARK  6 active torsions:
REMARK  status: ('A' for Active; 'I' for Inactive)
REMARK    1  A    between atoms: C_10  and  C_11
REMARK    2  A    between atoms: C_11  and  C_12
REMARK    3  A    between atoms: C_12  and  C_18
REMARK    4  A    between atoms: C_18  and  C_19
REMARK    5  A    between atoms: C_19  and  C_20
REMARK    6  A    between atoms: C_25  and  C_28
REMARK                            x       y       z     vdW  Elec       q    Type
REMARK                         _______ _______ _______ _____ _____    ______ ____
ROOT
ATOM      1  C   UNL     1       2.915   4.234   1.435  0.00  0.00    +0.039 C 
ATOM      2  C   UNL     1       3.109   2.947   2.267  0.00  0.00    +0.035 C 
ATOM      3  C   UNL     1       1.712   2.771   2.906  0.00  0.00    +0.098 C 
ATOM      4  C   UNL     1       1.133   4.169   2.923  0.00  0.00    +0.214 C 
ATOM      5  O   UNL     1       0.180   4.518   3.587  0.00  0.00    -0.276 OA
ATOM      6  N   UNL     1       1.829   4.967   2.095  0.00  0.00    -0.309 N 
ATOM      7  H   UNL     1       1.637   5.907   1.952  0.00  0.00    +0.149 HD
ENDROOT
BRANCH   1   8
ATOM      8  C   UNL     1       2.519   3.881  -0.001  0.00  0.00    +0.061 C 
BRANCH   8  18
ATOM      9  C   UNL     1      -2.425   5.206   0.052  0.00  0.00    +0.001 A 
ATOM     10  C   UNL     1      -1.221   5.909   0.044  0.00  0.00    +0.001 A 
ATOM     11  C   UNL     1      -0.028   5.255   0.030  0.00  0.00    +0.009 A 
ATOM     12  C   UNL     1      -0.005   3.850   0.023  0.00  0.00    -0.015 A 
ATOM     13  C   UNL     1      -1.229   3.135   0.031  0.00  0.00    -0.018 A 
ATOM     14  C   UNL     1      -2.442   3.845   0.045  0.00  0.00    +0.008 A 
ATOM     15  C   UNL     1      -1.206   1.730   0.017  0.00  0.00    +0.008 A 
ATOM     16  C   UNL     1      -0.013   1.076   0.008  0.00  0.00    +0.001 A 
ATOM     17  C   UNL     1       1.191   1.778   0.000  0.00  0.00    +0.004 A 
ATOM     18  C   UNL     1       1.207   3.140   0.007  0.00  0.00    -0.038 A 
ENDBRANCH   8  18
ENDBRANCH   1   8
BRANCH   1  19
ATOM     19  C   UNL     1       4.197   5.068   1.440  0.00  0.00    +0.035 C 
BRANCH  19  20
ATOM     20  C   UNL     1       4.576   5.411   2.882  0.00  0.00    +0.098 C 
BRANCH  20  21
ATOM     21  C   UNL     1       5.840   6.233   2.887  0.00  0.00    +0.216 C 
ATOM     22  O   UNL     1       6.383   6.517   1.841  0.00  0.00    -0.276 OA
ATOM     23  N   UNL     1       6.365   6.653   4.055  0.00  0.00    -0.301 N 
ATOM     24  C   UNL     1       5.809   6.387   5.390  0.00  0.00    +0.108 C 
ATOM     25  C   UNL     1       6.730   7.081   6.416  0.00  0.00    +0.029 C 
ATOM     26  C   UNL     1       7.428   8.177   5.569  0.00  0.00    +0.041 C 
ATOM     27  C   UNL     1       7.590   7.460   4.205  0.00  0.00    +0.116 C 
BRANCH  26  28
ATOM     28  C   UNL     1       8.770   8.539   6.152  0.00  0.00    -0.008 A 
ATOM     29  C   UNL     1       9.690   7.548   6.435  0.00  0.00    +0.007 A 
ATOM     30  C   UNL     1      10.923   7.880   6.964  0.00  0.00    +0.000 A 
ATOM     31  C   UNL     1      11.232   9.203   7.221  0.00  0.00    +0.003 A 
ATOM     32  C   UNL     1      10.311  10.195   6.944  0.00  0.00    +0.038 A 
ATOM     33  C   UNL     1       9.078   9.864   6.409  0.00  0.00    +0.127 A 
ATOM     34  F   UNL     1       8.177  10.833   6.137  0.00  0.00    -0.205 F 
ENDBRANCH  26  28
ENDBRANCH  20  21
ENDBRANCH  19  20
ENDBRANCH   1  19
TORSDOF 6
