REMARK  Name = ZINC39673562
REMARK  11 active torsions:
REMARK  status: ('A' for Active; 'I' for Inactive)
REMARK    1  A    between atoms: C_1  and  C_2
REMARK    2  A    between atoms: C_2  and  C_3
REMARK    3  A    between atoms: C_3  and  C_4
REMARK    4  A    between atoms: C_4  and  C_6
REMARK    5  A    between atoms: C_4  and  N_7
REMARK    6  A    between atoms: C_8  and  C_10
REMARK    7  A    between atoms: C_21  and  C_23
REMARK    8  A    between atoms: C_26  and  O_31
REMARK    9  A    between atoms: C_28  and  O_29
REMARK   10  A    between atoms: O_29  and  C_30
REMARK   11  A    between atoms: O_31  and  C_32
REMARK                            x       y       z     vdW  Elec       q    Type
REMARK                         _______ _______ _______ _____ _____    ______ ____
ROOT
ATOM      1  C   UNL     1      -2.321  -4.290   1.035  0.00  0.00    +0.100 C 
ATOM      2  C   UNL     1      -2.657  -4.561   2.519  0.00  0.00    +0.121 C 
ATOM      3  N   UNL     1      -3.491  -5.785   2.497  0.00  0.00    -0.296 N 
ATOM      4  C   UNL     1      -2.865  -6.639   1.460  0.00  0.00    +0.115 C 
ATOM      5  C   UNL     1      -2.458  -5.657   0.344  0.00  0.00    -0.004 C 
ATOM      6  C   UNL     1      -1.124  -6.076  -0.267  0.00  0.00    -0.010 C 
ATOM      7  C   UNL     1      -1.300  -7.410  -0.999  0.00  0.00    -0.082 C 
ATOM      8  N   UNL     1      -2.317  -7.265  -2.047  0.00  0.00    +0.379 N 
ATOM      9  C   UNL     1      -3.618  -6.953  -1.443  0.00  0.00    -0.082 C 
ATOM     10  C   UNL     1      -3.541  -5.600  -0.730  0.00  0.00    -0.010 C 
ATOM     11  C   UNL     1      -4.575  -6.060   3.249  0.00  0.00    +0.250 C 
ATOM     12  O   UNL     1      -5.029  -5.212   3.993  0.00  0.00    -0.270 OA
ATOM     13  H   UNL     1      -2.050  -6.519  -2.672  0.00  0.00    -0.086 HD
ATOM     14  H   UNL     1      -2.387  -8.127  -2.567  0.00  0.00    -0.086 HD
ENDROOT
BRANCH  11  15
ATOM     15  C   UNL     1      -5.209  -7.387   3.171  0.00  0.00    +0.079 A 
ATOM     16  C   UNL     1      -4.425  -8.529   2.975  0.00  0.00    +0.020 A 
ATOM     17  C   UNL     1      -5.021  -9.767   2.903  0.00  0.00    +0.046 A 
ATOM     18  C   UNL     1      -6.402  -9.888   3.024  0.00  0.00    +0.124 A 
ATOM     19  C   UNL     1      -7.189  -8.762   3.218  0.00  0.00    +0.092 A 
ATOM     20  C   UNL     1      -6.600  -7.511   3.299  0.00  0.00    +0.136 A 
BRANCH  20  21
ATOM     21  O   UNL     1      -7.367  -6.410   3.494  0.00  0.00    -0.494 OA
ATOM     22  C   UNL     1      -8.777  -6.614   3.615  0.00  0.00    +0.277 C 
ENDBRANCH  20  21
BRANCH  18  23
ATOM     23  O   UNL     1      -6.982 -11.113   2.951  0.00  0.00    -0.495 OA
ATOM     24  C   UNL     1      -6.114 -12.230   2.749  0.00  0.00    +0.277 C 
ENDBRANCH  18  23
ENDBRANCH  11  15
BRANCH   1  26
ATOM     25  N   UNL     1      -0.547  -3.090  -0.202  0.00  0.00    -0.312 N 
ATOM     26  C   UNL     1      -0.912  -3.773   0.901  0.00  0.00    +0.218 C 
ATOM     27  O   UNL     1      -0.107  -3.972   1.786  0.00  0.00    -0.275 OA
ATOM     28  H   UNL     1      -1.191  -2.931  -0.909  0.00  0.00    +0.149 HD
BRANCH  25  29
ATOM     29  C   UNL     1       0.823  -2.587  -0.332  0.00  0.00    +0.070 C 
ATOM     30  C   UNL     1       0.937  -1.231   0.368  0.00  0.00    +0.028 C 
BRANCH  29  31
ATOM     31  C   UNL     1       1.169  -2.428  -1.813  0.00  0.00    +0.022 C 
BRANCH  31  33
ATOM     32  C   UNL     1       1.523  -3.642  -3.968  0.00  0.00    +0.004 C 
ATOM     33  C   UNL     1       1.177  -3.802  -2.486  0.00  0.00    -0.002 C 
ENDBRANCH  31  33
ENDBRANCH  29  31
ENDBRANCH  25  29
ENDBRANCH   1  26
TORSDOF 7
