REMARK  Name = ZINC04183303
REMARK  7 active torsions:
REMARK  status: ('A' for Active; 'I' for Inactive)
REMARK    1  A    between atoms: C_1  and  C_2
REMARK    2  A    between atoms: C_2  and  C_4
REMARK    3  A    between atoms: C_17  and  C_20
REMARK    4  A    between atoms: C_24  and  O_28
REMARK    5  A    between atoms: C_25  and  O_26
REMARK    6  A    between atoms: O_26  and  C_27
REMARK    7  A    between atoms: O_28  and  C_29
REMARK                            x       y       z     vdW  Elec       q    Type
REMARK                         _______ _______ _______ _____ _____    ______ ____
ROOT
ATOM      1  C   UNL     1      -7.718   3.026  -1.749  0.00  0.00    +0.017 A 
ATOM      2  C   UNL     1      -7.048   4.153  -2.244  0.00  0.00    +0.013 A 
ATOM      3  C   UNL     1      -5.740   4.364  -1.919  0.00  0.00    +0.024 A 
ATOM      4  C   UNL     1      -5.059   3.467  -1.097  0.00  0.00    +0.031 A 
ATOM      5  C   UNL     1      -5.728   2.332  -0.612  0.00  0.00    -0.019 A 
ATOM      6  C   UNL     1      -7.036   2.119  -0.928  0.00  0.00    +0.017 A 
ATOM      7  C   UNL     1      -4.957   1.398   0.239  0.00  0.00    +0.049 C 
ATOM      8  C   UNL     1      -5.616   0.525   1.244  0.00  0.00    -0.023 C 
ATOM      9  C   UNL     1      -4.777   0.336   2.256  0.00  0.00    -0.030 C 
ATOM     10  C   UNL     1      -3.482   1.112   2.013  0.00  0.00    +0.033 C 
ATOM     11  C   UNL     1      -3.966   2.242   1.095  0.00  0.00    +0.029 C 
ATOM     12  C   UNL     1      -2.964   2.813   0.108  0.00  0.00    +0.109 C 
ATOM     13  N   UNL     1      -3.735   3.732  -0.757  0.00  0.00    -0.336 N 
ATOM     14  H   UNL     1      -3.309   4.535  -1.095  0.00  0.00    +0.147 HD
ENDROOT
BRANCH  12  15
ATOM     15  C   UNL     1      -1.885   3.569   0.840  0.00  0.00    +0.018 A 
ATOM     16  C   UNL     1      -1.991   4.938   1.006  0.00  0.00    +0.009 A 
ATOM     17  C   UNL     1      -1.004   5.634   1.677  0.00  0.00    +0.004 A 
ATOM     18  C   UNL     1       0.094   4.965   2.185  0.00  0.00    +0.049 A 
ATOM     19  C   UNL     1       0.204   3.593   2.027  0.00  0.00    +0.162 A 
ATOM     20  C   UNL     1      -0.787   2.893   1.346  0.00  0.00    +0.166 A 
BRANCH  20  21
ATOM     21  O   UNL     1      -0.682   1.547   1.184  0.00  0.00    -0.491 OA
ATOM     22  C   UNL     1      -0.013   1.086   0.008  0.00  0.00    +0.277 C 
ENDBRANCH  20  21
BRANCH  19  23
ATOM     23  O   UNL     1       1.281   2.933   2.531  0.00  0.00    -0.491 OA
ATOM     24  C   UNL     1       2.259   3.716   3.218  0.00  0.00    +0.277 C 
ENDBRANCH  19  23
ENDBRANCH  12  15
BRANCH   1  26
ATOM     25  C   UNL     1      -9.857   3.776  -2.974  0.00  0.00    +0.091 C 
ATOM     26  C   UNL     1      -9.127   2.797  -2.090  0.00  0.00    +0.160 C 
ATOM     27  O   UNL     1      -9.705   1.821  -1.660  0.00  0.00    -0.292 OA
ENDBRANCH   1  26
TORSDOF 4
