REMARK  Name = ZINC36142229
REMARK  6 active torsions:
REMARK  status: ('A' for Active; 'I' for Inactive)
REMARK    1  A    between atoms: C_1  and  C_2
REMARK    2  A    between atoms: C_7  and  C_8
REMARK    3  A    between atoms: C_10  and  C_17
REMARK    4  A    between atoms: C_10  and  C_18
REMARK    5  A    between atoms: C_12  and  C_13
REMARK    6  A    between atoms: C_12  and  N_16
REMARK                            x       y       z     vdW  Elec       q    Type
REMARK                         _______ _______ _______ _____ _____    ______ ____
ROOT
ATOM      1  C   UNL     1       0.399   1.101  -1.748  0.00  0.00    +0.044 C 
ATOM      2  C   UNL     1       0.312  -0.338  -1.308  0.00  0.00    -0.044 A 
ATOM      3  C   UNL     1       0.371  -1.353  -2.244  0.00  0.00    +0.004 A 
ATOM      4  C   UNL     1       0.289  -2.671  -1.840  0.00  0.00    +0.006 A 
ATOM      5  C   UNL     1       0.149  -2.983  -0.497  0.00  0.00    -0.006 A 
ATOM      6  C   UNL     1       0.093  -1.969   0.443  0.00  0.00    +0.127 A 
ATOM      7  C   UNL     1       0.179  -0.643   0.032  0.00  0.00    -0.006 A 
ATOM      8  C   UNL     1       0.122   0.465   1.052  0.00  0.00    +0.048 C 
ATOM      9  O   UNL     1      -0.032  -2.230   1.770  0.00  0.00    -0.486 OA
ATOM     10  C   UNL     1      -0.480  -3.530   2.156  0.00  0.00    +0.105 C 
ATOM     11  C   UNL     1       0.354  -4.573   1.400  0.00  0.00    +0.050 C 
ATOM     12  C   UNL     1       0.057  -4.433  -0.095  0.00  0.00    +0.065 C 
ATOM     13  C   UNL     1      -1.958  -3.694   1.797  0.00  0.00    +0.055 C 
ATOM     14  C   UNL     1      -0.291  -3.714   3.663  0.00  0.00    +0.055 C 
ENDROOT
BRANCH  12  15
ATOM     15  N   UNL     1      -1.295  -4.934  -0.374  0.00  0.00    +0.392 N 
ATOM     16  H   UNL     1      -1.750  -4.322  -1.036  0.00  0.00    -0.088 HD
ATOM     17  H   UNL     1      -1.237  -5.864  -0.761  0.00  0.00    -0.088 HD
ATOM     18  H   UNL     1      -1.828  -4.958   0.482  0.00  0.00    -0.088 HD
ENDBRANCH  12  15
BRANCH  12  19
ATOM     19  C   UNL     1       1.060  -5.236  -0.883  0.00  0.00    +0.349 C 
ATOM     20  O   UNL     1       2.249  -4.980  -0.796  0.00  0.00    -0.248 OA
ATOM     21  O   UNL     1       0.683  -6.142  -1.607  0.00  0.00    -0.248 OA
ENDBRANCH  12  19
TORSDOF 2
