REMARK  Name = ZINC44434454
REMARK  6 active torsions:
REMARK  status: ('A' for Active; 'I' for Inactive)
REMARK    1  A    between atoms: C_1  and  C_2
REMARK    2  A    between atoms: C_5  and  C_9
REMARK    3  A    between atoms: C_6  and  C_8
REMARK    4  A    between atoms: C_11  and  C_14
REMARK    5  A    between atoms: N_20  and  C_21
REMARK    6  A    between atoms: C_21  and  C_22
REMARK                            x       y       z     vdW  Elec       q    Type
REMARK                         _______ _______ _______ _____ _____    ______ ____
ROOT
ATOM      1  C   UNL     1      -0.745  -7.247  -2.229  0.00  0.00    +0.165 C 
ATOM      2  C   UNL     1       0.536  -8.109  -2.284  0.00  0.00    +0.041 C 
ATOM      3  C   UNL     1      -0.041  -9.513  -2.580  0.00  0.00    +0.098 C 
ATOM      4  C   UNL     1      -1.457  -9.450  -2.051  0.00  0.00    +0.217 C 
ATOM      5  O   UNL     1      -2.160 -10.415  -1.833  0.00  0.00    -0.276 OA
ATOM      6  N   UNL     1      -1.825  -8.170  -1.860  0.00  0.00    -0.285 N 
ENDROOT
BRANCH   1   9
ATOM      7  C   UNL     1      -0.349  -4.221  -0.265  0.00  0.00    +0.202 A 
ATOM      8  N   UNL     1      -0.438  -4.898  -1.423  0.00  0.00    -0.190 NA
ATOM      9  C   UNL     1      -0.603  -6.168  -1.187  0.00  0.00    +0.248 A 
ATOM     10  O   UNL     1      -0.625  -6.353   0.140  0.00  0.00    -0.336 OA
ATOM     11  N   UNL     1      -0.453  -5.072   0.726  0.00  0.00    -0.056 NA
BRANCH   7  16
ATOM     12  C   UNL     1       0.394   1.467   0.256  0.00  0.00    +0.044 C 
ATOM     13  C   UNL     1       0.200  -0.021   0.120  0.00  0.00    -0.050 A 
ATOM     14  C   UNL     1      -0.761  -0.663   0.880  0.00  0.00    +0.004 A 
ATOM     15  C   UNL     1      -0.943  -2.026   0.760  0.00  0.00    +0.012 A 
ATOM     16  C   UNL     1      -0.158  -2.755  -0.131  0.00  0.00    +0.025 A 
ATOM     17  C   UNL     1       0.808  -2.103  -0.895  0.00  0.00    -0.039 A 
ATOM     18  C   UNL     1       0.978  -0.739  -0.770  0.00  0.00    +0.007 A 
ATOM     19  C   UNL     1       1.661  -2.885  -1.860  0.00  0.00    +0.044 C 
ENDBRANCH   7  16
ENDBRANCH   1   9
BRANCH   6  20
ATOM     20  C   UNL     1      -3.132  -7.751  -1.348  0.00  0.00    +0.146 C 
BRANCH  20  21
ATOM     21  C   UNL     1      -4.082  -7.551  -2.501  0.00  0.00    +0.005 A 
ATOM     22  C   UNL     1      -4.332  -6.278  -2.978  0.00  0.00    +0.009 A 
ATOM     23  C   UNL     1      -5.203  -6.094  -4.035  0.00  0.00    +0.016 A 
ATOM     24  C   UNL     1      -5.825  -7.184  -4.618  0.00  0.00    +0.021 A 
ATOM     25  C   UNL     1      -5.576  -8.458  -4.142  0.00  0.00    +0.054 A 
ATOM     26  C   UNL     1      -4.699  -8.643  -3.086  0.00  0.00    +0.129 A 
ATOM     27  F   UNL     1      -4.451  -9.888  -2.624  0.00  0.00    -0.205 F 
ATOM     28 BR   UNL     1      -7.017  -6.931  -6.064  0.00  0.00    -0.050 Br
ENDBRANCH  20  21
ENDBRANCH   6  20
TORSDOF 4
