REMARK  Name = ZINC12553631
REMARK  6 active torsions:
REMARK  status: ('A' for Active; 'I' for Inactive)
REMARK    1  A    between atoms: C_1  and  C_2
REMARK    2  A    between atoms: C_2  and  C_3
REMARK    3  A    between atoms: C_3  and  C_28
REMARK    4  A    between atoms: N_6  and  N_10
REMARK    5  A    between atoms: C_11  and  C_13
REMARK    6  A    between atoms: C_16  and  N_19
REMARK                            x       y       z     vdW  Elec       q    Type
REMARK                         _______ _______ _______ _____ _____    ______ ____
ROOT
ATOM      1  N   UNL     1       3.854  -6.267  -0.966  0.00  0.00    -0.220 N 
ATOM      2  C   UNL     1       2.948  -5.849  -0.060  0.00  0.00    +0.261 C 
ATOM      3  O   UNL     1       2.488  -6.634   0.747  0.00  0.00    -0.269 OA
ATOM      4  H   UNL     1       4.221  -5.641  -1.610  0.00  0.00    +0.174 HD
ENDROOT
BRANCH   1   8
ATOM      5  C   UNL     1       5.464  -9.536  -0.733  0.00  0.00    +0.139 C 
ATOM      6  C   UNL     1       5.462  -8.034  -0.526  0.00  0.00    +0.268 C 
ATOM      7  O   UNL     1       6.349  -7.359  -0.051  0.00  0.00    -0.271 OA
ATOM      8  N   UNL     1       4.266  -7.606  -0.978  0.00  0.00    -0.137 N 
ATOM      9  C   UNL     1       3.524  -8.617  -1.444  0.00  0.00    +0.327 C 
ATOM     10  O   UNL     1       2.409  -8.479  -1.907  0.00  0.00    -0.251 OA
ATOM     11  N   UNL     1       4.150  -9.804  -1.342  0.00  0.00    -0.280 N 
ATOM     12  H   UNL     1       3.803 -10.667  -1.615  0.00  0.00    +0.152 HD
BRANCH   5  13
ATOM     13  C   UNL     1       6.574  -9.935  -1.672  0.00  0.00    -0.015 A 
ATOM     14  C   UNL     1       7.793 -10.345  -1.165  0.00  0.00    +0.006 A 
ATOM     15  C   UNL     1       8.810 -10.715  -2.026  0.00  0.00    +0.000 A 
ATOM     16  C   UNL     1       8.610 -10.667  -3.393  0.00  0.00    +0.000 A 
ATOM     17  C   UNL     1       7.392 -10.254  -3.899  0.00  0.00    +0.000 A 
ATOM     18  C   UNL     1       6.374  -9.887  -3.039  0.00  0.00    +0.006 A 
ENDBRANCH   5  13
BRANCH   5  20
ATOM     19  C   UNL     1       4.423  -9.903   1.508  0.00  0.00    +0.007 C 
ATOM     20  C   UNL     1       5.600 -10.271   0.602  0.00  0.00    +0.037 C 
ENDBRANCH   5  20
ENDBRANCH   1   8
BRANCH   2  21
ATOM     21  C   UNL     1       2.514  -4.438  -0.048  0.00  0.00    +0.038 A 
ATOM     22  C   UNL     1       1.574  -4.003   0.890  0.00  0.00    +0.015 A 
ATOM     23  C   UNL     1       1.172  -2.686   0.899  0.00  0.00    +0.027 A 
ATOM     24  C   UNL     1       1.700  -1.790  -0.025  0.00  0.00    +0.048 A 
ATOM     25  C   UNL     1       2.631  -2.221  -0.963  0.00  0.00    +0.027 A 
ATOM     26  C   UNL     1       3.041  -3.535  -0.975  0.00  0.00    +0.015 A 
BRANCH  24  27
ATOM     27  N   UNL     1       1.289  -0.454  -0.013  0.00  0.00    -0.299 N 
ATOM     28  C   UNL     1       0.002  -0.004   0.002  0.00  0.00    +0.205 A 
ATOM     29  N   UNL     1      -0.016   1.296   0.009  0.00  0.00    -0.235 NA
ATOM     30  C   UNL     1       1.257   1.772  -0.000  0.00  0.00    +0.089 A 
ATOM     31  C   UNL     1       2.112   0.657  -0.015  0.00  0.00    +0.073 A 
ATOM     32  C   UNL     1       3.487   0.839  -0.026  0.00  0.00    +0.028 A 
ATOM     33  C   UNL     1       4.010   2.115  -0.024  0.00  0.00    +0.002 A 
ATOM     34  C   UNL     1       3.170   3.219  -0.010  0.00  0.00    +0.002 A 
ATOM     35  C   UNL     1       1.803   3.058   0.002  0.00  0.00    +0.030 A 
ENDBRANCH  24  27
ENDBRANCH   2  21
TORSDOF 5
