REMARK  Name = ZINC39482790
REMARK  8 active torsions:
REMARK  status: ('A' for Active; 'I' for Inactive)
REMARK    1  A    between atoms: C_4  and  C_7
REMARK    2  A    between atoms: C_7  and  S_8
REMARK    3  A    between atoms: S_8  and  N_11
REMARK    4  A    between atoms: N_11  and  C_12
REMARK    5  A    between atoms: C_15  and  S_26
REMARK    6  A    between atoms: C_17  and  N_18
REMARK    7  A    between atoms: S_26  and  O_29
REMARK    8  A    between atoms: O_29  and  C_30
REMARK                            x       y       z     vdW  Elec       q    Type
REMARK                         _______ _______ _______ _____ _____    ______ ____
ROOT
ATOM      1  C   UNL     1       6.768  -1.213   0.846  0.00  0.00    +0.069 A 
ATOM      2  C   UNL     1       7.030   0.137   1.027  0.00  0.00    +0.028 A 
ATOM      3  C   UNL     1       8.089   0.730   0.366  0.00  0.00    +0.032 A 
ATOM      4  C   UNL     1       8.891  -0.018  -0.476  0.00  0.00    +0.130 A 
ATOM      5  C   UNL     1       8.637  -1.365  -0.663  0.00  0.00    +0.055 A 
ATOM      6  C   UNL     1       7.580  -1.969   0.000  0.00  0.00    +0.054 A 
ENDROOT
BRANCH   6   7
ATOM      7  N   UNL     1       7.324  -3.333  -0.183  0.00  0.00    -0.325 N 
ATOM      8  C   UNL     1       6.433  -3.797  -1.257  0.00  0.00    +0.120 C 
ATOM      9  C   UNL     1       5.390  -4.742  -0.650  0.00  0.00    +0.101 C 
ATOM     10  N   UNL     1       6.074  -5.808   0.093  0.00  0.00    -0.298 NA
ATOM     11  C   UNL     1       6.838  -5.264   1.224  0.00  0.00    +0.164 C 
ATOM     12  C   UNL     1       7.945  -4.341   0.690  0.00  0.00    +0.140 C 
ATOM     13 CL   UNL     1       7.582  -6.618   2.155  0.00  0.00    -0.103 Cl
ATOM     14  H   UNL     1       5.418  -6.510   0.404  0.00  0.00    +0.123 HD
ENDBRANCH   6   7
BRANCH   4  15
ATOM     15  S   UNL     1      10.239   0.746  -1.315  0.00  0.00    +0.151 S 
ATOM     16  O   UNL     1      10.502  -0.045  -2.466  0.00  0.00    -0.131 OA
ATOM     17  O   UNL     1       9.933   2.131  -1.397  0.00  0.00    -0.131 OA
BRANCH  15  18
ATOM     18  O   UNL     1      11.458   0.623  -0.413  0.00  0.00    -0.342 OA
BRANCH  18  19
ATOM     19  C   UNL     1      11.998  -0.625  -0.381  0.00  0.00    +0.157 A 
ATOM     20  C   UNL     1      11.557  -1.548   0.556  0.00  0.00    +0.048 A 
ATOM     21  C   UNL     1      12.107  -2.815   0.586  0.00  0.00    +0.004 A 
ATOM     22  C   UNL     1      13.095  -3.163  -0.316  0.00  0.00    +0.000 A 
ATOM     23  C   UNL     1      13.536  -2.244  -1.250  0.00  0.00    +0.004 A 
ATOM     24  C   UNL     1      12.986  -0.978  -1.288  0.00  0.00    +0.048 A 
ENDBRANCH  18  19
ENDBRANCH  15  18
ENDBRANCH   4  15
BRANCH   1  25
ATOM     25  N   UNL     1       5.696  -1.816   1.514  0.00  0.00    -0.219 N 
ATOM     26  H   UNL     1       5.773  -2.731   1.828  0.00  0.00    +0.173 HD
BRANCH  25  27
ATOM     27  S   UNL     1       4.297  -0.968   1.770  0.00  0.00    +0.047 S 
ATOM     28  O   UNL     1       4.705   0.204   2.463  0.00  0.00    -0.155 OA
ATOM     29  O   UNL     1       3.414  -1.899   2.380  0.00  0.00    -0.155 OA
BRANCH  27  30
ATOM     30  C   UNL     1       3.703  -0.537   0.111  0.00  0.00    +0.223 C 
BRANCH  30  34
ATOM     31  C   UNL     1       0.067   1.682   0.430  0.00  0.00    +0.000 A 
ATOM     32  C   UNL     1       1.281   2.342   0.420  0.00  0.00    +0.000 A 
ATOM     33  C   UNL     1       2.458   1.624   0.317  0.00  0.00    +0.005 A 
ATOM     34  C   UNL     1       2.420   0.246   0.224  0.00  0.00    -0.025 A 
ATOM     35  C   UNL     1       1.206  -0.415   0.235  0.00  0.00    +0.005 A 
ATOM     36  C   UNL     1       0.029   0.303   0.337  0.00  0.00    +0.000 A 
ENDBRANCH  30  34
ENDBRANCH  27  30
ENDBRANCH  25  27
ENDBRANCH   1  25
TORSDOF 8
