REMARK  Name = ZINC09075596
REMARK  10 active torsions:
REMARK  status: ('A' for Active; 'I' for Inactive)
REMARK    1  A    between atoms: C_1  and  C_2
REMARK    2  A    between atoms: C_3  and  C_30
REMARK    3  A    between atoms: C_4  and  C_25
REMARK    4  A    between atoms: C_6  and  C_23
REMARK    5  A    between atoms: C_7  and  S_9
REMARK    6  A    between atoms: S_9  and  C_10
REMARK    7  A    between atoms: C_10  and  C_11
REMARK    8  A    between atoms: N_13  and  C_14
REMARK    9  A    between atoms: C_19  and  N_20
REMARK   10  A    between atoms: N_32  and  C_33
REMARK                            x       y       z     vdW  Elec       q    Type
REMARK                         _______ _______ _______ _____ _____    ______ ____
ROOT
ATOM      1  C   UNL     1       5.738   7.471   0.794  0.00  0.00    +0.061 C 
ATOM      2  C   UNL     1       4.579   8.431   0.722  0.00  0.00    +0.015 C 
ATOM      3  C   UNL     1       4.791   9.741   0.927  0.00  0.00    +0.047 C 
ATOM      4  C   UNL     1       3.675  10.743   0.857  0.00  0.00    +0.134 C 
ATOM      5  C   UNL     1       2.338  10.060   0.934  0.00  0.00    +0.072 C 
ATOM      6  C   UNL     1       2.217   8.722   0.727  0.00  0.00    +0.080 C 
ATOM      7  N   UNL     1       3.327   7.954   0.453  0.00  0.00    -0.312 N 
ATOM      8  H   UNL     1       3.202   6.952   0.016  0.00  0.00    +0.152 HD
ENDROOT
BRANCH   4   9
ATOM      9  C   UNL     1       3.770  11.500  -0.443  0.00  0.00    +0.118 A 
ATOM     10  C   UNL     1       3.955  12.826  -0.569  0.00  0.00    +0.045 A 
ATOM     11  C   UNL     1       3.983  13.106  -1.954  0.00  0.00    +0.041 A 
ATOM     12  C   UNL     1       3.813  11.934  -2.592  0.00  0.00    +0.195 A 
ATOM     13  O   UNL     1       3.690  10.964  -1.672  0.00  0.00    -0.467 OA
ENDBRANCH   4   9
BRANCH   3  14
ATOM     14  C   UNL     1       6.102  10.189   1.217  0.00  0.00    +0.247 C 
ATOM     15  O   UNL     1       6.399  10.509   2.354  0.00  0.00    -0.270 OA
ATOM     16  N   UNL     1       7.022  10.262   0.235  0.00  0.00    -0.282 N 
ATOM     17  H   UNL     1       6.733  10.058  -0.806  0.00  0.00    +0.155 HD
BRANCH  16  18
ATOM     18  C   UNL     1       8.345  10.598   0.540  0.00  0.00    +0.034 A 
ATOM     19  C   UNL     1       9.097  11.349  -0.354  0.00  0.00    +0.023 A 
ATOM     20  C   UNL     1      10.401  11.683  -0.048  0.00  0.00    +0.002 A 
ATOM     21  C   UNL     1      10.963  11.261   1.143  0.00  0.00    +0.000 A 
ATOM     22  C   UNL     1      10.219  10.509   2.034  0.00  0.00    +0.002 A 
ATOM     23  C   UNL     1       8.912  10.176   1.736  0.00  0.00    +0.023 A 
ENDBRANCH  16  18
ENDBRANCH   3  14
BRANCH   5  24
ATOM     24  C   UNL     1       1.171  10.834   1.232  0.00  0.00    +0.098 C 
ATOM     25  N   UNL     1       0.244  11.447   1.468  0.00  0.00    -0.191 NA
ENDBRANCH   5  24
BRANCH   6  26
ATOM     26  S   UNL     1       0.629   7.963   0.818  0.00  0.00    -0.100 S 
BRANCH  26  27
ATOM     27  C   UNL     1       1.081   6.245   0.469  0.00  0.00    +0.171 C 
BRANCH  27  28
ATOM     28  C   UNL     1      -0.156   5.385   0.495  0.00  0.00    +0.227 C 
ATOM     29  O   UNL     1      -1.237   5.885   0.726  0.00  0.00    -0.275 OA
ATOM     30  N   UNL     1      -0.062   4.061   0.261  0.00  0.00    -0.283 N 
ATOM     31  H   UNL     1       0.926   3.594   0.138  0.00  0.00    +0.155 HD
BRANCH  30  32
ATOM     32  C   UNL     1      -1.220   3.282   0.174  0.00  0.00    +0.064 A 
ATOM     33  C   UNL     1      -2.376   3.812  -0.385  0.00  0.00    +0.025 A 
ATOM     34  C   UNL     1      -3.518   3.040  -0.468  0.00  0.00    +0.002 A 
ATOM     35  C   UNL     1      -3.512   1.740   0.003  0.00  0.00    +0.002 A 
ATOM     36  C   UNL     1      -2.361   1.208   0.555  0.00  0.00    +0.034 A 
ATOM     37  C   UNL     1      -1.217   1.976   0.647  0.00  0.00    +0.147 A 
BRANCH  37  38
ATOM     38  N   UNL     1       0.012   1.407   1.244  0.00  0.00    +0.058 N 
ATOM     39  O   UNL     1      -0.010   0.295   1.739  0.00  0.00    -0.126 OA
ATOM     40  O   UNL     1       1.047   2.049   1.234  0.00  0.00    -0.126 OA
ENDBRANCH  37  38
ENDBRANCH  30  32
ENDBRANCH  27  28
ENDBRANCH  26  27
ENDBRANCH   6  26
TORSDOF 9
