REMARK  Name = ZINC09043270
REMARK  10 active torsions:
REMARK  status: ('A' for Active; 'I' for Inactive)
REMARK    1  A    between atoms: C_1  and  C_2
REMARK    2  A    between atoms: C_5  and  C_8
REMARK    3  A    between atoms: C_8  and  C_10
REMARK    4  A    between atoms: C_12  and  C_25
REMARK    5  A    between atoms: C_28  and  O_33
REMARK    6  A    between atoms: C_29  and  O_31
REMARK    7  A    between atoms: O_31  and  C_32
REMARK    8  A    between atoms: O_33  and  C_34
REMARK    9  A    between atoms: C_34  and  C_35
REMARK   10  A    between atoms: C_34  and  C_36
REMARK                            x       y       z     vdW  Elec       q    Type
REMARK                         _______ _______ _______ _____ _____    ______ ____
ROOT
ATOM      1  C   UNL     1       0.089  -3.182   5.739  0.00  0.00    +0.173 C 
ATOM      2  C   UNL     1      -0.740  -1.912   5.635  0.00  0.00    +0.103 C 
ATOM      3  N   UNL     1      -1.417  -1.780   6.729  0.00  0.00    -0.087 NA
ATOM      4  O   UNL     1      -1.183  -2.830   7.652  0.00  0.00    -0.371 OA
ATOM      5  C   UNL     1       0.011  -3.499   7.241  0.00  0.00    +0.255 C 
ATOM      6  C   UNL     1       1.223  -3.016   7.981  0.00  0.00    +0.030 A 
ATOM      7  C   UNL     1       1.806  -1.780   8.147  0.00  0.00    +0.010 A 
ATOM      8  C   UNL     1       2.955  -1.652   8.907  0.00  0.00    +0.001 A 
ATOM      9  C   UNL     1       3.514  -2.769   9.502  0.00  0.00    +0.002 A 
ATOM     10  C   UNL     1       2.932  -4.009   9.341  0.00  0.00    +0.024 A 
ATOM     11  C   UNL     1       1.776  -4.146   8.577  0.00  0.00    +0.041 A 
ATOM     12  N   UNL     1       1.012  -5.276   8.272  0.00  0.00    -0.281 N 
ATOM     13  C   UNL     1      -0.046  -4.978   7.492  0.00  0.00    +0.270 C 
ATOM     14  O   UNL     1      -0.881  -5.753   7.075  0.00  0.00    -0.271 OA
ATOM     15  H   UNL     1       1.219  -6.170   8.586  0.00  0.00    +0.155 HD
ENDROOT
BRANCH   2  16
ATOM     16  C   UNL     1      -0.770  -0.992   4.483  0.00  0.00    +0.004 A 
ATOM     17  C   UNL     1      -0.064  -1.303   3.319  0.00  0.00    +0.013 A 
ATOM     18  C   UNL     1      -0.099  -0.444   2.241  0.00  0.00    +0.050 A 
ATOM     19  C   UNL     1      -0.826   0.735   2.312  0.00  0.00    +0.162 A 
ATOM     20  C   UNL     1      -1.533   1.052   3.470  0.00  0.00    +0.162 A 
ATOM     21  C   UNL     1      -1.507   0.193   4.553  0.00  0.00    +0.059 A 
BRANCH  20  22
ATOM     22  O   UNL     1      -2.249   2.206   3.535  0.00  0.00    -0.491 OA
ATOM     23  C   UNL     1      -2.950   2.467   4.752  0.00  0.00    +0.277 C 
ENDBRANCH  20  22
BRANCH  19  24
ATOM     24  O   UNL     1      -0.853   1.581   1.249  0.00  0.00    -0.486 OA
BRANCH  24  25
ATOM     25  C   UNL     1      -0.206   1.140   0.053  0.00  0.00    +0.167 C 
ATOM     26  C   UNL     1       1.284   1.476   0.125  0.00  0.00    +0.051 C 
ATOM     27  C   UNL     1      -0.831   1.844  -1.153  0.00  0.00    +0.051 C 
ENDBRANCH  24  25
ENDBRANCH  19  24
ENDBRANCH   2  16
BRANCH   1  28
ATOM     28  C   UNL     1      -0.524  -4.290   4.921  0.00  0.00    +0.177 C 
ATOM     29  O   UNL     1      -1.721  -4.312   4.730  0.00  0.00    -0.291 OA
BRANCH  28  34
ATOM     30  C   UNL     1       2.816  -8.412   2.707  0.00  0.00    +0.044 C 
ATOM     31  C   UNL     1       1.941  -7.332   3.288  0.00  0.00    -0.050 A 
ATOM     32  C   UNL     1       0.591  -7.300   2.982  0.00  0.00    +0.004 A 
ATOM     33  C   UNL     1      -0.216  -6.315   3.509  0.00  0.00    +0.011 A 
ATOM     34  C   UNL     1       0.331  -5.345   4.355  0.00  0.00    +0.018 A 
ATOM     35  C   UNL     1       1.697  -5.381   4.655  0.00  0.00    +0.011 A 
ATOM     36  C   UNL     1       2.490  -6.376   4.125  0.00  0.00    +0.004 A 
ENDBRANCH  28  34
ENDBRANCH   1  28
TORSDOF 6
