REMARK  Name = ZINC12207956
REMARK  9 active torsions:
REMARK  status: ('A' for Active; 'I' for Inactive)
REMARK    1  A    between atoms: C_1  and  C_2
REMARK    2  A    between atoms: C_2  and  C_3
REMARK    3  A    between atoms: C_3  and  C_4
REMARK    4  A    between atoms: C_4  and  C_5
REMARK    5  A    between atoms: C_5  and  N_6
REMARK    6  A    between atoms: N_6  and  S_7
REMARK    7  A    between atoms: S_7  and  C_10
REMARK    8  A    between atoms: C_13  and  N_17
REMARK    9  A    between atoms: C_15  and  C_16
REMARK                            x       y       z     vdW  Elec       q    Type
REMARK                         _______ _______ _______ _____ _____    ______ ____
ROOT
ATOM      1  C   UNL     1      -0.945   2.657  -1.676  0.00  0.00    +0.108 A 
ATOM      2  C   UNL     1      -1.847   2.394  -2.691  0.00  0.00    +0.030 A 
ATOM      3  C   UNL     1      -1.904   3.217  -3.798  0.00  0.00    +0.026 A 
ATOM      4  C   UNL     1      -1.053   4.311  -3.892  0.00  0.00    +0.051 A 
ATOM      5  C   UNL     1      -0.148   4.573  -2.872  0.00  0.00    +0.030 A 
ATOM      6  C   UNL     1      -0.100   3.748  -1.765  0.00  0.00    -0.022 A 
ATOM      7  C   UNL     1       0.878   4.035  -0.654  0.00  0.00    +0.046 C 
ENDROOT
BRANCH   4   8
ATOM      8  N   UNL     1      -1.107   5.146  -5.011  0.00  0.00    -0.207 N 
ATOM      9  C   UNL     1      -1.311   6.595  -4.866  0.00  0.00    +0.131 C 
ATOM     10  C   UNL     1      -0.154   7.340  -5.528  0.00  0.00    +0.022 C 
ATOM     11  C   UNL     1      -0.140   7.088  -7.034  0.00  0.00    +0.026 C 
ATOM     12  C   UNL     1       0.280   5.641  -7.314  0.00  0.00    +0.189 C 
ATOM     13  S   UNL     1      -0.937   4.533  -6.548  0.00  0.00    +0.045 S 
ATOM     14  O   UNL     1      -0.382   3.237  -6.370  0.00  0.00    -0.155 OA
ATOM     15  O   UNL     1      -2.209   4.704  -7.157  0.00  0.00    -0.155 OA
ENDBRANCH   4   8
BRANCH   1  16
ATOM     16  S   UNL     1      -0.875   1.604  -0.266  0.00  0.00    +0.059 S 
ATOM     17  O   UNL     1       0.496   1.296  -0.055  0.00  0.00    -0.153 OA
ATOM     18  O   UNL     1      -1.860   0.599  -0.461  0.00  0.00    -0.153 OA
BRANCH  16  19
ATOM     19  N   UNL     1      -1.365   2.499   1.038  0.00  0.00    -0.190 NA
ATOM     20  H   UNL     1      -0.747   2.678   1.764  0.00  0.00    +0.148 HD
BRANCH  19  21
ATOM     21  C   UNL     1      -2.731   3.028   1.093  0.00  0.00    +0.106 C 
BRANCH  21  22
ATOM     22  C   UNL     1      -3.052   3.463   2.524  0.00  0.00    +0.017 C 
BRANCH  22  23
ATOM     23  C   UNL     1      -4.478   4.014   2.582  0.00  0.00    +0.001 C 
BRANCH  23  25
ATOM     24  C   UNL     1      -6.226   5.001   4.070  0.00  0.00    +0.004 C 
ATOM     25  C   UNL     1      -4.800   4.450   4.013  0.00  0.00    -0.003 C 
ENDBRANCH  23  25
ENDBRANCH  22  23
ENDBRANCH  21  22
ENDBRANCH  19  21
ENDBRANCH  16  19
ENDBRANCH   1  16
TORSDOF 7
