REMARK  Name = ZINC13064636
REMARK  12 active torsions:
REMARK  status: ('A' for Active; 'I' for Inactive)
REMARK    1  A    between atoms: C_1  and  C_2
REMARK    2  A    between atoms: C_2  and  C_3
REMARK    3  A    between atoms: C_3  and  C_5
REMARK    4  A    between atoms: C_3  and  N_69
REMARK    5  A    between atoms: N_9  and  C_10
REMARK    6  A    between atoms: C_10  and  C_11
REMARK    7  A    between atoms: C_17  and  C_18
REMARK    8  A    between atoms: C_17  and  N_69
REMARK    9  A    between atoms: C_24  and  C_25
REMARK   10  A    between atoms: C_24  and  N_69
REMARK   11  A    between atoms: C_29  and  C_38
REMARK   12  A    between atoms: C_30  and  C_37
REMARK                            x       y       z     vdW  Elec       q    Type
REMARK                         _______ _______ _______ _____ _____    ______ ____
ROOT
ATOM      1  N   UNL     1       4.280   0.546  -3.496  0.00  0.00    +0.392 N 
ATOM      2  H   UNL     1       4.629   0.563  -4.461  0.00  0.00    -0.080 HD
ENDROOT
BRANCH   1   3
ATOM      3  C   UNL     1       4.986   1.582  -2.712  0.00  0.00    +0.003 C 
BRANCH   3   4
ATOM      4  C   UNL     1       4.324   1.771  -1.371  0.00  0.00    +0.138 A 
ATOM      5  N   UNL     1       3.044   1.935  -1.146  0.00  0.00    -0.115 NA
ATOM      6  N   UNL     1       2.877   2.068   0.124  0.00  0.00    -0.023 NA
ATOM      7  N   UNL     1       4.017   1.987   0.716  0.00  0.00    -0.044 NA
ATOM      8  N   UNL     1       4.934   1.801  -0.172  0.00  0.00    -0.226 N 
BRANCH   8   9
ATOM      9  C   UNL     1       6.371   1.655   0.078  0.00  0.00    +0.182 C 
BRANCH   9  10
ATOM     10  C   UNL     1       6.699   0.200   0.289  0.00  0.00    -0.026 A 
ATOM     11  C   UNL     1       7.041  -0.595  -0.790  0.00  0.00    +0.005 A 
ATOM     12  C   UNL     1       7.342  -1.930  -0.597  0.00  0.00    +0.000 A 
ATOM     13  C   UNL     1       7.296  -2.472   0.674  0.00  0.00    +0.000 A 
ATOM     14  C   UNL     1       6.959  -1.677   1.753  0.00  0.00    +0.000 A 
ATOM     15  C   UNL     1       6.658  -0.342   1.560  0.00  0.00    +0.005 A 
ENDBRANCH   9  10
ENDBRANCH   8   9
ENDBRANCH   3   4
BRANCH   3  17
ATOM     16  C   UNL     1       5.614   2.705  -4.853  0.00  0.00    +0.002 C 
ATOM     17  C   UNL     1       4.948   2.899  -3.490  0.00  0.00    -0.011 C 
ENDBRANCH   3  17
ENDBRANCH   1   3
BRANCH   1  18
ATOM     18  C   UNL     1       2.828   0.822  -3.505  0.00  0.00    -0.042 C 
BRANCH  18  19
ATOM     19  C   UNL     1       2.563   1.991  -4.418  0.00  0.00    -0.064 A 
ATOM     20  C   UNL     1       2.034   3.162  -3.906  0.00  0.00    +0.002 A 
ATOM     21  C   UNL     1       1.796   4.236  -4.743  0.00  0.00    +0.000 A 
ATOM     22  C   UNL     1       2.077   4.136  -6.093  0.00  0.00    +0.000 A 
ATOM     23  C   UNL     1       2.600   2.964  -6.606  0.00  0.00    +0.000 A 
ATOM     24  C   UNL     1       2.843   1.891  -5.768  0.00  0.00    +0.002 A 
ENDBRANCH  18  19
ENDBRANCH   1  18
BRANCH   1  25
ATOM     25  C   UNL     1       4.537  -0.789  -2.916  0.00  0.00    -0.036 C 
BRANCH  25  26
ATOM     26  C   UNL     1       3.928  -1.835  -3.813  0.00  0.00    +0.001 A 
ATOM     27  C   UNL     1       4.686  -2.432  -4.766  0.00  0.00    +0.017 A 
ATOM     28  C   UNL     1       4.064  -3.445  -5.621  0.00  0.00    -0.001 A 
ATOM     29  C   UNL     1       4.795  -4.096  -6.621  0.00  0.00    +0.013 A 
ATOM     30  C   UNL     1       4.186  -5.036  -7.402  0.00  0.00    -0.047 A 
ATOM     31  C   UNL     1       2.847  -5.351  -7.213  0.00  0.00    -0.046 A 
ATOM     32  C   UNL     1       2.108  -4.723  -6.235  0.00  0.00    +0.030 A 
ATOM     33  C   UNL     1       2.707  -3.763  -5.427  0.00  0.00    +0.049 A 
ATOM     34  N   UNL     1       1.991  -3.119  -4.440  0.00  0.00    -0.322 N 
ATOM     35  H   UNL     1       1.056  -3.339  -4.307  0.00  0.00    +0.169 HD
ATOM     36  C   UNL     1       2.572  -2.194  -3.655  0.00  0.00    +0.251 A 
ATOM     37  O   UNL     1       1.910  -1.649  -2.790  0.00  0.00    -0.268 OA
ATOM     38  C   UNL     1       2.196  -6.392  -8.088  0.00  0.00    +0.044 C 
ATOM     39  C   UNL     1       4.974  -5.737  -8.479  0.00  0.00    +0.044 C 
ENDBRANCH  25  26
ENDBRANCH   1  25
TORSDOF 9
