REMARK  Name = ZINC28052639
REMARK  10 active torsions:
REMARK  status: ('A' for Active; 'I' for Inactive)
REMARK    1  A    between atoms: C_1  and  C_2
REMARK    2  A    between atoms: C_2  and  O_3
REMARK    3  A    between atoms: O_3  and  C_4
REMARK    4  A    between atoms: C_7  and  C_10
REMARK    5  A    between atoms: C_13  and  C_36
REMARK    6  A    between atoms: C_23  and  C_26
REMARK    7  A    between atoms: C_29  and  O_34
REMARK    8  A    between atoms: C_30  and  O_32
REMARK    9  A    between atoms: O_32  and  C_33
REMARK   10  A    between atoms: O_34  and  C_35
REMARK                            x       y       z     vdW  Elec       q    Type
REMARK                         _______ _______ _______ _____ _____    ______ ____
ROOT
ATOM      1  C   UNL     1       1.527   0.036   6.140  0.00  0.00    +0.091 C 
ATOM      2  C   UNL     1       1.542  -1.455   6.245  0.00  0.00    +0.049 A 
ATOM      3  C   UNL     1       0.532  -2.393   6.445  0.00  0.00    +0.087 A 
ATOM      4  N   UNL     1       1.119  -3.564   6.450  0.00  0.00    -0.081 NA
ATOM      5  O   UNL     1       2.321  -3.470   6.285  0.00  0.00    -0.339 OA
ATOM      6  C   UNL     1       2.689  -2.201   6.149  0.00  0.00    +0.226 A 
ATOM      7  N   UNL     1       3.916  -1.601   5.953  0.00  0.00    -0.286 N 
ATOM      8  C   UNL     1       4.022  -0.243   6.140  0.00  0.00    +0.019 C 
ATOM      9  C   UNL     1       2.944   0.562   6.244  0.00  0.00    +0.024 C 
ATOM     10  C   UNL     1       3.092   1.945   6.456  0.00  0.00    +0.162 C 
ATOM     11  O   UNL     1       2.100   2.643   6.530  0.00  0.00    -0.292 OA
ATOM     12  C   UNL     1       4.447   2.579   6.596  0.00  0.00    +0.088 C 
ATOM     13  C   UNL     1       5.426   1.540   7.154  0.00  0.00    +0.032 C 
ATOM     14  C   UNL     1       5.420   0.326   6.224  0.00  0.00    +0.059 C 
ATOM     15  C   UNL     1      -0.939  -2.117   6.620  0.00  0.00    +0.069 C 
ATOM     16  H   UNL     1       4.783  -2.208   5.652  0.00  0.00    +0.155 HD
ENDROOT
BRANCH   1  20
ATOM     17  C   UNL     1      -0.149   1.182   2.380  0.00  0.00    +0.121 A 
ATOM     18  C   UNL     1       0.991   0.392   2.421  0.00  0.00    +0.046 A 
ATOM     19  C   UNL     1       1.534   0.028   3.638  0.00  0.00    +0.008 A 
ATOM     20  C   UNL     1       0.936   0.440   4.814  0.00  0.00    -0.035 A 
ATOM     21  C   UNL     1      -0.203   1.223   4.776  0.00  0.00    +0.008 A 
ATOM     22  C   UNL     1      -0.747   1.595   3.561  0.00  0.00    +0.046 A 
BRANCH  17  23
ATOM     23  O   UNL     1      -0.682   1.547   1.184  0.00  0.00    -0.492 OA
BRANCH  23  25
ATOM     24  C   UNL     1      -0.753   1.593  -1.232  0.00  0.00    +0.048 C 
ATOM     25  C   UNL     1      -0.013   1.086   0.008  0.00  0.00    +0.225 C 
ENDBRANCH  23  25
ENDBRANCH  17  23
ENDBRANCH   1  20
BRANCH  13  26
ATOM     26  C   UNL     1       6.812   2.129   7.213  0.00  0.00    -0.040 A 
ATOM     27  C   UNL     1       7.426   2.565   6.053  0.00  0.00    +0.008 A 
ATOM     28  C   UNL     1       8.695   3.111   6.103  0.00  0.00    +0.049 A 
ATOM     29  C   UNL     1       9.360   3.211   7.314  0.00  0.00    +0.161 A 
ATOM     30  C   UNL     1       8.745   2.766   8.480  0.00  0.00    +0.162 A 
ATOM     31  C   UNL     1       7.470   2.225   8.425  0.00  0.00    +0.053 A 
BRANCH  30  32
ATOM     32  O   UNL     1       9.393   2.862   9.672  0.00  0.00    -0.491 OA
ATOM     33  C   UNL     1       8.700   2.385  10.828  0.00  0.00    +0.277 C 
ENDBRANCH  30  32
BRANCH  29  34
ATOM     34  O   UNL     1      10.611   3.742   7.364  0.00  0.00    -0.491 OA
ATOM     35  C   UNL     1      11.180   4.177   6.127  0.00  0.00    +0.277 C 
ENDBRANCH  29  34
ENDBRANCH  13  26
TORSDOF 6
