REMARK  Name = ZINC34871721
REMARK  10 active torsions:
REMARK  status: ('A' for Active; 'I' for Inactive)
REMARK    1  A    between atoms: C_1  and  C_2
REMARK    2  A    between atoms: C_2  and  C_3
REMARK    3  A    between atoms: C_3  and  C_4
REMARK    4  A    between atoms: C_4  and  C_5
REMARK    5  A    between atoms: C_5  and  C_6
REMARK    6  A    between atoms: C_6  and  N_7
REMARK    7  A    between atoms: C_11  and  C_12
REMARK    8  A    between atoms: C_13  and  N_24
REMARK    9  A    between atoms: C_16  and  C_23
REMARK   10  A    between atoms: C_27  and  C_30
REMARK                            x       y       z     vdW  Elec       q    Type
REMARK                         _______ _______ _______ _____ _____    ______ ____
ROOT
ATOM      1  C   UNL     1      -6.645  -5.455   3.560  0.00  0.00    +0.081 A 
ATOM      2  C   UNL     1      -7.473  -6.000   4.569  0.00  0.00    +0.136 A 
ATOM      3  N   UNL     1      -7.042  -6.032   5.821  0.00  0.00    -0.213 NA
ATOM      4  C   UNL     1      -5.841  -5.563   6.160  0.00  0.00    +0.145 A 
ATOM      5  C   UNL     1      -5.437  -5.625   7.506  0.00  0.00    -0.007 A 
ATOM      6  C   UNL     1      -4.210  -5.147   7.862  0.00  0.00    +0.008 A 
ATOM      7  C   UNL     1      -3.369  -4.602   6.882  0.00  0.00    +0.019 A 
ATOM      8  C   UNL     1      -3.774  -4.551   5.593  0.00  0.00    +0.096 A 
ATOM      9  N   UNL     1      -4.998  -5.026   5.227  0.00  0.00    -0.267 N 
ATOM     10  C   UNL     1      -5.369  -4.965   3.930  0.00  0.00    +0.267 A 
ATOM     11  O   UNL     1      -4.621  -4.492   3.092  0.00  0.00    -0.267 OA
ATOM     12  C   UNL     1      -6.353  -6.214   8.547  0.00  0.00    +0.047 C 
ENDROOT
BRANCH   1  17
ATOM     13  N   UNL     1      -4.872  -7.629   0.313  0.00  0.00    -0.255 N 
ATOM     14  C   UNL     1      -5.315  -7.015   1.396  0.00  0.00    +0.258 C 
ATOM     15  O   UNL     1      -4.778  -7.185   2.476  0.00  0.00    -0.269 OA
ATOM     16  C   UNL     1      -6.437  -6.148   1.264  0.00  0.00    +0.077 C 
ATOM     17  C   UNL     1      -7.078  -5.407   2.214  0.00  0.00    +0.037 C 
ATOM     18  S   UNL     1      -6.777  -6.294  -0.485  0.00  0.00    -0.061 S 
ATOM     19  C   UNL     1      -5.463  -7.436  -0.887  0.00  0.00    +0.121 C 
ATOM     20  S   UNL     1      -5.058  -8.113  -2.406  0.00  0.00    -0.027 S 
BRANCH  13  21
ATOM     21  C   UNL     1      -3.719  -8.528   0.413  0.00  0.00    +0.115 C 
BRANCH  21  22
ATOM     22  C   UNL     1      -2.431  -7.733   0.189  0.00  0.00    +0.019 C 
BRANCH  22  23
ATOM     23  C   UNL     1      -1.228  -8.672   0.293  0.00  0.00    +0.002 C 
BRANCH  23  24
ATOM     24  C   UNL     1       0.060  -7.877   0.069  0.00  0.00    -0.000 C 
BRANCH  24  26
ATOM     25  C   UNL     1       2.552  -8.020  -0.050  0.00  0.00    +0.004 C 
ATOM     26  C   UNL     1       1.264  -8.815   0.174  0.00  0.00    -0.003 C 
ENDBRANCH  24  26
ENDBRANCH  23  24
ENDBRANCH  22  23
ENDBRANCH  21  22
ENDBRANCH  13  21
ENDBRANCH   1  17
BRANCH   2  27
ATOM     27  N   UNL     1      -8.720  -6.493   4.252  0.00  0.00    -0.314 N 
ATOM     28  C   UNL     1      -8.921  -7.297   3.038  0.00  0.00    +0.107 C 
ATOM     29  C   UNL     1      -9.594  -8.617   3.427  0.00  0.00    +0.031 C 
ATOM     30  C   UNL     1     -10.878  -8.320   4.204  0.00  0.00    +0.078 C 
ATOM     31  C   UNL     1     -10.537  -7.556   5.486  0.00  0.00    +0.031 C 
ATOM     32  C   UNL     1      -9.873  -6.229   5.123  0.00  0.00    +0.107 C 
BRANCH  30  33
ATOM     33  C   UNL     1     -11.561  -9.616   4.559  0.00  0.00    +0.214 C 
ATOM     34  O   UNL     1     -11.069 -10.672   4.224  0.00  0.00    -0.276 OA
ATOM     35  N   UNL     1     -12.719  -9.601   5.249  0.00  0.00    -0.329 N 
ATOM     36  H   UNL     1     -13.112  -8.756   5.518  0.00  0.00    +0.145 HD
ATOM     37  H   UNL     1     -13.158 -10.435   5.478  0.00  0.00    +0.145 HD
ENDBRANCH  30  33
ENDBRANCH   2  27
TORSDOF 8
