REMARK  Name = ZINC35060985
REMARK  3 active torsions:
REMARK  status: ('A' for Active; 'I' for Inactive)
REMARK    1  A    between atoms: C_3  and  S_11
REMARK    2  A    between atoms: C_4  and  N_10
REMARK    3  A    between atoms: S_11  and  C_12
REMARK                            x       y       z     vdW  Elec       q    Type
REMARK                         _______ _______ _______ _____ _____    ______ ____
ROOT
ATOM      1  C   UNL     1       0.192   0.728  -0.160  0.00  0.00    +0.018 A 
ATOM      2  C   UNL     1       1.247   1.620  -0.119  0.00  0.00    +0.018 A 
ATOM      3  C   UNL     1       2.550   1.133  -0.075  0.00  0.00    +0.038 A 
ATOM      4  C   UNL     1       2.810  -0.224  -0.072  0.00  0.00    +0.065 A 
ATOM      5  C   UNL     1       1.746  -1.162  -0.113  0.00  0.00    +0.100 A 
ATOM      6  C   UNL     1       0.440  -0.624  -0.157  0.00  0.00    +0.041 A 
ATOM      7  S   UNL     1      -0.567  -2.087  -0.198  0.00  0.00    -0.075 S 
ATOM      8  C   UNL     1       0.766  -3.277  -0.156  0.00  0.00    +0.157 A 
ATOM      9  N   UNL     1       1.822  -2.510  -0.117  0.00  0.00    -0.246 NA
ENDROOT
BRANCH   4  10
ATOM     10  N   UNL     1       4.133  -0.677  -0.028  0.00  0.00    -0.355 N 
ATOM     11  H   UNL     1       4.863  -0.040   0.000  0.00  0.00    +0.142 HD
ATOM     12  H   UNL     1       4.320  -1.629  -0.025  0.00  0.00    +0.142 HD
ENDBRANCH   4  10
BRANCH   3  13
ATOM     13  S   UNL     1       3.895   2.270  -0.023  0.00  0.00    -0.050 S 
BRANCH  13  14
ATOM     14  C   UNL     1       4.429   2.222   1.655  0.00  0.00    +0.174 A 
ATOM     15  N   UNL     1       3.746   1.512   2.533  0.00  0.00    -0.231 NA
ATOM     16  C   UNL     1       4.115   1.449   3.810  0.00  0.00    +0.119 A 
ATOM     17  C   UNL     1       5.221   2.127   4.238  0.00  0.00    +0.090 A 
ATOM     18  C   UNL     1       5.955   2.886   3.310  0.00  0.00    +0.252 A 
ATOM     19  N   UNL     1       5.544   2.914   2.024  0.00  0.00    -0.302 N 
ATOM     20  O   UNL     1       6.947   3.504   3.658  0.00  0.00    -0.268 OA
ATOM     21  H   UNL     1       6.037   3.428   1.366  0.00  0.00    +0.171 HD
ENDBRANCH  13  14
ENDBRANCH   3  13
TORSDOF 3
