REMARK  Name = ZINC02248991
REMARK  6 active torsions:
REMARK  status: ('A' for Active; 'I' for Inactive)
REMARK    1  A    between atoms: C_1  and  O_2
REMARK    2  A    between atoms: O_2  and  C_3
REMARK    3  A    between atoms: C_6  and  C_9
REMARK    4  A    between atoms: C_20  and  C_22
REMARK    5  A    between atoms: C_33  and  S_35
REMARK    6  A    between atoms: S_35  and  C_36
REMARK                            x       y       z     vdW  Elec       q    Type
REMARK                         _______ _______ _______ _____ _____    ______ ____
ROOT
ATOM      1  C   UNL     1       2.587  -2.550   4.310  0.00  0.00    +0.159 C 
ATOM      2  C   UNL     1       3.997  -2.890   3.880  0.00  0.00    +0.025 C 
ATOM      3  C   UNL     1       4.380  -4.183   3.925  0.00  0.00    +0.058 C 
ATOM      4  C   UNL     1       5.770  -4.500   3.509  0.00  0.00    +0.040 A 
ATOM      5  C   UNL     1       6.160  -5.799   3.216  0.00  0.00    +0.013 A 
ATOM      6  C   UNL     1       7.463  -6.049   2.831  0.00  0.00    +0.001 A 
ATOM      7  C   UNL     1       8.374  -5.011   2.739  0.00  0.00    +0.004 A 
ATOM      8  C   UNL     1       7.993  -3.714   3.031  0.00  0.00    +0.046 A 
ATOM      9  C   UNL     1       6.691  -3.449   3.418  0.00  0.00    +0.131 A 
ATOM     10  O   UNL     1       6.292  -2.187   3.718  0.00  0.00    -0.479 OA
ATOM     11  C   UNL     1       4.945  -1.828   3.406  0.00  0.00    +0.234 C 
ATOM     12  N   UNL     1       3.534  -5.159   4.335  0.00  0.00    -0.326 N 
ATOM     13  C   UNL     1       2.294  -4.952   4.725  0.00  0.00    +0.216 C 
ATOM     14  N   UNL     1       1.756  -3.683   4.738  0.00  0.00    -0.209 N 
ATOM     15  N   UNL     1       0.443  -3.807   5.196  0.00  0.00    -0.239 N 
ATOM     16  C   UNL     1       0.242  -5.141   5.434  0.00  0.00    +0.174 C 
ATOM     17  N   UNL     1       1.339  -5.796   5.155  0.00  0.00    -0.192 NA
ATOM     18  H   UNL     1       3.864  -6.071   4.341  0.00  0.00    +0.169 HD
ATOM     19  H   UNL     1      -0.200  -3.091   5.320  0.00  0.00    +0.172 HD
ENDROOT
BRANCH  11  20
ATOM     20  C   UNL     1       4.804  -1.664   1.915  0.00  0.00    -0.003 A 
ATOM     21  C   UNL     1       5.422  -2.558   1.061  0.00  0.00    +0.010 A 
ATOM     22  C   UNL     1       5.294  -2.409  -0.307  0.00  0.00    +0.039 A 
ATOM     23  C   UNL     1       4.546  -1.363  -0.822  0.00  0.00    +0.123 A 
ATOM     24  C   UNL     1       3.928  -0.468   0.035  0.00  0.00    +0.039 A 
ATOM     25  C   UNL     1       4.053  -0.622   1.402  0.00  0.00    +0.010 A 
ATOM     26  F   UNL     1       4.420  -1.216  -2.159  0.00  0.00    -0.205 F 
ENDBRANCH  11  20
BRANCH   1  30
ATOM     27  C   UNL     1       0.626  -0.618   1.042  0.00  0.00    +0.120 A 
ATOM     28  C   UNL     1       1.202   0.138   2.051  0.00  0.00    +0.046 A 
ATOM     29  C   UNL     1       1.835  -0.488   3.107  0.00  0.00    +0.009 A 
ATOM     30  C   UNL     1       1.895  -1.869   3.158  0.00  0.00    -0.021 A 
ATOM     31  C   UNL     1       1.322  -2.625   2.152  0.00  0.00    +0.009 A 
ATOM     32  C   UNL     1       0.682  -2.003   1.098  0.00  0.00    +0.046 A 
BRANCH  27  34
ATOM     33  C   UNL     1      -0.017   1.425   0.010  0.00  0.00    +0.277 C 
ATOM     34  O   UNL     1       0.002  -0.004   0.002  0.00  0.00    -0.495 OA
ENDBRANCH  27  34
ENDBRANCH   1  30
BRANCH  16  35
ATOM     35  S   UNL     1      -1.254  -5.859   6.028  0.00  0.00    -0.092 S 
ATOM     36  C   UNL     1      -0.879  -7.631   6.130  0.00  0.00    +0.093 C 
ENDBRANCH  16  35
TORSDOF 4
