REMARK  Name = ZINC44166756
REMARK  5 active torsions:
REMARK  status: ('A' for Active; 'I' for Inactive)
REMARK    1  A    between atoms: C_1  and  C_2
REMARK    2  A    between atoms: C_2  and  C_4
REMARK    3  A    between atoms: C_2  and  N_14
REMARK    4  A    between atoms: C_15  and  C_17
REMARK    5  A    between atoms: C_22  and  C_25
REMARK                            x       y       z     vdW  Elec       q    Type
REMARK                         _______ _______ _______ _____ _____    ______ ____
ROOT
ATOM      1  N   UNL     1      -1.314  -0.642   0.092  0.00  0.00    -0.310 N 
ATOM      2  C   UNL     1      -1.955  -0.699   1.276  0.00  0.00    +0.200 C 
ATOM      3  O   UNL     1      -1.442  -0.224   2.267  0.00  0.00    -0.278 OA
ATOM      4  H   UNL     1      -1.724  -1.022  -0.700  0.00  0.00    +0.149 HD
ENDROOT
BRANCH   2   5
ATOM      5  C   UNL     1      -3.309  -1.355   1.369  0.00  0.00    +0.027 C 
ATOM      6  C   UNL     1      -4.292  -0.626   0.446  0.00  0.00    +0.062 C 
ATOM      7  S   UNL     1      -5.896  -1.483   0.530  0.00  0.00    -0.163 S 
ATOM      8  C   UNL     1      -6.179  -1.623   2.323  0.00  0.00    +0.058 C 
ATOM      9  C   UNL     1      -4.913  -2.203   2.965  0.00  0.00    -0.030 C 
ATOM     10  N   UNL     1      -3.786  -1.292   2.752  0.00  0.00    +0.392 N 
ATOM     11  H   UNL     1      -3.034  -1.546   3.374  0.00  0.00    -0.084 HD
ATOM     12  H   UNL     1      -4.079  -0.348   2.957  0.00  0.00    -0.084 HD
BRANCH   9  13
ATOM     13  C   UNL     1      -5.138  -2.380   4.445  0.00  0.00    -0.061 A 
ATOM     14  C   UNL     1      -5.038  -1.294   5.294  0.00  0.00    +0.002 A 
ATOM     15  C   UNL     1      -5.245  -1.457   6.651  0.00  0.00    +0.000 A 
ATOM     16  C   UNL     1      -5.552  -2.705   7.159  0.00  0.00    +0.000 A 
ATOM     17  C   UNL     1      -5.654  -3.791   6.309  0.00  0.00    +0.000 A 
ATOM     18  C   UNL     1      -5.451  -3.628   4.952  0.00  0.00    +0.002 A 
ENDBRANCH   9  13
ENDBRANCH   2   5
BRANCH   1  20
ATOM     19  C   UNL     1      -0.174   1.498  -0.231  0.00  0.00    +0.033 C 
ATOM     20  C   UNL     1       0.002  -0.004   0.002  0.00  0.00    +0.101 C 
BRANCH  20  21
ATOM     21  C   UNL     1       0.773  -0.604  -1.146  0.00  0.00    -0.020 A 
ATOM     22  C   UNL     1       0.112  -1.146  -2.205  0.00  0.00    +0.006 A 
ATOM     23  C   UNL     1       0.808  -1.705  -3.275  0.00  0.00    +0.001 A 
ATOM     24  C   UNL     1       2.169  -1.725  -3.292  0.00  0.00    +0.008 A 
ATOM     25  C   UNL     1       2.886  -1.174  -2.216  0.00  0.00    -0.018 A 
ATOM     26  C   UNL     1       2.178  -0.600  -1.131  0.00  0.00    -0.013 A 
ATOM     27  C   UNL     1       2.896  -0.044  -0.058  0.00  0.00    +0.009 A 
ATOM     28  C   UNL     1       4.256  -0.059  -0.078  0.00  0.00    +0.001 A 
ATOM     29  C   UNL     1       4.952  -0.618  -1.149  0.00  0.00    +0.001 A 
ATOM     30  C   UNL     1       4.291  -1.177  -2.199  0.00  0.00    +0.008 A 
ENDBRANCH  20  21
ENDBRANCH   1  20
TORSDOF 4
