REMARK  Name = ZINC35346304
REMARK  12 active torsions:
REMARK  status: ('A' for Active; 'I' for Inactive)
REMARK    1  A    between atoms: C_1  and  C_2
REMARK    2  A    between atoms: C_2  and  N_3
REMARK    3  A    between atoms: N_3  and  C_4
REMARK    4  A    between atoms: N_3  and  C_6
REMARK    5  A    between atoms: C_4  and  C_5
REMARK    6  A    between atoms: C_6  and  C_7
REMARK    7  A    between atoms: C_7  and  N_8
REMARK    8  A    between atoms: N_8  and  C_9
REMARK    9  A    between atoms: N_8  and  S_19
REMARK   10  A    between atoms: C_9  and  C_10
REMARK   11  A    between atoms: C_15  and  C_18
REMARK   12  A    between atoms: S_19  and  C_22
REMARK                            x       y       z     vdW  Elec       q    Type
REMARK                         _______ _______ _______ _____ _____    ______ ____
ROOT
ATOM      1  N   UNL     1      -0.803  -3.593   2.130  0.00  0.00    -0.170 NA
ENDROOT
BRANCH   1   2
ATOM      2  S   UNL     1      -2.029  -4.195   3.067  0.00  0.00    +0.061 S 
ATOM      3  O   UNL     1      -1.542  -5.394   3.652  0.00  0.00    -0.153 OA
ATOM      4  O   UNL     1      -2.515  -3.110   3.845  0.00  0.00    -0.153 OA
BRANCH   2   5
ATOM      5  C   UNL     1      -3.335  -4.659   1.979  0.00  0.00    +0.106 A 
ATOM      6  C   UNL     1      -4.312  -3.742   1.641  0.00  0.00    +0.029 A 
ATOM      7  C   UNL     1      -5.337  -4.105   0.787  0.00  0.00    +0.017 A 
ATOM      8  C   UNL     1      -5.384  -5.388   0.272  0.00  0.00    +0.018 A 
ATOM      9  C   UNL     1      -4.406  -6.306   0.610  0.00  0.00    +0.017 A 
ATOM     10  C   UNL     1      -3.379  -5.939   1.460  0.00  0.00    +0.029 A 
ATOM     11 BR   UNL     1      -6.786  -5.887  -0.896  0.00  0.00    -0.050 Br
ENDBRANCH   2   5
ENDBRANCH   1   2
BRANCH   1  12
ATOM     12  C   UNL     1      -0.756  -2.163   1.815  0.00  0.00    +0.091 C 
BRANCH  12  13
ATOM     13  C   UNL     1      -1.421  -1.918   0.458  0.00  0.00    -0.062 C 
BRANCH  13  14
ATOM     14  N   UNL     1      -1.374  -0.484   0.142  0.00  0.00    +0.380 N 
ATOM     15  H   UNL     1      -1.793   0.040   0.895  0.00  0.00    -0.082 HD
BRANCH  14  17
ATOM     16  C   UNL     1       0.082   1.451  -0.217  0.00  0.00    -0.017 C 
ATOM     17  C   UNL     1       0.024  -0.066  -0.029  0.00  0.00    -0.082 C 
ENDBRANCH  14  17
BRANCH  14  18
ATOM     18  C   UNL     1      -2.116  -0.233  -1.101  0.00  0.00    -0.082 C 
ATOM     19  C   UNL     1      -3.600  -0.533  -0.879  0.00  0.00    -0.017 C 
ENDBRANCH  14  18
ENDBRANCH  13  14
ENDBRANCH  12  13
ENDBRANCH   1  12
BRANCH   1  20
ATOM     20  C   UNL     1       0.236  -4.490   1.618  0.00  0.00    +0.205 C 
BRANCH  20  21
ATOM     21  C   UNL     1       1.421  -4.471   2.548  0.00  0.00    +0.234 C 
ATOM     22  O   UNL     1       1.400  -3.776   3.542  0.00  0.00    -0.274 OA
ATOM     23  N   UNL     1       2.504  -5.226   2.276  0.00  0.00    -0.264 N 
ATOM     24  C   UNL     1       3.597  -5.208   3.135  0.00  0.00    +0.165 A 
ATOM     25  N   UNL     1       4.730  -5.867   3.029  0.00  0.00    -0.230 NA
ATOM     26  C   UNL     1       5.680  -5.741   3.937  0.00  0.00    +0.047 A 
ATOM     27  C   UNL     1       5.433  -4.905   4.976  0.00  0.00    +0.071 A 
ATOM     28  S   UNL     1       3.795  -4.331   4.558  0.00  0.00    -0.060 S 
ATOM     29  C   UNL     1       6.981  -6.494   3.825  0.00  0.00    +0.066 C 
ATOM     30  H   UNL     1       2.520  -5.782   1.482  0.00  0.00    +0.157 HD
ENDBRANCH  20  21
ENDBRANCH   1  20
TORSDOF 9
