REMARK  Name = ZINC34791826
REMARK  11 active torsions:
REMARK  status: ('A' for Active; 'I' for Inactive)
REMARK    1  A    between atoms: C_1  and  C_2
REMARK    2  A    between atoms: C_2  and  N_3
REMARK    3  A    between atoms: C_6  and  C_11
REMARK    4  A    between atoms: C_14  and  C_18
REMARK    5  A    between atoms: C_16  and  C_17
REMARK    6  A    between atoms: N_21  and  C_23
REMARK    7  A    between atoms: C_23  and  C_25
REMARK    8  A    between atoms: C_23  and  C_32
REMARK    9  A    between atoms: C_25  and  C_26
REMARK   10  A    between atoms: N_34  and  C_35
REMARK   11  A    between atoms: C_35  and  C_36
REMARK                            x       y       z     vdW  Elec       q    Type
REMARK                         _______ _______ _______ _____ _____    ______ ____
ROOT
ATOM      1  N   UNL     1       1.229  -0.899  -0.523  0.00  0.00    -0.257 N 
ATOM      2  C   UNL     1       0.315  -0.971  -1.535  0.00  0.00    +0.042 C 
ATOM      3  C   UNL     1       0.693  -1.252  -2.799  0.00  0.00    +0.058 C 
ATOM      4  C   UNL     1       2.167  -1.486  -3.058  0.00  0.00    +0.142 C 
ATOM      5  N   UNL     1       3.072  -1.386  -1.900  0.00  0.00    -0.288 N 
ATOM      6  C   UNL     1       2.543  -1.091  -0.696  0.00  0.00    +0.307 C 
ATOM      7  O   UNL     1       3.283  -1.002   0.265  0.00  0.00    -0.252 OA
ATOM      8  C   UNL     1      -0.429  -1.269  -3.653  0.00  0.00    +0.247 C 
ATOM      9  O   UNL     1      -0.380  -1.497  -4.848  0.00  0.00    -0.270 OA
ATOM     10  N   UNL     1      -1.560  -1.002  -2.975  0.00  0.00    -0.280 N 
ATOM     11  C   UNL     1      -1.185  -0.789  -1.569  0.00  0.00    +0.160 C 
ATOM     12  H   UNL     1       4.026  -1.525  -2.003  0.00  0.00    +0.151 HD
ENDROOT
BRANCH   4  13
ATOM     13  C   UNL     1       2.322  -2.863  -3.650  0.00  0.00    -0.020 A 
ATOM     14  C   UNL     1       1.302  -3.788  -3.525  0.00  0.00    +0.006 A 
ATOM     15  C   UNL     1       1.445  -5.051  -4.068  0.00  0.00    +0.004 A 
ATOM     16  C   UNL     1       2.607  -5.389  -4.737  0.00  0.00    -0.050 A 
ATOM     17  C   UNL     1       3.626  -4.464  -4.862  0.00  0.00    +0.007 A 
ATOM     18  C   UNL     1       3.482  -3.199  -4.323  0.00  0.00    -0.045 A 
ATOM     19  C   UNL     1       4.591  -2.189  -4.465  0.00  0.00    +0.044 C 
ATOM     20  C   UNL     1       2.762  -6.766  -5.328  0.00  0.00    +0.044 C 
ENDBRANCH   4  13
BRANCH   1  22
ATOM     21  C   UNL     1       0.750   0.928   1.032  0.00  0.00    +0.025 C 
ATOM     22  C   UNL     1       0.747  -0.588   0.825  0.00  0.00    +0.111 C 
ENDBRANCH   1  22
BRANCH  10  23
ATOM     23  C   UNL     1      -2.913  -0.935  -3.534  0.00  0.00    +0.167 C 
BRANCH  23  24
ATOM     24  C   UNL     1      -3.269  -2.264  -4.148  0.00  0.00    +0.234 C 
ATOM     25  O   UNL     1      -2.472  -3.178  -4.120  0.00  0.00    -0.274 OA
ATOM     26  N   UNL     1      -4.474  -2.438  -4.726  0.00  0.00    -0.310 N 
ATOM     27  H   UNL     1      -5.111  -1.708  -4.748  0.00  0.00    +0.149 HD
BRANCH  26  28
ATOM     28  C   UNL     1      -4.820  -3.731  -5.322  0.00  0.00    +0.131 C 
BRANCH  28  29
ATOM     29  C   UNL     1      -6.212  -3.662  -5.897  0.00  0.00    -0.016 C 
ATOM     30  C   UNL     1      -6.417  -3.970  -7.154  0.00  0.00    +0.005 C 
ENDBRANCH  28  29
ENDBRANCH  26  28
ENDBRANCH  23  24
BRANCH  23  31
ATOM     31  C   UNL     1      -2.967   0.153  -4.608  0.00  0.00    +0.067 C 
BRANCH  31  32
ATOM     32  C   UNL     1      -2.732   1.499  -3.973  0.00  0.00    -0.045 A 
ATOM     33  C   UNL     1      -3.800   2.234  -3.494  0.00  0.00    +0.004 A 
ATOM     34  C   UNL     1      -3.584   3.469  -2.911  0.00  0.00    +0.000 A 
ATOM     35  C   UNL     1      -2.299   3.968  -2.806  0.00  0.00    +0.000 A 
ATOM     36  C   UNL     1      -1.230   3.232  -3.283  0.00  0.00    +0.000 A 
ATOM     37  C   UNL     1      -1.446   1.996  -3.863  0.00  0.00    +0.004 A 
ENDBRANCH  31  32
ENDBRANCH  23  31
ENDBRANCH  10  23
TORSDOF 8
