REMARK  Name = ZINC40902640
REMARK  5 active torsions:
REMARK  status: ('A' for Active; 'I' for Inactive)
REMARK    1  A    between atoms: C_1  and  C_2
REMARK    2  A    between atoms: C_5  and  C_8
REMARK    3  A    between atoms: C_10  and  C_13
REMARK    4  A    between atoms: C_16  and  N_20
REMARK    5  A    between atoms: C_23  and  C_26
REMARK                            x       y       z     vdW  Elec       q    Type
REMARK                         _______ _______ _______ _____ _____    ______ ____
ROOT
ATOM      1  N   UNL     1       0.198 -10.761   4.182  0.00  0.00    -0.328 N 
ATOM      2  C   UNL     1       1.472 -11.344   4.623  0.00  0.00    +0.106 C 
ATOM      3  C   UNL     1       1.464 -12.843   4.308  0.00  0.00    +0.031 C 
ATOM      4  C   UNL     1       0.227 -13.486   4.940  0.00  0.00    +0.078 C 
ATOM      5  C   UNL     1      -1.036 -12.860   4.344  0.00  0.00    +0.031 C 
ATOM      6  C   UNL     1      -1.056 -11.357   4.663  0.00  0.00    +0.106 C 
ENDROOT
BRANCH   4   7
ATOM      7  C   UNL     1       0.233 -14.967   4.661  0.00  0.00    +0.219 C 
ATOM      8  O   UNL     1       0.672 -15.384   3.611  0.00  0.00    -0.275 OA
ATOM      9  N   UNL     1      -0.251 -15.827   5.579  0.00  0.00    -0.298 N 
ATOM     10  C   UNL     1      -0.903 -15.331   6.799  0.00  0.00    +0.126 C 
ATOM     11  C   UNL     1      -2.303 -15.951   6.893  0.00  0.00    +0.125 C 
ATOM     12  N   UNL     1      -2.187 -17.403   6.692  0.00  0.00    -0.314 N 
ATOM     13  C   UNL     1      -1.535 -17.899   5.472  0.00  0.00    +0.125 C 
ATOM     14  C   UNL     1      -0.141 -17.278   5.375  0.00  0.00    +0.126 C 
ATOM     15  C   UNL     1      -2.686 -18.290   7.638  0.00  0.00    +0.099 A 
ATOM     16  C   UNL     1      -3.408 -17.805   8.725  0.00  0.00    +0.042 A 
ATOM     17  C   UNL     1      -3.898 -18.700   9.659  0.00  0.00    +0.005 A 
ATOM     18  C   UNL     1      -3.650 -20.053   9.475  0.00  0.00    +0.018 A 
ATOM     19  C   UNL     1      -2.926 -20.465   8.374  0.00  0.00    +0.084 A 
ATOM     20  N   UNL     1      -2.475 -19.589   7.495  0.00  0.00    -0.350 N 
ATOM     21  H   UNL     1      -1.973 -19.905   6.728  0.00  0.00    +0.166 HD
ENDBRANCH   4   7
BRANCH   1  25
ATOM     22  C   UNL     1       0.141  -7.466   1.630  0.00  0.00    +0.025 A 
ATOM     23  C   UNL     1       0.164  -7.280   3.011  0.00  0.00    +0.013 A 
ATOM     24  C   UNL     1       0.183  -8.371   3.853  0.00  0.00    +0.027 A 
ATOM     25  C   UNL     1       0.178  -9.658   3.327  0.00  0.00    +0.065 A 
ATOM     26  C   UNL     1       0.155  -9.847   1.948  0.00  0.00    +0.145 A 
ATOM     27  C   UNL     1       0.130  -8.757   1.102  0.00  0.00    +0.052 A 
ATOM     28  F   UNL     1       0.150 -11.098   1.438  0.00  0.00    -0.204 F 
BRANCH  22  31
ATOM     29  C   UNL     1       0.105  -4.224   0.055  0.00  0.00    +0.259 A 
ATOM     30  N   UNL     1       0.128  -5.007   1.108  0.00  0.00    -0.187 NA
ATOM     31  C   UNL     1       0.120  -6.293   0.722  0.00  0.00    +0.202 A 
ATOM     32  N   UNL     1       0.093  -6.342  -0.588  0.00  0.00    -0.056 NA
ATOM     33  O   UNL     1       0.076  -4.998  -1.044  0.00  0.00    -0.332 OA
BRANCH  29  38
ATOM     34  C   UNL     1       0.102   1.530   0.131  0.00  0.00    +0.044 C 
ATOM     35  C   UNL     1       0.102   0.023   0.111  0.00  0.00    -0.050 A 
ATOM     36  C   UNL     1       0.071  -0.650  -1.098  0.00  0.00    +0.004 A 
ATOM     37  C   UNL     1       0.072  -2.029  -1.123  0.00  0.00    +0.013 A 
ATOM     38  C   UNL     1       0.104  -2.746   0.074  0.00  0.00    +0.039 A 
ATOM     39  C   UNL     1       0.135  -2.061   1.290  0.00  0.00    +0.013 A 
ATOM     40  C   UNL     1       0.139  -0.681   1.301  0.00  0.00    +0.004 A 
ENDBRANCH  29  38
ENDBRANCH  22  31
ENDBRANCH   1  25
TORSDOF 4
