REMARK  Name = ZINC03108492
REMARK  3 active torsions:
REMARK  status: ('A' for Active; 'I' for Inactive)
REMARK    1  A    between atoms: C_4  and  C_7
REMARK    2  A    between atoms: C_20  and  C_22
REMARK    3  A    between atoms: C_27  and  N_28
REMARK                            x       y       z     vdW  Elec       q    Type
REMARK                         _______ _______ _______ _____ _____    ______ ____
ROOT
ATOM      1  C   UNL     1       3.779  -0.657  -0.078  0.00  0.00    +0.139 C 
ATOM      2  C   UNL     1       4.085  -0.973   1.353  0.00  0.00    -0.000 A 
ATOM      3  C   UNL     1       4.945  -0.088   2.001  0.00  0.00    +0.023 A 
ATOM      4  C   UNL     1       5.300  -0.269   3.319  0.00  0.00    +0.018 A 
ATOM      5  C   UNL     1       4.793  -1.352   4.016  0.00  0.00    +0.017 A 
ATOM      6  C   UNL     1       3.946  -2.230   3.386  0.00  0.00    +0.025 A 
ATOM      7  C   UNL     1       3.577  -2.055   2.040  0.00  0.00    +0.039 A 
ATOM      8  N   UNL     1       2.727  -3.014   1.541  0.00  0.00    -0.284 N 
ATOM      9  C   UNL     1       2.330  -3.411   0.366  0.00  0.00    +0.235 C 
ATOM     10  O   UNL     1       1.850  -4.522   0.300  0.00  0.00    -0.274 OA
ATOM     11  C   UNL     1       2.406  -2.634  -0.908  0.00  0.00    +0.205 C 
ATOM     12  N   UNL     1       3.600  -1.811  -0.919  0.00  0.00    -0.278 N 
ATOM     13  C   UNL     1       4.593  -2.143  -1.768  0.00  0.00    +0.250 C 
ATOM     14  O   UNL     1       5.640  -1.525  -1.750  0.00  0.00    -0.270 OA
ATOM     15 BR   UNL     1       6.470   0.950   4.168  0.00  0.00    -0.050 Br
ATOM     16  H   UNL     1       2.316  -3.531   2.251  0.00  0.00    +0.155 HD
ENDROOT
BRANCH   1  20
ATOM     17  C   UNL     1       0.207   1.681  -0.210  0.00  0.00    +0.000 A 
ATOM     18  C   UNL     1       0.179   0.407   0.325  0.00  0.00    +0.000 A 
ATOM     19  C   UNL     1       1.335  -0.350   0.368  0.00  0.00    +0.006 A 
ATOM     20  C   UNL     1       2.518   0.167  -0.126  0.00  0.00    -0.023 A 
ATOM     21  C   UNL     1       2.546   1.441  -0.662  0.00  0.00    +0.006 A 
ATOM     22  C   UNL     1       1.390   2.198  -0.703  0.00  0.00    +0.000 A 
ENDBRANCH   1  20
BRANCH  13  23
ATOM     23  C   UNL     1       4.409  -3.258  -2.721  0.00  0.00    +0.067 A 
ATOM     24  C   UNL     1       4.149  -4.546  -2.250  0.00  0.00    +0.015 A 
ATOM     25  C   UNL     1       3.978  -5.582  -3.145  0.00  0.00    +0.001 A 
ATOM     26  C   UNL     1       4.065  -5.347  -4.506  0.00  0.00    +0.002 A 
ATOM     27  C   UNL     1       4.323  -4.073  -4.979  0.00  0.00    +0.033 A 
ATOM     28  C   UNL     1       4.489  -3.026  -4.095  0.00  0.00    +0.138 A 
BRANCH  28  29
ATOM     29  N   UNL     1       4.759  -1.663  -4.603  0.00  0.00    +0.057 N 
ATOM     30  O   UNL     1       4.940  -1.482  -5.784  0.00  0.00    -0.126 OA
ATOM     31  O   UNL     1       4.799  -0.729  -3.836  0.00  0.00    -0.126 OA
ENDBRANCH  28  29
ENDBRANCH  13  23
TORSDOF 3
