REMARK  Name = ZINC37512260
REMARK  11 active torsions:
REMARK  status: ('A' for Active; 'I' for Inactive)
REMARK    1  A    between atoms: C_1  and  C_2
REMARK    2  A    between atoms: C_2  and  C_3
REMARK    3  A    between atoms: C_3  and  C_5
REMARK    4  A    between atoms: C_3  and  N_6
REMARK    5  A    between atoms: C_7  and  C_9
REMARK    6  A    between atoms: C_9  and  C_11
REMARK    7  A    between atoms: C_9  and  N_12
REMARK    8  A    between atoms: C_15  and  C_23
REMARK    9  A    between atoms: C_23  and  C_25
REMARK   10  A    between atoms: C_25  and  O_26
REMARK   11  A    between atoms: O_26  and  C_27
REMARK                            x       y       z     vdW  Elec       q    Type
REMARK                         _______ _______ _______ _____ _____    ______ ____
ROOT
ATOM      1  N   UNL     1      -5.587   0.404  -2.322  0.00  0.00    -0.254 N 
ATOM      2  C   UNL     1      -6.448  -0.423  -3.058  0.00  0.00    +0.080 A 
ATOM      3  C   UNL     1      -5.954  -1.504  -3.759  0.00  0.00    +0.038 A 
ATOM      4  C   UNL     1      -6.832  -2.317  -4.489  0.00  0.00    +0.023 A 
ATOM      5  C   UNL     1      -8.201  -2.027  -4.502  0.00  0.00    +0.015 A 
ATOM      6  C   UNL     1      -8.685  -0.946  -3.799  0.00  0.00    +0.048 A 
ATOM      7  C   UNL     1      -7.817  -0.141  -3.076  0.00  0.00    +0.143 A 
ATOM      8  O   UNL     1      -8.286   0.925  -2.377  0.00  0.00    -0.481 OA
ATOM      9  C   UNL     1      -7.602   1.252  -1.165  0.00  0.00    +0.325 C 
ATOM     10  C   UNL     1      -6.113   1.241  -1.402  0.00  0.00    +0.258 C 
ATOM     11  O   UNL     1      -5.391   1.984  -0.771  0.00  0.00    -0.271 OA
ENDROOT
BRANCH   1  12
ATOM     12  C   UNL     1      -4.140   0.357  -2.544  0.00  0.00    +0.164 C 
ATOM     13  C   UNL     1      -3.646   1.736  -2.984  0.00  0.00    +0.038 C 
BRANCH  12  15
ATOM     14  N   UNL     1      -2.105  -0.148  -1.230  0.00  0.00    -0.311 N 
ATOM     15  C   UNL     1      -3.448  -0.040  -1.265  0.00  0.00    +0.234 C 
ATOM     16  O   UNL     1      -4.100  -0.261  -0.267  0.00  0.00    -0.274 OA
ATOM     17  H   UNL     1      -1.584   0.029  -2.029  0.00  0.00    +0.149 HD
BRANCH  14  18
ATOM     18  C   UNL     1      -1.433  -0.534   0.013  0.00  0.00    +0.070 C 
ATOM     19  C   UNL     1      -1.413  -2.059   0.130  0.00  0.00    +0.028 C 
BRANCH  18  21
ATOM     20  C   UNL     1      -0.019   1.526   0.010  0.00  0.00    +0.005 C 
ATOM     21  C   UNL     1       0.002  -0.004   0.002  0.00  0.00    +0.018 C 
ENDBRANCH  18  21
ENDBRANCH  14  18
ENDBRANCH  12  15
ENDBRANCH   1  12
BRANCH   4  22
ATOM     22  C   UNL     1      -6.316  -3.470  -5.238  0.00  0.00    +0.200 C 
ATOM     23  O   UNL     1      -5.129  -3.719  -5.226  0.00  0.00    -0.288 OA
BRANCH  22  24
ATOM     24  C   UNL     1      -7.261  -4.343  -6.022  0.00  0.00    +0.308 C 
BRANCH  24  25
ATOM     25  O   UNL     1      -6.525  -5.390  -6.659  0.00  0.00    -0.481 OA
BRANCH  25  26
ATOM     26  C   UNL     1      -7.234  -6.273  -7.412  0.00  0.00    +0.156 A 
ATOM     27  C   UNL     1      -8.607  -6.131  -7.540  0.00  0.00    +0.051 A 
ATOM     28  C   UNL     1      -9.327  -7.029  -8.305  0.00  0.00    +0.042 A 
ATOM     29  C   UNL     1      -8.678  -8.071  -8.945  0.00  0.00    +0.126 A 
ATOM     30  C   UNL     1      -7.307  -8.215  -8.820  0.00  0.00    +0.080 A 
ATOM     31  C   UNL     1      -6.583  -7.314  -8.060  0.00  0.00    +0.168 A 
ATOM     32  F   UNL     1      -5.244  -7.452  -7.942  0.00  0.00    -0.202 F 
ATOM     33  F   UNL     1      -9.383  -8.948  -9.692  0.00  0.00    -0.205 F 
ENDBRANCH  25  26
ENDBRANCH  24  25
ENDBRANCH  22  24
ENDBRANCH   4  22
TORSDOF 8
