REMARK  Name = ZINC09345026
REMARK  10 active torsions:
REMARK  status: ('A' for Active; 'I' for Inactive)
REMARK    1  A    between atoms: C_1  and  C_2
REMARK    2  A    between atoms: N_8  and  S_9
REMARK    3  A    between atoms: S_9  and  C_12
REMARK    4  A    between atoms: C_15  and  C_18
REMARK    5  A    between atoms: N_20  and  C_21
REMARK    6  A    between atoms: C_21  and  C_22
REMARK    7  A    between atoms: C_22  and  C_23
REMARK    8  A    between atoms: C_23  and  N_66
REMARK    9  A    between atoms: C_24  and  N_66
REMARK   10  A    between atoms: C_25  and  N_66
REMARK                            x       y       z     vdW  Elec       q    Type
REMARK                         _______ _______ _______ _____ _____    ______ ____
ROOT
ATOM      1  C   UNL     1       1.944   9.307   0.249  0.00  0.00    +0.252 C 
ATOM      2  O   UNL     1       0.782   9.007   0.058  0.00  0.00    -0.270 OA
ATOM      3  N   UNL     1       2.926   8.447  -0.085  0.00  0.00    -0.246 N 
ATOM      4  C   UNL     1       2.610   7.190  -0.571  0.00  0.00    +0.168 A 
ATOM      5  N   UNL     1       1.426   6.660  -0.775  0.00  0.00    -0.224 NA
ATOM      6  C   UNL     1       1.264   5.410  -1.259  0.00  0.00    +0.080 A 
ATOM      7  C   UNL     1       0.055   4.725  -1.522  0.00  0.00    +0.029 A 
ATOM      8  C   UNL     1       0.067   3.449  -2.021  0.00  0.00    +0.002 A 
ATOM      9  C   UNL     1       1.256   2.781  -2.274  0.00  0.00    +0.001 A 
ATOM     10  C   UNL     1       2.458   3.420  -2.028  0.00  0.00    +0.017 A 
ATOM     11  C   UNL     1       2.455   4.700  -1.534  0.00  0.00    +0.041 A 
ATOM     12  S   UNL     1       3.708   5.875  -1.081  0.00  0.00    -0.052 S 
ENDROOT
BRANCH   1  16
ATOM     13  C   UNL     1       2.910  13.069   1.969  0.00  0.00    +0.106 A 
ATOM     14  C   UNL     1       1.923  12.284   2.538  0.00  0.00    +0.029 A 
ATOM     15  C   UNL     1       1.604  11.061   1.985  0.00  0.00    +0.015 A 
ATOM     16  C   UNL     1       2.280  10.616   0.847  0.00  0.00    +0.037 A 
ATOM     17  C   UNL     1       3.279  11.410   0.281  0.00  0.00    +0.015 A 
ATOM     18  C   UNL     1       3.583  12.634   0.841  0.00  0.00    +0.029 A 
BRANCH  13  19
ATOM     19  S   UNL     1       3.311  14.629   2.683  0.00  0.00    +0.061 S 
ATOM     20  O   UNL     1       4.073  15.335   1.713  0.00  0.00    -0.153 OA
ATOM     21  O   UNL     1       2.107  15.147   3.230  0.00  0.00    -0.153 OA
BRANCH  19  28
ATOM     22  C   UNL     1       6.096  14.334   2.265  0.00  0.00    +0.026 C 
ATOM     23  C   UNL     1       5.757  14.098   3.739  0.00  0.00    +0.077 C 
ATOM     24  C   UNL     1       6.556  15.076   4.615  0.00  0.00    +0.020 C 
ATOM     25  C   UNL     1       6.112  14.926   6.071  0.00  0.00    +0.003 C 
ATOM     26  C   UNL     1       4.626  15.275   6.192  0.00  0.00    +0.017 C 
ATOM     27  C   UNL     1       3.807  14.306   5.334  0.00  0.00    +0.110 C 
ATOM     28  N   UNL     1       4.325  14.337   3.959  0.00  0.00    -0.174 NA
ENDBRANCH  19  28
ENDBRANCH  13  19
ENDBRANCH   1  16
BRANCH   3  29
ATOM     29  C   UNL     1       4.329   8.842   0.066  0.00  0.00    +0.114 C 
BRANCH  29  30
ATOM     30  C   UNL     1       4.890   9.262  -1.294  0.00  0.00    +0.001 C 
BRANCH  30  31
ATOM     31  C   UNL     1       6.303   9.820  -1.112  0.00  0.00    -0.078 C 
BRANCH  31  34
ATOM     32  C   UNL     1       8.092  10.978  -2.261  0.00  0.00    -0.097 C 
ATOM     33  C   UNL     1       7.036   9.057  -3.290  0.00  0.00    -0.097 C 
ATOM     34  N   UNL     1       6.822  10.241  -2.430  0.00  0.00    +0.376 N 
ATOM     35  H   UNL     1       6.135  10.858  -2.878  0.00  0.00    -0.083 HD
ENDBRANCH  31  34
ENDBRANCH  30  31
ENDBRANCH  29  30
ENDBRANCH   3  29
TORSDOF 7
