REMARK  Name = ZINC40036880
REMARK  7 active torsions:
REMARK  status: ('A' for Active; 'I' for Inactive)
REMARK    1  A    between atoms: C_1  and  C_2
REMARK    2  A    between atoms: C_2  and  N_3
REMARK    3  A    between atoms: N_10  and  N_11
REMARK    4  A    between atoms: C_12  and  C_13
REMARK    5  A    between atoms: C_16  and  O_19
REMARK    6  A    between atoms: O_19  and  C_20
REMARK    7  A    between atoms: C_20  and  C_21
REMARK                            x       y       z     vdW  Elec       q    Type
REMARK                         _______ _______ _______ _____ _____    ______ ____
ROOT
ATOM      1  N   UNL     1       0.711  -0.489   1.189  0.00  0.00    -0.280 N 
ATOM      2  C   UNL     1       2.045  -0.690   1.141  0.00  0.00    +0.260 A 
ATOM      3  O   UNL     1       2.669  -0.494   0.110  0.00  0.00    -0.267 OA
ATOM      4  C   UNL     1       2.699  -1.128   2.301  0.00  0.00    +0.050 A 
ATOM      5  C   UNL     1       1.955  -1.334   3.451  0.00  0.00    +0.084 A 
ATOM      6  N   UNL     1       0.630  -1.149   3.430  0.00  0.00    -0.214 NA
ATOM      7  C   UNL     1       0.022  -0.731   2.339  0.00  0.00    +0.219 A 
ATOM      8  N   UNL     1      -1.335  -0.541   2.360  0.00  0.00    -0.206 N 
ATOM      9  C   UNL     1       2.649  -1.731   4.697  0.00  0.00    +0.004 A 
ATOM     10  C   UNL     1       1.935  -2.241   5.778  0.00  0.00    +0.010 A 
ATOM     11  C   UNL     1       2.607  -2.622   6.922  0.00  0.00    +0.001 A 
ATOM     12  C   UNL     1       3.983  -2.500   6.992  0.00  0.00    +0.000 A 
ATOM     13  C   UNL     1       4.695  -1.987   5.922  0.00  0.00    +0.004 A 
ATOM     14  C   UNL     1       4.034  -1.591   4.777  0.00  0.00    -0.037 A 
ATOM     15  C   UNL     1       4.799  -0.983   3.632  0.00  0.00    +0.047 C 
ATOM     16  C   UNL     1       4.181  -1.385   2.294  0.00  0.00    +0.007 C 
ATOM     17  C   UNL     1       4.436  -2.875   2.045  0.00  0.00    +0.012 C 
ATOM     18  C   UNL     1       5.943  -3.139   2.031  0.00  0.00    +0.001 C 
ATOM     19  C   UNL     1       6.595  -2.320   0.915  0.00  0.00    +0.000 C 
ATOM     20  C   UNL     1       6.338  -0.831   1.159  0.00  0.00    +0.001 C 
ATOM     21  C   UNL     1       4.831  -0.570   1.172  0.00  0.00    +0.012 C 
ATOM     22  H   UNL     1      -1.794  -0.237   1.561  0.00  0.00    +0.177 HD
ENDROOT
BRANCH   1  24
ATOM     23  C   UNL     1      -0.019   1.526   0.010  0.00  0.00    +0.027 C 
ATOM     24  C   UNL     1       0.002  -0.004   0.002  0.00  0.00    +0.125 C 
ENDBRANCH   1  24
BRANCH   8  25
ATOM     25  N   UNL     1      -2.059  -0.785   3.534  0.00  0.00    -0.188 NA
ATOM     26  C   UNL     1      -3.344  -0.605   3.554  0.00  0.00    +0.138 C 
BRANCH  26  27
ATOM     27  C   UNL     1      -4.106  -0.862   4.790  0.00  0.00    -0.005 A 
ATOM     28  C   UNL     1      -3.445  -1.294   5.943  0.00  0.00    +0.013 A 
ATOM     29  C   UNL     1      -4.161  -1.532   7.096  0.00  0.00    +0.046 A 
ATOM     30  C   UNL     1      -5.537  -1.345   7.113  0.00  0.00    +0.121 A 
ATOM     31  C   UNL     1      -6.198  -0.916   5.969  0.00  0.00    +0.046 A 
ATOM     32  C   UNL     1      -5.489  -0.669   4.813  0.00  0.00    +0.013 A 
BRANCH  30  33
ATOM     33  O   UNL     1      -6.239  -1.581   8.252  0.00  0.00    -0.483 OA
BRANCH  33  34
ATOM     34  C   UNL     1      -7.651  -1.368   8.200  0.00  0.00    +0.324 C 
BRANCH  34  35
ATOM     35  C   UNL     1      -8.256  -1.679   9.545  0.00  0.00    +0.248 C 
ATOM     36  O   UNL     1      -7.547  -2.047  10.458  0.00  0.00    -0.272 OA
ATOM     37  N   UNL     1      -9.584  -1.548   9.733  0.00  0.00    -0.327 N 
ATOM     38  H   UNL     1     -10.150  -1.254   9.003  0.00  0.00    +0.145 HD
ATOM     39  H   UNL     1      -9.973  -1.748  10.599  0.00  0.00    +0.145 HD
ENDBRANCH  34  35
ENDBRANCH  33  34
ENDBRANCH  30  33
ENDBRANCH  26  27
ENDBRANCH   8  25
TORSDOF 6
