REMARK  Name = ZINC51347589
REMARK  14 active torsions:
REMARK  status: ('A' for Active; 'I' for Inactive)
REMARK    1  A    between atoms: C_1  and  C_2
REMARK    2  A    between atoms: C_2  and  N_3
REMARK    3  A    between atoms: N_3  and  C_4
REMARK    4  A    between atoms: N_3  and  C_6
REMARK    5  A    between atoms: C_4  and  C_5
REMARK    6  A    between atoms: C_6  and  C_7
REMARK    7  A    between atoms: C_7  and  N_8
REMARK    8  A    between atoms: C_9  and  C_11
REMARK    9  A    between atoms: C_11  and  O_12
REMARK   10  A    between atoms: O_12  and  N_13
REMARK   11  A    between atoms: C_17  and  C_38
REMARK   12  A    between atoms: C_22  and  C_37
REMARK   13  A    between atoms: C_33  and  C_34
REMARK   14  A    between atoms: C_33  and  O_36
REMARK                            x       y       z     vdW  Elec       q    Type
REMARK                         _______ _______ _______ _____ _____    ______ ____
ROOT
ATOM      1  N   UNL     1       3.223  -8.106   4.617  0.00  0.00    -0.089 NA
ATOM      2  C   UNL     1       3.736  -8.668   5.667  0.00  0.00    +0.080 C 
ATOM      3  C   UNL     1       4.097  -7.830   6.867  0.00  0.00    +0.059 C 
ATOM      4  C   UNL     1       4.100  -8.704   8.123  0.00  0.00    +0.017 C 
ATOM      5  C   UNL     1       4.995  -9.920   7.920  0.00  0.00    -0.007 C 
ATOM      6  C   UNL     1       4.905 -10.850   9.142  0.00  0.00    +0.002 C 
ATOM      7  C   UNL     1       4.744 -10.041  10.421  0.00  0.00    +0.005 C 
ATOM      8  C   UNL     1       4.750 -10.933  11.671  0.00  0.00    +0.011 C 
ATOM      9  C   UNL     1       4.315 -12.335  11.342  0.00  0.00    +0.011 C 
ATOM     10  C   UNL     1       3.230 -12.346  10.248  0.00  0.00    +0.002 C 
ATOM     11  C   UNL     1       3.711 -11.781   8.943  0.00  0.00    -0.003 C 
ATOM     12  C   UNL     1       4.007 -12.836   7.888  0.00  0.00    +0.008 C 
ATOM     13  C   UNL     1       4.752 -12.207   6.709  0.00  0.00    +0.031 C 
ATOM     14  C   UNL     1       4.538 -10.712   6.718  0.00  0.00    -0.062 C 
ATOM     15  C   UNL     1       3.960 -10.117   5.686  0.00  0.00    +0.026 C 
ATOM     16  C   UNL     1       2.800 -13.822  10.228  0.00  0.00    +0.008 C 
ATOM     17  C   UNL     1       2.867 -14.249  11.717  0.00  0.00    +0.049 C 
ATOM     18  C   UNL     1       3.615 -13.117  12.469  0.00  0.00    +0.132 C 
ATOM     19  C   UNL     1       5.535 -13.178  10.935  0.00  0.00    +0.015 C 
ATOM     20  C   UNL     1       6.449  -9.487   7.727  0.00  0.00    +0.016 C 
ENDROOT
BRANCH  18  21
ATOM     21  C   UNL     1       2.657 -12.294  13.212  0.00  0.00    -0.070 C 
ATOM     22  C   UNL     1       1.889 -11.635  13.807  0.00  0.00    +0.007 C 
ENDBRANCH  18  21
BRANCH  18  23
ATOM     23  O   UNL     1       4.592 -13.673  13.348  0.00  0.00    -0.376 OA
ATOM     24  H   UNL     1       4.218 -14.180  14.082  0.00  0.00    +0.211 HD
ENDBRANCH  18  23
BRANCH   1  25
ATOM     25  O   UNL     1       3.005  -6.707   4.597  0.00  0.00    -0.384 OA
BRANCH  25  26
ATOM     26  C   UNL     1       2.435  -6.225   3.379  0.00  0.00    +0.358 C 
BRANCH  26  28
ATOM     27  N   UNL     1       1.722  -4.055   2.428  0.00  0.00    -0.314 N 
ATOM     28  C   UNL     1       2.248  -4.732   3.468  0.00  0.00    +0.253 C 
ATOM     29  O   UNL     1       2.571  -4.139   4.476  0.00  0.00    -0.272 OA
ATOM     30  H   UNL     1       1.463  -4.529   1.622  0.00  0.00    +0.149 HD
BRANCH  27  31
ATOM     31  C   UNL     1       1.540  -2.604   2.515  0.00  0.00    +0.086 C 
BRANCH  31  32
ATOM     32  C   UNL     1       0.929  -2.088   1.210  0.00  0.00    -0.060 C 
BRANCH  32  33
ATOM     33  N   UNL     1       0.634  -0.655   1.341  0.00  0.00    +0.380 N 
ATOM     34  H   UNL     1       0.048  -0.504   2.149  0.00  0.00    -0.082 HD
BRANCH  33  36
ATOM     35  C   UNL     1       1.577   1.566   1.763  0.00  0.00    -0.017 C 
ATOM     36  C   UNL     1       1.890   0.091   1.502  0.00  0.00    -0.082 C 
ENDBRANCH  33  36
BRANCH  33  37
ATOM     37  C   UNL     1      -0.063  -0.186   0.136  0.00  0.00    -0.082 C 
ATOM     38  C   UNL     1      -1.440  -0.848   0.055  0.00  0.00    -0.017 C 
ENDBRANCH  33  37
ENDBRANCH  32  33
ENDBRANCH  31  32
ENDBRANCH  27  31
ENDBRANCH  26  28
ENDBRANCH  25  26
ENDBRANCH   1  25
TORSDOF 10
