REMARK  Name = ZINC14997635
REMARK  5 active torsions:
REMARK  status: ('A' for Active; 'I' for Inactive)
REMARK    1  A    between atoms: C_4  and  C_7
REMARK    2  A    between atoms: C_8  and  C_9
REMARK    3  A    between atoms: N_11  and  C_12
REMARK    4  A    between atoms: C_12  and  C_13
REMARK    5  A    between atoms: C_20  and  C_23
REMARK                            x       y       z     vdW  Elec       q    Type
REMARK                         _______ _______ _______ _____ _____    ______ ____
ROOT
ATOM      1  C   UNL     1       5.674   0.363  -2.914  0.00  0.00    +0.195 C 
ATOM      2  C   UNL     1       6.733  -0.402  -2.087  0.00  0.00    +0.088 C 
ATOM      3  C   UNL     1       5.893  -0.991  -0.971  0.00  0.00    +0.034 A 
ATOM      4  C   UNL     1       6.140  -1.995  -0.056  0.00  0.00    +0.130 A 
ATOM      5  C   UNL     1       5.171  -2.349   0.871  0.00  0.00    +0.039 A 
ATOM      6  C   UNL     1       3.959  -1.691   0.883  0.00  0.00    +0.015 A 
ATOM      7  C   UNL     1       3.701  -0.679  -0.036  0.00  0.00    +0.024 A 
ATOM      8  C   UNL     1       4.681  -0.317  -0.976  0.00  0.00    +0.135 A 
ATOM      9  O   UNL     1       4.651   0.640  -1.942  0.00  0.00    -0.486 OA
ATOM     10  F   UNL     1       7.330  -2.635  -0.065  0.00  0.00    -0.205 F 
ENDROOT
BRANCH   7  11
ATOM     11  C   UNL     1       2.395   0.022  -0.021  0.00  0.00    -0.012 A 
ATOM     12  C   UNL     1       1.195  -0.696  -0.013  0.00  0.00    +0.028 A 
ATOM     13  C   UNL     1       0.002  -0.004   0.002  0.00  0.00    +0.111 A 
ATOM     14  N   UNL     1      -0.016   1.315   0.009  0.00  0.00    -0.263 NA
ATOM     15  C   UNL     1       1.093   2.030   0.003  0.00  0.00    +0.111 A 
ATOM     16  C   UNL     1       2.330   1.419  -0.013  0.00  0.00    +0.028 A 
ENDBRANCH   7  11
BRANCH   1  17
ATOM     17  C   UNL     1       6.257   1.663  -3.472  0.00  0.00    +0.150 C 
BRANCH  17  20
ATOM     18  C   UNL     1       5.483   3.612  -4.714  0.00  0.00    +0.289 C 
ATOM     19  O   UNL     1       6.617   4.052  -4.672  0.00  0.00    -0.261 OA
ATOM     20  N   UNL     1       5.200   2.425  -4.143  0.00  0.00    -0.301 N 
ATOM     21  H   UNL     1       4.296   2.074  -4.176  0.00  0.00    +0.150 HD
BRANCH  18  23
ATOM     22  C   UNL     1       3.603   4.966  -5.907  0.00  0.00    -0.057 C 
ATOM     23  C   UNL     1       4.450   4.356  -5.370  0.00  0.00    -0.003 C 
BRANCH  22  27
ATOM     24  C   UNL     1       0.572   7.148  -7.833  0.00  0.00    +0.000 A 
ATOM     25  C   UNL     1       1.860   7.652  -7.787  0.00  0.00    +0.001 A 
ATOM     26  C   UNL     1       2.860   6.942  -7.157  0.00  0.00    +0.017 A 
ATOM     27  C   UNL     1       2.570   5.710  -6.563  0.00  0.00    +0.025 A 
ATOM     28  C   UNL     1       1.268   5.204  -6.618  0.00  0.00    +0.017 A 
ATOM     29  C   UNL     1       0.277   5.929  -7.248  0.00  0.00    +0.001 A 
ENDBRANCH  22  27
ENDBRANCH  18  23
ENDBRANCH  17  20
ENDBRANCH   1  17
TORSDOF 5
