REMARK  Name = ZINC35424283
REMARK  9 active torsions:
REMARK  status: ('A' for Active; 'I' for Inactive)
REMARK    1  A    between atoms: C_1  and  O_2
REMARK    2  A    between atoms: O_2  and  C_3
REMARK    3  A    between atoms: C_7  and  C_9
REMARK    4  A    between atoms: C_12  and  N_35
REMARK    5  A    between atoms: C_18  and  C_31
REMARK    6  A    between atoms: C_31  and  O_33
REMARK    7  A    between atoms: O_33  and  C_34
REMARK    8  A    between atoms: N_35  and  C_36
REMARK    9  A    between atoms: C_36  and  C_37
REMARK                            x       y       z     vdW  Elec       q    Type
REMARK                         _______ _______ _______ _____ _____    ______ ____
ROOT
ATOM      1  C   UNL     1      -2.888  -4.745   0.006  0.00  0.00    +0.087 C 
ATOM      2  C   UNL     1      -3.427  -5.461  -1.235  0.00  0.00    +0.008 C 
ATOM      3  C   UNL     1      -3.708  -6.927  -0.897  0.00  0.00    -0.067 C 
ATOM      4  C   UNL     1      -4.692  -6.998   0.275  0.00  0.00    +0.009 C 
ATOM      5  C   UNL     1      -4.102  -6.243   1.468  0.00  0.00    +0.103 C 
ATOM      6  N   UNL     1      -3.873  -4.841   1.089  0.00  0.00    -0.274 NA
ATOM      7  C   UNL     1      -3.495  -4.021   2.245  0.00  0.00    +0.172 C 
ATOM      8  C   UNL     1      -4.710  -3.840   3.164  0.00  0.00    +0.068 C 
ATOM      9  C   UNL     1      -5.335  -5.193   3.390  0.00  0.00    -0.016 A 
ATOM     10  C   UNL     1      -5.062  -6.286   2.630  0.00  0.00    +0.038 A 
ATOM     11  N   UNL     1      -5.776  -7.364   3.079  0.00  0.00    -0.356 N 
ATOM     12  H   UNL     1      -5.750  -8.252   2.690  0.00  0.00    +0.166 HD
ATOM     13  C   UNL     1      -6.531  -7.000   4.158  0.00  0.00    +0.047 A 
ATOM     14  C   UNL     1      -6.288  -5.606   4.397  0.00  0.00    +0.003 A 
ATOM     15  C   UNL     1      -6.918  -4.927   5.444  0.00  0.00    +0.010 A 
ATOM     16  C   UNL     1      -7.787  -5.653   6.221  0.00  0.00    +0.001 A 
ATOM     17  C   UNL     1      -8.037  -6.995   5.989  0.00  0.00    +0.002 A 
ATOM     18  C   UNL     1      -7.412  -7.717   4.964  0.00  0.00    +0.026 A 
ENDROOT
BRANCH   1  23
ATOM     19  C   UNL     1      -1.126  -1.526  -0.897  0.00  0.00    +0.120 A 
ATOM     20  C   UNL     1      -2.185  -0.629  -0.914  0.00  0.00    +0.045 A 
ATOM     21  C   UNL     1      -3.464  -1.068  -0.634  0.00  0.00    +0.004 A 
ATOM     22  C   UNL     1      -3.691  -2.399  -0.337  0.00  0.00    +0.005 A 
ATOM     23  C   UNL     1      -2.637  -3.295  -0.319  0.00  0.00    -0.027 A 
ATOM     24  C   UNL     1      -1.356  -2.862  -0.604  0.00  0.00    +0.050 A 
BRANCH  19  26
ATOM     25  C   UNL     1       0.296   0.292  -1.466  0.00  0.00    +0.277 C 
ATOM     26  O   UNL     1       0.134  -1.097  -1.173  0.00  0.00    -0.495 OA
ENDBRANCH  19  26
ENDBRANCH   1  23
BRANCH   3  27
ATOM     27  N   UNL     1      -4.290  -7.597  -2.067  0.00  0.00    +0.388 N 
ATOM     28  H   UNL     1      -4.551  -8.540  -1.820  0.00  0.00    -0.084 HD
ATOM     29  H   UNL     1      -5.108  -7.091  -2.373  0.00  0.00    -0.084 HD
BRANCH  27  30
ATOM     30  C   UNL     1      -3.302  -7.632  -3.153  0.00  0.00    +0.009 C 
BRANCH  30  31
ATOM     31  C   UNL     1      -3.885  -8.304  -4.326  0.00  0.00    -0.125 C 
ATOM     32  C   UNL     1      -4.350  -8.839  -5.262  0.00  0.00    +0.002 C 
ENDBRANCH  30  31
ENDBRANCH  27  30
ENDBRANCH   3  27
BRANCH   7  33
ATOM     33  C   UNL     1      -2.387  -4.704   3.005  0.00  0.00    +0.325 C 
ATOM     34  O   UNL     1      -1.822  -5.657   2.522  0.00  0.00    -0.249 OA
BRANCH  33  35
ATOM     35  O   UNL     1      -2.029  -4.255   4.218  0.00  0.00    -0.467 OA
ATOM     36  C   UNL     1      -0.972  -4.951   4.881  0.00  0.00    +0.280 C 
ENDBRANCH  33  35
ENDBRANCH   7  33
TORSDOF 7
