REMARK  Name = ZINC20113084
REMARK  6 active torsions:
REMARK  status: ('A' for Active; 'I' for Inactive)
REMARK    1  A    between atoms: C_4  and  C_7
REMARK    2  A    between atoms: C_12  and  O_33
REMARK    3  A    between atoms: C_13  and  C_26
REMARK    4  A    between atoms: C_15  and  C_18
REMARK    5  A    between atoms: C_18  and  N_19
REMARK    6  A    between atoms: C_26  and  N_27
REMARK                            x       y       z     vdW  Elec       q    Type
REMARK                         _______ _______ _______ _____ _____    ______ ____
ROOT
ATOM      1  C   UNL     1      -0.273   5.918   3.845  0.00  0.00    +0.139 A 
ATOM      2  C   UNL     1      -1.029   6.259   4.921  0.00  0.00    +0.098 A 
ATOM      3  C   UNL     1      -2.438   6.322   4.792  0.00  0.00    +0.197 A 
ATOM      4  O   UNL     1      -3.148   6.625   5.737  0.00  0.00    -0.287 OA
ATOM      5  C   UNL     1      -3.013   6.008   3.473  0.00  0.00    +0.106 A 
ATOM      6  C   UNL     1      -4.396   6.045   3.254  0.00  0.00    +0.136 A 
ATOM      7  C   UNL     1      -4.895   5.742   2.001  0.00  0.00    +0.025 A 
ATOM      8  C   UNL     1      -4.028   5.411   0.965  0.00  0.00    +0.189 A 
ATOM      9  C   UNL     1      -2.659   5.367   1.176  0.00  0.00    +0.026 A 
ATOM     10  C   UNL     1      -2.139   5.666   2.426  0.00  0.00    +0.148 A 
ATOM     11  O   UNL     1      -0.808   5.633   2.647  0.00  0.00    -0.454 OA
ATOM     12  O   UNL     1      -4.528   5.121  -0.263  0.00  0.00    -0.287 OA
ENDROOT
BRANCH   1  16
ATOM     13  C   UNL     1       3.947   5.745   4.287  0.00  0.00    +0.000 A 
ATOM     14  C   UNL     1       3.370   5.456   3.063  0.00  0.00    +0.001 A 
ATOM     15  C   UNL     1       2.000   5.510   2.912  0.00  0.00    +0.011 A 
ATOM     16  C   UNL     1       1.195   5.857   3.999  0.00  0.00    +0.017 A 
ATOM     17  C   UNL     1       1.784   6.153   5.230  0.00  0.00    +0.011 A 
ATOM     18  C   UNL     1       3.155   6.090   5.368  0.00  0.00    +0.001 A 
ENDBRANCH   1  16
BRANCH   6  19
ATOM     19  O   UNL     1      -5.239   6.374   4.265  0.00  0.00    -0.506 OA
ATOM     20  H   UNL     1      -6.325   6.401   4.088  0.00  0.00    +0.292 HD
ENDBRANCH   6  19
BRANCH   9  21
ATOM     21  C   UNL     1      -1.734   5.000   0.044  0.00  0.00    -0.035 C 
BRANCH  21  22
ATOM     22  N   UNL     1      -1.525   3.546   0.035  0.00  0.00    +0.383 N 
ATOM     23  C   UNL     1      -0.826   3.122  -1.185  0.00  0.00    -0.078 C 
ATOM     24  C   UNL     1      -0.756   1.594  -1.230  0.00  0.00    -0.019 C 
ATOM     25  C   UNL     1      -0.013   1.086   0.008  0.00  0.00    -0.004 C 
ATOM     26  C   UNL     1      -0.732   1.581   1.266  0.00  0.00    -0.019 C 
ATOM     27  C   UNL     1      -0.804   3.109   1.238  0.00  0.00    -0.078 C 
ATOM     28  H   UNL     1      -2.512   3.061   0.041  0.00  0.00    -0.081 HD
ENDBRANCH  21  22
ENDBRANCH   9  21
BRANCH   7  29
ATOM     29  C   UNL     1      -6.381   5.779   1.755  0.00  0.00    -0.035 C 
BRANCH  29  30
ATOM     30  N   UNL     1      -6.772   7.125   1.317  0.00  0.00    +0.383 N 
ATOM     31  C   UNL     1      -6.566   8.108   2.388  0.00  0.00    -0.078 C 
ATOM     32  C   UNL     1      -6.844   9.514   1.852  0.00  0.00    -0.019 C 
ATOM     33  C   UNL     1      -8.285   9.585   1.340  0.00  0.00    -0.004 C 
ATOM     34  C   UNL     1      -8.487   8.519   0.260  0.00  0.00    -0.019 C 
ATOM     35  C   UNL     1      -8.161   7.141   0.841  0.00  0.00    -0.078 C 
ATOM     36  H   UNL     1      -6.126   7.409   0.473  0.00  0.00    -0.081 HD
ENDBRANCH  29  30
ENDBRANCH   7  29
TORSDOF 6
