REMARK  Name = ZINC15203054
REMARK  3 active torsions:
REMARK  status: ('A' for Active; 'I' for Inactive)
REMARK    1  A    between atoms: C_3  and  C_7
REMARK    2  A    between atoms: C_10  and  C_13
REMARK    3  A    between atoms: C_10  and  O_17
REMARK                            x       y       z     vdW  Elec       q    Type
REMARK                         _______ _______ _______ _____ _____    ______ ____
ROOT
ATOM      1  C   UNL     1      -2.538   1.379   0.020  0.00  0.00    +0.133 C 
ATOM      2  C   UNL     1      -3.267   1.854  -1.258  0.00  0.00    +0.103 C 
ATOM      3  C   UNL     1      -4.667   2.244  -0.719  0.00  0.00    +0.284 C 
ATOM      4  O   UNL     1      -4.362   2.812   0.575  0.00  0.00    -0.255 OA
ATOM      5  N   UNL     1      -3.282   1.990   1.142  0.00  0.00    -0.189 NA
ATOM      6  H   UNL     1      -3.652   1.282   1.758  0.00  0.00    +0.155 HD
ENDROOT
BRANCH   1   9
ATOM      7  C   UNL     1       1.112   1.925   0.002  0.00  0.00    +0.019 A 
ATOM      8  C   UNL     1      -0.013   1.076   0.008  0.00  0.00    +0.024 A 
ATOM      9  C   UNL     1      -1.110   1.859   0.017  0.00  0.00    +0.036 A 
ATOM     10  N   UNL     1      -0.705   3.161   0.024  0.00  0.00    -0.363 N 
ATOM     11  H   UNL     1      -1.290   3.935   0.034  0.00  0.00    +0.165 HD
ATOM     12  C   UNL     1       0.658   3.195   0.012  0.00  0.00    +0.083 A 
ENDBRANCH   1   9
BRANCH   3  13
ATOM     13  C   UNL     1      -5.327   3.285  -1.626  0.00  0.00    +0.446 C 
ATOM     14  F   UNL     1      -4.472   4.382  -1.776  0.00  0.00    -0.165 F 
ATOM     15  F   UNL     1      -5.580   2.717  -2.880  0.00  0.00    -0.165 F 
ATOM     16  F   UNL     1      -6.532   3.706  -1.054  0.00  0.00    -0.165 F 
ENDBRANCH   3  13
BRANCH   3  17
ATOM     17  O   UNL     1      -5.501   1.092  -0.583  0.00  0.00    -0.357 OA
ATOM     18  H   UNL     1      -6.359   1.274  -0.175  0.00  0.00    +0.213 HD
ENDBRANCH   3  17
TORSDOF 3
