REMARK  Name = ZINC21810098
REMARK  10 active torsions:
REMARK  status: ('A' for Active; 'I' for Inactive)
REMARK    1  A    between atoms: C_1  and  C_2
REMARK    2  A    between atoms: C_2  and  C_3
REMARK    3  A    between atoms: C_12  and  C_25
REMARK    4  A    between atoms: C_12  and  C_26
REMARK    5  A    between atoms: N_13  and  C_16
REMARK    6  A    between atoms: C_16  and  C_17
REMARK    7  A    between atoms: C_17  and  C_18
REMARK    8  A    between atoms: C_18  and  N_19
REMARK    9  A    between atoms: N_28  and  C_29
REMARK   10  A    between atoms: C_32  and  C_35
REMARK                            x       y       z     vdW  Elec       q    Type
REMARK                         _______ _______ _______ _____ _____    ______ ____
ROOT
ATOM      1  C   UNL     1      -4.923   8.007   8.936  0.00  0.00    -0.008 A 
ATOM      2  C   UNL     1      -5.107   7.612   7.659  0.00  0.00    +0.037 A 
ATOM      3  C   UNL     1      -4.069   7.736   6.725  0.00  0.00    +0.057 A 
ATOM      4  C   UNL     1      -2.875   8.287   7.215  0.00  0.00    +0.038 A 
ATOM      5  S   UNL     1      -3.239   8.599   8.923  0.00  0.00    -0.092 S 
ATOM      6  C   UNL     1      -1.939   8.356   6.190  0.00  0.00    +0.048 A 
ATOM      7  C   UNL     1      -2.535   7.861   5.068  0.00  0.00    +0.106 A 
ATOM      8  N   UNL     1      -3.831   7.471   5.389  0.00  0.00    -0.333 N 
ATOM      9  C   UNL     1      -4.726   6.868   4.398  0.00  0.00    +0.157 C 
ATOM     10  C   UNL     1      -4.363   7.401   3.008  0.00  0.00    +0.128 C 
ATOM     11  N   UNL     1      -2.927   7.365   2.755  0.00  0.00    -0.281 N 
ATOM     12  C   UNL     1      -2.022   7.709   3.701  0.00  0.00    +0.264 C 
ATOM     13  O   UNL     1      -0.848   7.883   3.433  0.00  0.00    -0.268 OA
ATOM     14  C   UNL     1      -5.072   6.551   1.952  0.00  0.00    +0.043 C 
ENDROOT
BRANCH  10  15
ATOM     15  C   UNL     1      -4.843   8.824   2.886  0.00  0.00    +0.238 C 
ATOM     16  O   UNL     1      -5.943   9.056   2.432  0.00  0.00    -0.273 OA
ATOM     17  N   UNL     1      -4.050   9.839   3.282  0.00  0.00    -0.311 N 
ATOM     18  H   UNL     1      -3.052   9.629   3.694  0.00  0.00    +0.149 HD
BRANCH  17  19
ATOM     19  C   UNL     1      -4.517  11.223   3.163  0.00  0.00    +0.073 C 
ATOM     20  C   UNL     1      -4.226  11.740   1.753  0.00  0.00    +0.022 C 
ATOM     21  C   UNL     1      -2.720  11.685   1.490  0.00  0.00    +0.005 C 
ATOM     22  C   UNL     1      -1.992  12.559   2.514  0.00  0.00    -0.014 C 
ATOM     23  C   UNL     1      -2.282  12.042   3.924  0.00  0.00    +0.005 C 
ATOM     24  C   UNL     1      -3.788  12.096   4.187  0.00  0.00    +0.022 C 
ATOM     25  C   UNL     1      -0.485  12.505   2.251  0.00  0.00    +0.007 C 
ENDBRANCH  17  19
ENDBRANCH  10  15
BRANCH   1  27
ATOM     26  C   UNL     1      -5.760   6.624  10.817  0.00  0.00    +0.009 C 
ATOM     27  C   UNL     1      -5.896   7.962  10.086  0.00  0.00    +0.039 C 
ENDBRANCH   1  27
BRANCH  11  28
ATOM     28  C   UNL     1      -2.450   6.949   1.434  0.00  0.00    +0.107 C 
BRANCH  28  29
ATOM     29  C   UNL     1      -2.232   5.434   1.424  0.00  0.00    +0.000 C 
BRANCH  29  30
ATOM     30  C   UNL     1      -1.734   5.000   0.044  0.00  0.00    -0.077 C 
BRANCH  30  31
ATOM     31  N   UNL     1      -1.525   3.546   0.035  0.00  0.00    +0.380 N 
ATOM     32  C   UNL     1      -0.826   3.122  -1.185  0.00  0.00    -0.079 C 
ATOM     33  C   UNL     1      -0.756   1.594  -1.230  0.00  0.00    -0.019 C 
ATOM     34  C   UNL     1      -0.013   1.086   0.008  0.00  0.00    -0.004 C 
ATOM     35  C   UNL     1      -0.732   1.581   1.266  0.00  0.00    -0.019 C 
ATOM     36  C   UNL     1      -0.804   3.109   1.238  0.00  0.00    -0.079 C 
ATOM     37  H   UNL     1      -2.512   3.061   0.041  0.00  0.00    -0.082 HD
ENDBRANCH  30  31
ENDBRANCH  29  30
ENDBRANCH  28  29
ENDBRANCH  11  28
TORSDOF 7
