REMARK  Name = ZINC40069202
REMARK  11 active torsions:
REMARK  status: ('A' for Active; 'I' for Inactive)
REMARK    1  A    between atoms: C_1  and  C_2
REMARK    2  A    between atoms: C_2  and  C_4
REMARK    3  A    between atoms: C_2  and  N_30
REMARK    4  A    between atoms: C_7  and  S_16
REMARK    5  A    between atoms: N_8  and  C_9
REMARK    6  A    between atoms: S_16  and  C_17
REMARK    7  A    between atoms: C_17  and  C_18
REMARK    8  A    between atoms: N_20  and  C_21
REMARK    9  A    between atoms: N_20  and  C_27
REMARK   10  A    between atoms: C_27  and  C_28
REMARK   11  A    between atoms: C_27  and  C_29
REMARK                            x       y       z     vdW  Elec       q    Type
REMARK                         _______ _______ _______ _____ _____    ______ ____
ROOT
ATOM      1  C   UNL     1       0.707  -0.490  -1.238  0.00  0.00    +0.125 A 
ATOM      2  N   UNL     1       0.230  -0.486  -2.450  0.00  0.00    -0.135 NA
ATOM      3  N   UNL     1       1.094  -0.971  -3.268  0.00  0.00    -0.122 NA
ATOM      4  C   UNL     1       2.182  -1.314  -2.618  0.00  0.00    +0.197 A 
ATOM      5  N   UNL     1       1.972  -1.012  -1.300  0.00  0.00    -0.275 N 
ENDROOT
BRANCH   5   6
ATOM      6  C   UNL     1       2.865  -1.202  -0.235  0.00  0.00    +0.050 A 
ATOM      7  C   UNL     1       3.363  -0.107   0.457  0.00  0.00    +0.029 A 
ATOM      8  C   UNL     1       4.242  -0.295   1.506  0.00  0.00    +0.040 A 
ATOM      9  C   UNL     1       4.626  -1.576   1.867  0.00  0.00    +0.124 A 
ATOM     10  C   UNL     1       4.130  -2.670   1.178  0.00  0.00    +0.040 A 
ATOM     11  C   UNL     1       3.246  -2.485   0.133  0.00  0.00    +0.029 A 
ATOM     12  F   UNL     1       5.487  -1.758   2.893  0.00  0.00    -0.205 F 
ENDBRANCH   5   6
BRANCH   1  14
ATOM     13  C   UNL     1      -0.019   1.526   0.010  0.00  0.00    -0.005 C 
ATOM     14  C   UNL     1       0.002  -0.004   0.002  0.00  0.00    -0.002 C 
BRANCH  14  15
ATOM     15  N   UNL     1      -1.376  -0.512   0.012  0.00  0.00    +0.386 N 
ATOM     16  C   UNL     1      -2.065  -0.031   1.216  0.00  0.00    -0.078 C 
ATOM     17  C   UNL     1      -3.524  -0.491   1.192  0.00  0.00    -0.019 C 
ATOM     18  C   UNL     1      -3.571  -2.021   1.152  0.00  0.00    -0.004 C 
ATOM     19  C   UNL     1      -2.787  -2.515  -0.067  0.00  0.00    -0.019 C 
ATOM     20  C   UNL     1      -1.355  -1.980   0.004  0.00  0.00    -0.078 C 
ATOM     21  H   UNL     1      -1.863  -0.180  -0.807  0.00  0.00    -0.081 HD
ENDBRANCH  14  15
ENDBRANCH   1  14
BRANCH   4  22
ATOM     22  S   UNL     1       3.638  -2.022  -3.312  0.00  0.00    -0.076 S 
BRANCH  22  23
ATOM     23  C   UNL     1       3.264  -2.149  -5.082  0.00  0.00    +0.173 C 
BRANCH  23  24
ATOM     24  C   UNL     1       4.444  -2.748  -5.804  0.00  0.00    +0.226 C 
ATOM     25  O   UNL     1       5.439  -3.059  -5.184  0.00  0.00    -0.275 OA
ATOM     26  N   UNL     1       4.393  -2.938  -7.137  0.00  0.00    -0.295 N 
BRANCH  26  27
ATOM     27  C   UNL     1       5.540  -3.520  -7.838  0.00  0.00    +0.076 C 
ATOM     28  C   UNL     1       6.766  -2.628  -7.639  0.00  0.00    +0.022 C 
ATOM     29  C   UNL     1       7.964  -3.236  -8.371  0.00  0.00    +0.002 C 
ATOM     30  C   UNL     1       8.251  -4.630  -7.810  0.00  0.00    +0.000 C 
ATOM     31  C   UNL     1       7.025  -5.522  -8.009  0.00  0.00    +0.002 C 
ATOM     32  C   UNL     1       5.827  -4.914  -7.277  0.00  0.00    +0.022 C 
ENDBRANCH  26  27
BRANCH  26  33
ATOM     33  C   UNL     1       3.190  -2.563  -7.885  0.00  0.00    +0.070 C 
ATOM     34  C   UNL     1       3.552  -1.513  -8.938  0.00  0.00    +0.028 C 
ATOM     35  C   UNL     1       2.612  -3.800  -8.576  0.00  0.00    +0.028 C 
ENDBRANCH  26  33
ENDBRANCH  23  24
ENDBRANCH  22  23
ENDBRANCH   4  22
TORSDOF 8
