REMARK  Name = ZINC06545778
REMARK  7 active torsions:
REMARK  status: ('A' for Active; 'I' for Inactive)
REMARK    1  A    between atoms: C_1  and  C_2
REMARK    2  A    between atoms: C_2  and  O_3
REMARK    3  A    between atoms: O_3  and  C_4
REMARK    4  A    between atoms: C_4  and  C_6
REMARK    5  A    between atoms: C_7  and  N_34
REMARK    6  A    between atoms: C_24  and  C_27
REMARK    7  A    between atoms: C_32  and  C_33
REMARK                            x       y       z     vdW  Elec       q    Type
REMARK                         _______ _______ _______ _____ _____    ______ ____
ROOT
ATOM      1  C   UNL     1      -3.263   4.181   2.191  0.00  0.00    +0.117 C 
ATOM      2  C   UNL     1      -3.322   4.760   0.962  0.00  0.00    +0.195 C 
ATOM      3  O   UNL     1      -2.365   4.554   0.047  0.00  0.00    -0.446 OA
ATOM      4  C   UNL     1      -1.564   3.475   0.136  0.00  0.00    +0.116 C 
ATOM      5  C   UNL     1      -1.398   2.820   1.301  0.00  0.00    +0.057 C 
ATOM      6  C   UNL     1      -2.114   3.282   2.544  0.00  0.00    +0.141 C 
ATOM      7  C   UNL     1      -1.167   3.962   3.482  0.00  0.00    -0.002 A 
ATOM      8  C   UNL     1      -0.404   5.101   3.344  0.00  0.00    +0.007 A 
ATOM      9  C   UNL     1       0.384   5.469   4.429  0.00  0.00    +0.000 A 
ATOM     10  C   UNL     1       0.400   4.724   5.591  0.00  0.00    +0.002 A 
ATOM     11  C   UNL     1      -0.363   3.576   5.737  0.00  0.00    +0.023 A 
ATOM     12  C   UNL     1      -1.159   3.197   4.655  0.00  0.00    +0.038 A 
ATOM     13  N   UNL     1      -2.009   2.112   4.527  0.00  0.00    -0.284 N 
ATOM     14  C   UNL     1      -2.613   2.081   3.321  0.00  0.00    +0.237 C 
ATOM     15  O   UNL     1      -3.405   1.249   2.933  0.00  0.00    -0.274 OA
ATOM     16  C   UNL     1      -0.560   1.690   1.393  0.00  0.00    +0.165 C 
ATOM     17  O   UNL     1      -0.412   1.142   2.467  0.00  0.00    -0.292 OA
ATOM     18  C   UNL     1       0.152   1.149   0.184  0.00  0.00    +0.088 C 
ATOM     19  C   UNL     1      -0.658   1.500  -1.069  0.00  0.00    +0.034 C 
ATOM     20  C   UNL     1      -0.849   3.017  -1.113  0.00  0.00    +0.083 C 
ATOM     21  H   UNL     1      -2.153   1.452   5.223  0.00  0.00    +0.155 HD
ENDROOT
BRANCH  19  22
ATOM     22  C   UNL     1       0.089   1.048  -2.298  0.00  0.00    -0.041 A 
ATOM     23  C   UNL     1       1.349   1.551  -2.565  0.00  0.00    +0.004 A 
ATOM     24  C   UNL     1       2.034   1.136  -3.692  0.00  0.00    +0.000 A 
ATOM     25  C   UNL     1       1.459   0.218  -4.551  0.00  0.00    +0.000 A 
ATOM     26  C   UNL     1       0.200  -0.285  -4.284  0.00  0.00    +0.003 A 
ATOM     27  C   UNL     1      -0.483   0.126  -3.154  0.00  0.00    -0.047 A 
ATOM     28  C   UNL     1      -1.854  -0.426  -2.860  0.00  0.00    +0.044 C 
ENDBRANCH  19  22
BRANCH   2  29
ATOM     29  N   UNL     1      -4.382   5.571   0.653  0.00  0.00    -0.329 N 
ATOM     30  H   UNL     1      -4.394   6.053  -0.188  0.00  0.00    +0.145 HD
ATOM     31  H   UNL     1      -5.120   5.662   1.276  0.00  0.00    +0.145 HD
ENDBRANCH   2  29
BRANCH   1  32
ATOM     32  C   UNL     1      -4.277   4.424   3.130  0.00  0.00    +0.342 C 
ATOM     33  O   UNL     1      -4.095   5.224   4.030  0.00  0.00    -0.245 OA
BRANCH  32  34
ATOM     34  O   UNL     1      -5.455   3.770   3.036  0.00  0.00    -0.462 OA
BRANCH  34  36
ATOM     35  C   UNL     1      -7.699   3.235   3.758  0.00  0.00    +0.048 C 
ATOM     36  C   UNL     1      -6.442   4.066   4.026  0.00  0.00    +0.229 C 
ENDBRANCH  34  36
ENDBRANCH  32  34
ENDBRANCH   1  32
TORSDOF 5
