REMARK  Name = ZINC06410071
REMARK  8 active torsions:
REMARK  status: ('A' for Active; 'I' for Inactive)
REMARK    1  A    between atoms: C_1  and  C_2
REMARK    2  A    between atoms: C_7  and  C_14
REMARK    3  A    between atoms: C_14  and  C_16
REMARK    4  A    between atoms: C_14  and  N_71
REMARK    5  A    between atoms: N_20  and  C_21
REMARK    6  A    between atoms: C_21  and  C_22
REMARK    7  A    between atoms: C_30  and  C_33
REMARK    8  A    between atoms: C_33  and  C_34
REMARK                            x       y       z     vdW  Elec       q    Type
REMARK                         _______ _______ _______ _____ _____    ______ ____
ROOT
ATOM      1  C   UNL     1       1.179   3.631   0.010  0.00  0.00    +0.039 C 
ENDROOT
BRANCH   1   8
ATOM      2  C   UNL     1       0.123  -4.275  -0.021  0.00  0.00    +0.044 C 
ATOM      3  C   UNL     1       0.089  -2.769  -0.014  0.00  0.00    -0.048 A 
ATOM      4  C   UNL     1      -1.133  -2.109   0.002  0.00  0.00    +0.004 A 
ATOM      5  C   UNL     1      -1.185  -0.744   0.010  0.00  0.00    +0.010 A 
ATOM      6  C   UNL     1       0.002  -0.004   0.002  0.00  0.00    -0.001 A 
ATOM      7  C   UNL     1      -0.018   1.460   0.010  0.00  0.00    +0.017 A 
ATOM      8  C   UNL     1       1.165   2.124   0.002  0.00  0.00    +0.011 A 
ATOM      9  C   UNL     1       2.381   1.409  -0.012  0.00  0.00    +0.251 A 
ATOM     10  O   UNL     1       3.433   2.025  -0.019  0.00  0.00    -0.268 OA
ATOM     11  N   UNL     1       2.409   0.064  -0.020  0.00  0.00    -0.322 N 
ATOM     12  H   UNL     1       3.263  -0.396  -0.030  0.00  0.00    +0.169 HD
ATOM     13  C   UNL     1       1.242  -0.669  -0.013  0.00  0.00    +0.049 A 
ATOM     14  C   UNL     1       1.271  -2.060  -0.021  0.00  0.00    +0.029 A 
ENDBRANCH   1   8
BRANCH   1  20
ATOM     15  C   UNL     1       1.499   3.553   2.409  0.00  0.00    -0.077 C 
ATOM     16  C   UNL     1       2.450   3.950   3.541  0.00  0.00    -0.015 C 
ATOM     17  C   UNL     1       2.526   5.478   3.624  0.00  0.00    -0.010 C 
ATOM     18  C   UNL     1       2.993   6.031   2.275  0.00  0.00    -0.015 C 
ATOM     19  C   UNL     1       2.027   5.574   1.179  0.00  0.00    -0.077 C 
ATOM     20  N   UNL     1       2.017   4.096   1.135  0.00  0.00    +0.389 N 
ATOM     21  H   UNL     1       2.978   3.761   0.996  0.00  0.00    -0.080 HD
BRANCH  17  22
ATOM     22  C   UNL     1       3.521   5.882   4.714  0.00  0.00    +0.038 C 
BRANCH  22  23
ATOM     23  C   UNL     1       2.999   5.443   6.058  0.00  0.00    -0.047 A 
ATOM     24  C   UNL     1       2.201   6.293   6.801  0.00  0.00    +0.003 A 
ATOM     25  C   UNL     1       1.719   5.888   8.032  0.00  0.00    +0.000 A 
ATOM     26  C   UNL     1       2.042   4.637   8.524  0.00  0.00    +0.000 A 
ATOM     27  C   UNL     1       2.844   3.789   7.782  0.00  0.00    +0.000 A 
ATOM     28  C   UNL     1       3.323   4.192   6.550  0.00  0.00    +0.003 A 
ENDBRANCH  22  23
ENDBRANCH  17  22
ENDBRANCH   1  20
BRANCH   1  29
ATOM     29  C   UNL     1       1.773   4.134  -1.280  0.00  0.00    +0.143 A 
ATOM     30  N   UNL     1       3.041   4.133  -1.612  0.00  0.00    -0.115 NA
ATOM     31  N   UNL     1       3.144   4.641  -2.791  0.00  0.00    -0.023 NA
ATOM     32  N   UNL     1       1.976   4.974  -3.217  0.00  0.00    -0.044 NA
ATOM     33  N   UNL     1       1.104   4.677  -2.314  0.00  0.00    -0.228 N 
BRANCH  33  34
ATOM     34  C   UNL     1      -0.343   4.891  -2.398  0.00  0.00    +0.178 C 
BRANCH  34  35
ATOM     35  C   UNL     1      -0.688   6.275  -1.843  0.00  0.00    +0.140 C 
ATOM     36  C   UNL     1      -2.208   6.543  -1.972  0.00  0.00    +0.035 C 
ATOM     37  C   UNL     1      -2.421   7.587  -0.843  0.00  0.00    +0.031 C 
ATOM     38  C   UNL     1      -1.407   7.124   0.226  0.00  0.00    +0.160 C 
ATOM     39  O   UNL     1      -0.416   6.327  -0.433  0.00  0.00    -0.375 OA
ENDBRANCH  34  35
ENDBRANCH  33  34
ENDBRANCH   1  29
TORSDOF 7
