REMARK  Name = ZINC00726570
REMARK  10 active torsions:
REMARK  status: ('A' for Active; 'I' for Inactive)
REMARK    1  A    between atoms: C_1  and  C_2
REMARK    2  A    between atoms: C_3  and  C_26
REMARK    3  A    between atoms: C_4  and  C_16
REMARK    4  A    between atoms: C_10  and  C_14
REMARK    5  A    between atoms: C_10  and  C_15
REMARK    6  A    between atoms: C_18  and  O_24
REMARK    7  A    between atoms: C_19  and  O_23
REMARK    8  A    between atoms: O_24  and  C_25
REMARK    9  A    between atoms: C_26  and  O_28
REMARK   10  A    between atoms: O_28  and  C_29
REMARK                            x       y       z     vdW  Elec       q    Type
REMARK                         _______ _______ _______ _____ _____    ______ ____
ROOT
ATOM      1  C   UNL     1       5.809  -1.122  -5.058  0.00  0.00    +0.061 C 
ATOM      2  C   UNL     1       4.347  -0.770  -5.154  0.00  0.00    +0.031 C 
ATOM      3  C   UNL     1       3.777  -0.017  -4.198  0.00  0.00    +0.154 C 
ATOM      4  C   UNL     1       2.325   0.350  -4.258  0.00  0.00    +0.073 C 
ATOM      5  C   UNL     1       1.770   0.145  -5.645  0.00  0.00    +0.025 C 
ATOM      6  C   UNL     1       2.426  -0.615  -6.545  0.00  0.00    +0.049 C 
ATOM      7  N   UNL     1       3.609  -1.220  -6.213  0.00  0.00    -0.260 NA
ATOM      8  C   UNL     1       1.879  -0.820  -7.936  0.00  0.00    +0.062 C 
ATOM      9  C   UNL     1       0.355  -0.761  -7.905  0.00  0.00    -0.023 C 
ATOM     10  C   UNL     1      -0.069   0.595  -7.332  0.00  0.00    +0.086 C 
ATOM     11  C   UNL     1       0.553   0.767  -5.973  0.00  0.00    +0.162 C 
ATOM     12  O   UNL     1      -0.007   1.456  -5.143  0.00  0.00    -0.292 OA
ATOM     13  C   UNL     1      -0.182  -1.885  -7.018  0.00  0.00    +0.011 C 
ATOM     14  C   UNL     1      -0.199  -0.916  -9.323  0.00  0.00    +0.011 C 
ENDROOT
BRANCH   4  15
ATOM     15  C   UNL     1       1.564  -0.517  -3.288  0.00  0.00    -0.034 A 
ATOM     16  C   UNL     1       0.864   0.064  -2.246  0.00  0.00    +0.053 A 
ATOM     17  C   UNL     1       0.164  -0.731  -1.353  0.00  0.00    +0.163 A 
ATOM     18  C   UNL     1       0.171  -2.115  -1.505  0.00  0.00    +0.173 A 
ATOM     19  C   UNL     1       0.870  -2.690  -2.554  0.00  0.00    +0.063 A 
ATOM     20  C   UNL     1       1.567  -1.890  -3.442  0.00  0.00    +0.023 A 
ATOM     21 BR   UNL     1       0.877  -4.569  -2.767  0.00  0.00    -0.046 Br
BRANCH  18  22
ATOM     22  O   UNL     1      -0.511  -2.900  -0.628  0.00  0.00    -0.503 OA
ATOM     23  H   UNL     1      -1.427  -3.074  -0.886  0.00  0.00    +0.292 HD
ENDBRANCH  18  22
BRANCH  17  24
ATOM     24  O   UNL     1      -0.524  -0.161  -0.328  0.00  0.00    -0.491 OA
ATOM     25  C   UNL     1      -0.482   1.264  -0.232  0.00  0.00    +0.277 C 
ENDBRANCH  17  24
ENDBRANCH   4  15
BRANCH   3  26
ATOM     26  C   UNL     1       4.564   0.442  -3.116  0.00  0.00    +0.317 C 
ATOM     27  O   UNL     1       4.903   1.609  -3.062  0.00  0.00    -0.250 OA
BRANCH  26  28
ATOM     28  O   UNL     1       4.938  -0.415  -2.142  0.00  0.00    -0.461 OA
BRANCH  28  29
ATOM     29  C   UNL     1       5.731   0.117  -1.080  0.00  0.00    +0.176 C 
ATOM     30  C   UNL     1       7.213  -0.008  -1.438  0.00  0.00    +0.044 C 
ATOM     31  C   UNL     1       8.063   0.561  -0.300  0.00  0.00    +0.004 C 
ATOM     32  C   UNL     1       7.782  -0.218   0.986  0.00  0.00    +0.000 C 
ATOM     33  C   UNL     1       6.300  -0.093   1.344  0.00  0.00    +0.004 C 
ATOM     34  C   UNL     1       5.450  -0.662   0.207  0.00  0.00    +0.044 C 
ENDBRANCH  28  29
ENDBRANCH  26  28
ENDBRANCH   3  26
TORSDOF 6
