REMARK  Name = ZINC20181089
REMARK  9 active torsions:
REMARK  status: ('A' for Active; 'I' for Inactive)
REMARK    1  A    between atoms: C_1  and  C_2
REMARK    2  A    between atoms: C_5  and  C_36
REMARK    3  A    between atoms: N_8  and  C_10
REMARK    4  A    between atoms: C_10  and  C_11
REMARK    5  A    between atoms: C_11  and  C_12
REMARK    6  A    between atoms: C_12  and  N_13
REMARK    7  A    between atoms: C_14  and  C_16
REMARK    8  A    between atoms: C_16  and  N_17
REMARK    9  A    between atoms: C_26  and  C_27
REMARK                            x       y       z     vdW  Elec       q    Type
REMARK                         _______ _______ _______ _____ _____    ______ ____
ROOT
ATOM      1  N   UNL     1       2.183   4.125   1.185  0.00  0.00    -0.257 N 
ATOM      2  C   UNL     1       1.034   3.566   0.640  0.00  0.00    +0.051 A 
ATOM      3  C   UNL     1       0.159   4.395  -0.060  0.00  0.00    +0.024 A 
ATOM      4  C   UNL     1      -0.992   3.882  -0.622  0.00  0.00    +0.002 A 
ATOM      5  C   UNL     1      -1.294   2.537  -0.498  0.00  0.00    +0.001 A 
ATOM      6  C   UNL     1      -0.438   1.702   0.193  0.00  0.00    +0.017 A 
ATOM      7  C   UNL     1       0.719   2.212   0.759  0.00  0.00    +0.034 A 
ATOM      8  S   UNL     1       1.813   1.142   1.645  0.00  0.00    -0.082 S 
ATOM      9  C   UNL     1       3.357   1.998   1.471  0.00  0.00    +0.076 C 
ATOM     10  C   UNL     1       4.526   1.338   1.284  0.00  0.00    +0.028 C 
ATOM     11  C   UNL     1       3.296   3.475   1.547  0.00  0.00    +0.258 C 
ATOM     12  O   UNL     1       4.263   4.100   1.938  0.00  0.00    -0.269 OA
ENDROOT
BRANCH  10  13
ATOM     13  C   UNL     1       5.750   2.087   0.963  0.00  0.00    -0.022 A 
ATOM     14  C   UNL     1       5.683   3.237   0.170  0.00  0.00    +0.008 A 
ATOM     15  C   UNL     1       6.835   3.935  -0.127  0.00  0.00    +0.002 A 
ATOM     16  C   UNL     1       8.056   3.500   0.359  0.00  0.00    +0.020 A 
ATOM     17  C   UNL     1       8.131   2.362   1.145  0.00  0.00    +0.042 A 
ATOM     18  C   UNL     1       6.987   1.656   1.455  0.00  0.00    +0.028 A 
ATOM     19 CL   UNL     1       9.669   1.827   1.748  0.00  0.00    -0.084 Cl
ENDBRANCH  10  13
BRANCH   1  20
ATOM     20  C   UNL     1       2.176   5.576   1.389  0.00  0.00    +0.209 C 
BRANCH  20  22
ATOM     21  N   UNL     1       2.849   7.601   0.140  0.00  0.00    -0.314 N 
ATOM     22  C   UNL     1       2.756   6.257   0.177  0.00  0.00    +0.231 C 
ATOM     23  O   UNL     1       3.138   5.596  -0.765  0.00  0.00    -0.274 OA
ATOM     24  H   UNL     1       2.503   8.201   0.994  0.00  0.00    +0.149 HD
BRANCH  21  25
ATOM     25  C   UNL     1       3.413   8.264  -1.039  0.00  0.00    +0.102 C 
BRANCH  25  26
ATOM     26  C   UNL     1       3.405   9.778  -0.826  0.00  0.00    +0.000 C 
BRANCH  26  27
ATOM     27  C   UNL     1       3.994  10.470  -2.057  0.00  0.00    -0.077 C 
BRANCH  27  33
ATOM     28  C   UNL     1       1.211  14.467  -1.367  0.00  0.00    +0.005 C 
ATOM     29  C   UNL     1       2.641  13.927  -1.421  0.00  0.00    -0.031 C 
ATOM     30  C   UNL     1       3.435  14.688  -2.486  0.00  0.00    +0.003 C 
ATOM     31  C   UNL     1       4.847  14.101  -2.576  0.00  0.00    -0.031 C 
ATOM     32  C   UNL     1       4.754  12.608  -2.900  0.00  0.00    -0.076 C 
ATOM     33  N   UNL     1       3.986  11.925  -1.852  0.00  0.00    +0.380 N 
ATOM     34  C   UNL     1       2.612  12.439  -1.779  0.00  0.00    -0.076 C 
ATOM     35  C   UNL     1       5.564  14.289  -1.237  0.00  0.00    +0.005 C 
ATOM     36  H   UNL     1       4.474  12.135  -0.888  0.00  0.00    -0.082 HD
ENDBRANCH  27  33
ENDBRANCH  26  27
ENDBRANCH  25  26
ENDBRANCH  21  25
ENDBRANCH  20  22
ENDBRANCH   1  20
TORSDOF 7
