REMARK  Name = ZINC09613227
REMARK  10 active torsions:
REMARK  status: ('A' for Active; 'I' for Inactive)
REMARK    1  A    between atoms: C_1  and  C_2
REMARK    2  A    between atoms: C_2  and  O_3
REMARK    3  A    between atoms: O_3  and  C_4
REMARK    4  A    between atoms: C_7  and  N_10
REMARK    5  A    between atoms: C_19  and  S_20
REMARK    6  A    between atoms: S_20  and  C_21
REMARK    7  A    between atoms: C_21  and  C_22
REMARK    8  A    between atoms: C_22  and  C_24
REMARK    9  A    between atoms: C_27  and  O_31
REMARK   10  A    between atoms: C_28  and  O_30
REMARK                            x       y       z     vdW  Elec       q    Type
REMARK                         _______ _______ _______ _____ _____    ______ ____
ROOT
ATOM      1  N   UNL     1       0.804   1.715  -4.643  0.00  0.00    -0.255 N 
ATOM      2  C   UNL     1       0.865   2.171  -3.378  0.00  0.00    +0.268 A 
ATOM      3  O   UNL     1       1.942   2.327  -2.827  0.00  0.00    -0.267 OA
ATOM      4  C   UNL     1      -0.352   2.471  -2.690  0.00  0.00    +0.076 A 
ATOM      5  C   UNL     1      -0.516   2.977  -1.317  0.00  0.00    -0.023 A 
ATOM      6  C   UNL     1      -1.772   3.186  -0.893  0.00  0.00    -0.004 A 
ATOM      7  S   UNL     1      -2.805   2.728  -2.266  0.00  0.00    -0.073 S 
ATOM      8  C   UNL     1      -1.535   2.258  -3.412  0.00  0.00    +0.117 A 
ATOM      9  N   UNL     1      -1.530   1.804  -4.660  0.00  0.00    -0.215 NA
ATOM     10  C   UNL     1      -0.395   1.535  -5.274  0.00  0.00    +0.178 A 
ATOM     11  C   UNL     1      -1.817   3.706   0.519  0.00  0.00    +0.043 C 
ATOM     12  C   UNL     1      -0.381   4.213   0.791  0.00  0.00    +0.010 C 
ATOM     13  C   UNL     1       0.443   3.348  -0.182  0.00  0.00    +0.037 C 
ENDROOT
BRANCH   1  17
ATOM     14  C   UNL     1       4.340   0.832  -6.672  0.00  0.00    +0.121 A 
ATOM     15  C   UNL     1       3.800   2.108  -6.743  0.00  0.00    +0.047 A 
ATOM     16  C   UNL     1       2.629   2.401  -6.072  0.00  0.00    +0.030 A 
ATOM     17  C   UNL     1       1.993   1.418  -5.325  0.00  0.00    +0.052 A 
ATOM     18  C   UNL     1       2.536   0.142  -5.251  0.00  0.00    +0.030 A 
ATOM     19  C   UNL     1       3.704  -0.151  -5.927  0.00  0.00    +0.047 A 
BRANCH  14  20
ATOM     20  O   UNL     1       5.493   0.544  -7.333  0.00  0.00    -0.492 OA
BRANCH  20  22
ATOM     21  C   UNL     1       7.286  -0.922  -8.021  0.00  0.00    +0.048 C 
ATOM     22  C   UNL     1       5.992  -0.789  -7.216  0.00  0.00    +0.225 C 
ENDBRANCH  20  22
ENDBRANCH  14  20
ENDBRANCH   1  17
BRANCH  10  23
ATOM     23  S   UNL     1      -0.423   0.934  -6.930  0.00  0.00    -0.079 S 
BRANCH  23  24
ATOM     24  C   UNL     1      -2.209   0.901  -7.222  0.00  0.00    +0.157 C 
BRANCH  24  25
ATOM     25  C   UNL     1      -2.481   0.405  -8.618  0.00  0.00    +0.173 C 
ATOM     26  O   UNL     1      -1.558   0.102  -9.345  0.00  0.00    -0.291 OA
BRANCH  25  27
ATOM     27  C   UNL     1      -3.863   0.287  -9.100  0.00  0.00    +0.022 A 
ATOM     28  C   UNL     1      -4.931   0.630  -8.261  0.00  0.00    +0.015 A 
ATOM     29  C   UNL     1      -6.225   0.524  -8.717  0.00  0.00    +0.050 A 
ATOM     30  C   UNL     1      -6.477   0.066 -10.004  0.00  0.00    +0.158 A 
ATOM     31  C   UNL     1      -5.420  -0.283 -10.844  0.00  0.00    +0.159 A 
ATOM     32  C   UNL     1      -4.118  -0.174 -10.397  0.00  0.00    +0.060 A 
BRANCH  31  33
ATOM     33  O   UNL     1      -5.671  -0.731 -12.103  0.00  0.00    -0.503 OA
ATOM     34  H   UNL     1      -5.778  -1.690 -12.165  0.00  0.00    +0.292 HD
ENDBRANCH  31  33
BRANCH  30  35
ATOM     35  O   UNL     1      -7.756  -0.041 -10.446  0.00  0.00    -0.503 OA
ATOM     36  H   UNL     1      -8.162  -0.902 -10.272  0.00  0.00    +0.292 HD
ENDBRANCH  30  35
ENDBRANCH  25  27
ENDBRANCH  24  25
ENDBRANCH  23  24
ENDBRANCH  10  23
TORSDOF 9
