REMARK  Name = ZINC13063998
REMARK  18 active torsions:
REMARK  status: ('A' for Active; 'I' for Inactive)
REMARK    1  A    between atoms: C_1  and  C_2
REMARK    2  A    between atoms: C_2  and  C_3
REMARK    3  A    between atoms: C_3  and  C_5
REMARK    4  A    between atoms: C_3  and  N_74
REMARK    5  A    between atoms: N_9  and  C_10
REMARK    6  A    between atoms: C_10  and  C_11
REMARK    7  A    between atoms: C_11  and  O_12
REMARK    8  A    between atoms: O_12  and  C_13
REMARK    9  A    between atoms: C_14  and  C_15
REMARK   10  A    between atoms: C_14  and  N_74
REMARK   11  A    between atoms: C_15  and  C_16
REMARK   12  A    between atoms: C_19  and  O_24
REMARK   13  A    between atoms: C_20  and  O_22
REMARK   14  A    between atoms: O_22  and  C_23
REMARK   15  A    between atoms: O_24  and  C_25
REMARK   16  A    between atoms: C_26  and  C_27
REMARK   17  A    between atoms: C_26  and  N_74
REMARK   18  A    between atoms: C_32  and  C_39
REMARK                            x       y       z     vdW  Elec       q    Type
REMARK                         _______ _______ _______ _____ _____    ______ ____
ROOT
ATOM      1  N   UNL     1      -3.975   4.557  -1.161  0.00  0.00    +0.389 N 
ATOM      2  H   UNL     1      -3.912   5.509  -0.781  0.00  0.00    -0.080 HD
ENDROOT
BRANCH   1   3
ATOM      3  C   UNL     1      -5.186   3.904  -0.619  0.00  0.00    +0.003 C 
BRANCH   3   4
ATOM      4  C   UNL     1      -5.423   2.581  -1.301  0.00  0.00    +0.138 A 
ATOM      5  N   UNL     1      -5.469   2.364  -2.593  0.00  0.00    -0.115 NA
ATOM      6  N   UNL     1      -5.689   1.108  -2.778  0.00  0.00    -0.023 NA
ATOM      7  N   UNL     1      -5.792   0.520  -1.637  0.00  0.00    -0.044 NA
ATOM      8  N   UNL     1      -5.634   1.395  -0.702  0.00  0.00    -0.229 N 
BRANCH   8   9
ATOM      9  C   UNL     1      -5.676   1.143   0.740  0.00  0.00    +0.175 C 
BRANCH   9  10
ATOM     10  C   UNL     1      -7.111   1.310   1.245  0.00  0.00    +0.183 C 
BRANCH  10  11
ATOM     11  O   UNL     1      -7.152   1.064   2.652  0.00  0.00    -0.381 OA
ATOM     12  C   UNL     1      -8.454   1.194   3.227  0.00  0.00    +0.194 C 
ENDBRANCH  10  11
ENDBRANCH   9  10
ENDBRANCH   8   9
ENDBRANCH   3   4
BRANCH   3  14
ATOM     13  C   UNL     1      -6.182   6.134  -0.095  0.00  0.00    +0.002 C 
ATOM     14  C   UNL     1      -6.388   4.821  -0.853  0.00  0.00    -0.011 C 
ENDBRANCH   3  14
ENDBRANCH   1   3
BRANCH   1  15
ATOM     15  C   UNL     1      -2.771   3.799  -0.760  0.00  0.00    -0.073 C 
BRANCH  15  16
ATOM     16  C   UNL     1      -2.588   3.927   0.753  0.00  0.00    +0.017 C 
BRANCH  16  17
ATOM     17  C   UNL     1      -1.350   3.177   1.175  0.00  0.00    -0.045 A 
ATOM     18  C   UNL     1      -1.438   1.842   1.525  0.00  0.00    +0.007 A 
ATOM     19  C   UNL     1      -0.307   1.151   1.917  0.00  0.00    +0.049 A 
ATOM     20  C   UNL     1       0.920   1.794   1.950  0.00  0.00    +0.161 A 
ATOM     21  C   UNL     1       1.010   3.135   1.592  0.00  0.00    +0.162 A 
ATOM     22  C   UNL     1      -0.129   3.824   1.205  0.00  0.00    +0.053 A 
BRANCH  21  23
ATOM     23  O   UNL     1       2.212   3.770   1.623  0.00  0.00    -0.491 OA
ATOM     24  C   UNL     1       2.229   5.147   1.243  0.00  0.00    +0.277 C 
ENDBRANCH  21  23
BRANCH  20  25
ATOM     25  O   UNL     1       2.035   1.114   2.330  0.00  0.00    -0.491 OA
ATOM     26  C   UNL     1       1.868  -0.261   2.682  0.00  0.00    +0.277 C 
ENDBRANCH  20  25
ENDBRANCH  16  17
ENDBRANCH  15  16
ENDBRANCH   1  15
BRANCH   1  27
ATOM     27  C   UNL     1      -4.058   4.632  -2.634  0.00  0.00    -0.037 C 
BRANCH  27  28
ATOM     28  C   UNL     1      -3.088   5.678  -3.120  0.00  0.00    +0.001 A 
ATOM     29  C   UNL     1      -1.854   5.310  -3.544  0.00  0.00    +0.017 A 
ATOM     30  C   UNL     1      -0.936   6.351  -4.010  0.00  0.00    -0.001 A 
ATOM     31  C   UNL     1       0.350   6.033  -4.459  0.00  0.00    +0.010 A 
ATOM     32  C   UNL     1       1.183   7.028  -4.888  0.00  0.00    +0.004 A 
ATOM     33  C   UNL     1       0.765   8.351  -4.881  0.00  0.00    -0.048 A 
ATOM     34  C   UNL     1      -0.498   8.688  -4.442  0.00  0.00    +0.029 A 
ATOM     35  C   UNL     1      -1.363   7.692  -4.001  0.00  0.00    +0.049 A 
ATOM     36  N   UNL     1      -2.632   8.000  -3.558  0.00  0.00    -0.322 N 
ATOM     37  H   UNL     1      -2.925   8.925  -3.552  0.00  0.00    +0.169 HD
ATOM     38  C   UNL     1      -3.470   7.037  -3.137  0.00  0.00    +0.251 A 
ATOM     39  O   UNL     1      -4.586   7.345  -2.756  0.00  0.00    -0.268 OA
ATOM     40  C   UNL     1       1.701   9.432  -5.358  0.00  0.00    +0.044 C 
ENDBRANCH  27  28
ENDBRANCH   1  27
TORSDOF 13
