REMARK  Name = ZINC00930905
REMARK  10 active torsions:
REMARK  status: ('A' for Active; 'I' for Inactive)
REMARK    1  A    between atoms: C_1  and  C_2
REMARK    2  A    between atoms: C_2  and  O_3
REMARK    3  A    between atoms: O_3  and  C_4
REMARK    4  A    between atoms: C_7  and  N_10
REMARK    5  A    between atoms: N_10  and  C_11
REMARK    6  A    between atoms: C_11  and  C_13
REMARK    7  A    between atoms: C_11  and  C_20
REMARK    8  A    between atoms: C_16  and  O_19
REMARK    9  A    between atoms: N_22  and  C_23
REMARK   10  A    between atoms: C_29  and  C_31
REMARK                            x       y       z     vdW  Elec       q    Type
REMARK                         _______ _______ _______ _____ _____    ______ ____
ROOT
ATOM      1  N   UNL     1      -1.130   3.328   0.934  0.00  0.00    -0.252 N 
ATOM      2  C   UNL     1      -0.498   4.401   0.419  0.00  0.00    +0.265 C 
ATOM      3  O   UNL     1      -0.004   4.340  -0.687  0.00  0.00    -0.271 OA
ENDROOT
BRANCH   2   4
ATOM      4  C   UNL     1      -0.406   5.676   1.217  0.00  0.00    +0.296 C 
ATOM      5  C   UNL     1      -1.792   6.327   1.314  0.00  0.00    +0.283 C 
ATOM      6  O   UNL     1      -1.666   7.540   2.064  0.00  0.00    -0.484 OA
ATOM      7  C   UNL     1      -0.631   8.360   1.732  0.00  0.00    +0.162 A 
ATOM      8  C   UNL     1      -0.650   9.682   2.150  0.00  0.00    +0.049 A 
ATOM      9  C   UNL     1       0.395  10.526   1.824  0.00  0.00    +0.004 A 
ATOM     10  C   UNL     1       1.462  10.054   1.081  0.00  0.00    +0.004 A 
ATOM     11  C   UNL     1       1.486   8.738   0.661  0.00  0.00    +0.049 A 
ATOM     12  C   UNL     1       0.440   7.886   0.984  0.00  0.00    +0.163 A 
ATOM     13  O   UNL     1       0.476   6.593   0.561  0.00  0.00    -0.472 OA
ENDBRANCH   2   4
BRANCH   1  17
ATOM     14  C   UNL     1      -3.075   3.621   4.611  0.00  0.00    +0.121 A 
ATOM     15  C   UNL     1      -1.691   3.682   4.553  0.00  0.00    +0.047 A 
ATOM     16  C   UNL     1      -1.046   3.584   3.335  0.00  0.00    +0.027 A 
ATOM     17  C   UNL     1      -1.784   3.426   2.170  0.00  0.00    +0.038 A 
ATOM     18  C   UNL     1      -3.170   3.371   2.228  0.00  0.00    +0.027 A 
ATOM     19  C   UNL     1      -3.813   3.463   3.447  0.00  0.00    +0.047 A 
BRANCH  14  20
ATOM     20  O   UNL     1      -3.710   3.717   5.810  0.00  0.00    -0.492 OA
BRANCH  20  22
ATOM     21  C   UNL     1      -5.668   3.773   7.226  0.00  0.00    +0.048 C 
ATOM     22  C   UNL     1      -5.137   3.647   5.796  0.00  0.00    +0.225 C 
ENDBRANCH  20  22
ENDBRANCH  14  20
ENDBRANCH   1  17
BRANCH   1  23
ATOM     23  C   UNL     1      -1.133   2.058   0.203  0.00  0.00    +0.197 C 
BRANCH  23  24
ATOM     24  C   UNL     1      -2.010   1.066   0.923  0.00  0.00    -0.018 A 
ATOM     25  C   UNL     1      -1.739   0.732   2.237  0.00  0.00    +0.009 A 
ATOM     26  C   UNL     1      -2.538  -0.181   2.897  0.00  0.00    +0.046 A 
ATOM     27  C   UNL     1      -3.612  -0.764   2.241  0.00  0.00    +0.117 A 
ATOM     28  C   UNL     1      -3.882  -0.428   0.922  0.00  0.00    +0.046 A 
ATOM     29  C   UNL     1      -3.080   0.487   0.266  0.00  0.00    +0.009 A 
BRANCH  27  30
ATOM     30  O   UNL     1      -4.399  -1.663   2.888  0.00  0.00    -0.507 OA
ATOM     31  H   UNL     1      -4.104  -2.579   2.801  0.00  0.00    +0.292 HD
ENDBRANCH  27  30
ENDBRANCH  23  24
BRANCH  23  32
ATOM     32  C   UNL     1       0.272   1.521   0.123  0.00  0.00    +0.239 C 
ATOM     33  O   UNL     1       1.187   2.138   0.627  0.00  0.00    -0.273 OA
ATOM     34  N   UNL     1       0.513   0.355  -0.509  0.00  0.00    -0.311 N 
ATOM     35  H   UNL     1      -0.218  -0.138  -0.912  0.00  0.00    +0.149 HD
BRANCH  34  36
ATOM     36  C   UNL     1       1.880  -0.167  -0.587  0.00  0.00    +0.073 C 
ATOM     37  C   UNL     1       2.598   0.461  -1.783  0.00  0.00    +0.022 C 
ATOM     38  C   UNL     1       4.025  -0.084  -1.865  0.00  0.00    +0.002 C 
ATOM     39  C   UNL     1       3.982  -1.604  -2.037  0.00  0.00    +0.000 C 
ATOM     40  C   UNL     1       3.263  -2.232  -0.841  0.00  0.00    +0.002 C 
ATOM     41  C   UNL     1       1.836  -1.687  -0.759  0.00  0.00    +0.022 C 
ENDBRANCH  34  36
ENDBRANCH  23  32
ENDBRANCH   1  23
TORSDOF 9
