REMARK  Name = ZINC23486446
REMARK  6 active torsions:
REMARK  status: ('A' for Active; 'I' for Inactive)
REMARK    1  A    between atoms: C_1  and  N_2
REMARK    2  A    between atoms: N_2  and  C_3
REMARK    3  A    between atoms: N_2  and  C_4
REMARK    4  A    between atoms: C_7  and  C_10
REMARK    5  A    between atoms: C_14  and  C_26
REMARK    6  A    between atoms: C_30  and  N_32
REMARK                            x       y       z     vdW  Elec       q    Type
REMARK                         _______ _______ _______ _____ _____    ______ ____
ROOT
ATOM      1  C   UNL     1      -0.006  -2.813  -4.924  0.00  0.00    +0.065 C 
ATOM      2  C   UNL     1       1.226  -2.417  -5.749  0.00  0.00    +0.094 C 
ATOM      3  N   UNL     1       1.083  -2.927  -7.120  0.00  0.00    -0.304 NA
ATOM      4  C   UNL     1       0.054  -2.183  -7.864  0.00  0.00    +0.132 C 
ATOM      5  C   UNL     1      -1.212  -2.162  -7.040  0.00  0.00    +0.043 A 
ATOM      6  C   UNL     1      -1.236  -2.448  -5.717  0.00  0.00    -0.009 A 
ATOM      7  C   UNL     1      -2.608  -2.330  -5.279  0.00  0.00    +0.004 A 
ATOM      8  C   UNL     1      -3.229  -2.505  -4.038  0.00  0.00    +0.010 A 
ATOM      9  C   UNL     1      -4.586  -2.305  -3.988  0.00  0.00    +0.001 A 
ATOM     10  C   UNL     1      -5.319  -1.946  -5.107  0.00  0.00    +0.002 A 
ATOM     11  C   UNL     1      -4.732  -1.766  -6.347  0.00  0.00    +0.026 A 
ATOM     12  C   UNL     1      -3.355  -1.961  -6.428  0.00  0.00    +0.047 A 
ATOM     13  N   UNL     1      -2.476  -1.867  -7.472  0.00  0.00    -0.356 N 
ATOM     14  H   UNL     1      -2.713  -1.628  -8.382  0.00  0.00    +0.166 HD
ATOM     15  H   UNL     1       1.966  -2.908  -7.607  0.00  0.00    +0.123 HD
ENDROOT
BRANCH   4  16
ATOM     16  C   UNL     1      -0.207  -2.863  -9.183  0.00  0.00    -0.022 A 
ATOM     17  C   UNL     1      -0.257  -4.243  -9.252  0.00  0.00    +0.007 A 
ATOM     18  C   UNL     1      -0.496  -4.867 -10.461  0.00  0.00    +0.022 A 
ATOM     19  C   UNL     1      -0.687  -4.110 -11.604  0.00  0.00    +0.071 A 
ATOM     20  C   UNL     1      -0.638  -2.729 -11.535  0.00  0.00    +0.145 A 
ATOM     21  C   UNL     1      -0.403  -2.106 -10.323  0.00  0.00    +0.039 A 
ATOM     22 CL   UNL     1      -0.988  -4.893 -13.124  0.00  0.00    -0.081 Cl
BRANCH  20  23
ATOM     23  N   UNL     1      -0.842  -1.919 -12.757  0.00  0.00    +0.058 N 
ATOM     24  O   UNL     1      -0.798  -0.713 -12.696  0.00  0.00    -0.126 OA
ATOM     25  O   UNL     1      -1.052  -2.464 -13.815  0.00  0.00    -0.126 OA
ENDBRANCH  20  23
ENDBRANCH   4  16
BRANCH   1  29
ATOM     26  C   UNL     1       0.000  -0.696  -1.211  0.00  0.00    +0.029 A 
ATOM     27  C   UNL     1       0.013  -2.085  -1.221  0.00  0.00    +0.023 A 
ATOM     28  C   UNL     1       0.010  -2.766  -2.422  0.00  0.00    +0.006 A 
ATOM     29  C   UNL     1      -0.005  -2.066  -3.615  0.00  0.00    -0.039 A 
ATOM     30  C   UNL     1      -0.018  -0.684  -3.609  0.00  0.00    +0.006 A 
ATOM     31  C   UNL     1      -0.021   0.004  -2.411  0.00  0.00    +0.023 A 
BRANCH  26  33
ATOM     32  C   UNL     1      -0.018   1.461   0.010  0.00  0.00    +0.129 C 
ATOM     33  N   UNL     1       0.002  -0.004   0.002  0.00  0.00    -0.336 N 
ATOM     34  C   UNL     1       0.024  -0.743   1.267  0.00  0.00    +0.129 C 
ENDBRANCH  26  33
ENDBRANCH   1  29
TORSDOF 4
