REMARK  Name = ZINC22840488
REMARK  8 active torsions:
REMARK  status: ('A' for Active; 'I' for Inactive)
REMARK    1  A    between atoms: C_1  and  O_2
REMARK    2  A    between atoms: O_2  and  C_3
REMARK    3  A    between atoms: C_5  and  C_13
REMARK    4  A    between atoms: C_7  and  O_11
REMARK    5  A    between atoms: C_8  and  O_9
REMARK    6  A    between atoms: O_9  and  C_10
REMARK    7  A    between atoms: O_11  and  C_12
REMARK    8  A    between atoms: C_17  and  C_28
REMARK                            x       y       z     vdW  Elec       q    Type
REMARK                         _______ _______ _______ _____ _____    ______ ____
ROOT
ATOM      1  C   UNL     1       2.462   0.340   4.203  0.00  0.00    +0.032 C 
ATOM      2  C   UNL     1       1.830  -0.023   5.548  0.00  0.00    +0.060 C 
ATOM      3  C   UNL     1       2.485   0.778   6.650  0.00  0.00    +0.020 C 
ATOM      4  C   UNL     1       3.781   1.143   6.564  0.00  0.00    +0.039 C 
ATOM      5  C   UNL     1       4.471   1.931   7.654  0.00  0.00    +0.157 C 
ATOM      6  N   UNL     1       3.484   2.503   8.565  0.00  0.00    -0.300 N 
ATOM      7  C   UNL     1       3.623   3.477   9.511  0.00  0.00    +0.071 A 
ATOM      8  C   UNL     1       4.705   4.246   9.924  0.00  0.00    +0.028 A 
ATOM      9  C   UNL     1       4.478   5.162  10.939  0.00  0.00    +0.002 A 
ATOM     10  C   UNL     1       3.233   5.315  11.524  0.00  0.00    +0.002 A 
ATOM     11  C   UNL     1       2.141   4.564  11.131  0.00  0.00    +0.030 A 
ATOM     12  C   UNL     1       2.346   3.632  10.107  0.00  0.00    +0.091 A 
ATOM     13  N   UNL     1       1.512   2.763   9.501  0.00  0.00    -0.214 NA
ATOM     14  C   UNL     1       2.168   2.097   8.591  0.00  0.00    +0.202 A 
ATOM     15  N   UNL     1       1.705   1.118   7.729  0.00  0.00    -0.288 N 
ATOM     16  C   UNL     1       4.553   0.803   5.436  0.00  0.00    +0.164 C 
ATOM     17  O   UNL     1       5.722   1.132   5.396  0.00  0.00    -0.292 OA
ATOM     18  C   UNL     1       3.963   0.043   4.281  0.00  0.00    +0.088 C 
ATOM     19  H   UNL     1       0.852   0.682   7.883  0.00  0.00    +0.155 HD
ENDROOT
BRANCH   5  20
ATOM     20  C   UNL     1       5.390   1.017   8.424  0.00  0.00    -0.002 A 
ATOM     21  C   UNL     1       4.878  -0.090   9.075  0.00  0.00    +0.007 A 
ATOM     22  C   UNL     1       5.721  -0.927   9.781  0.00  0.00    +0.000 A 
ATOM     23  C   UNL     1       7.076  -0.659   9.837  0.00  0.00    +0.001 A 
ATOM     24  C   UNL     1       7.589   0.447   9.187  0.00  0.00    +0.020 A 
ATOM     25  C   UNL     1       6.747   1.283   8.475  0.00  0.00    +0.046 A 
ATOM     26 CL   UNL     1       7.391   2.670   7.652  0.00  0.00    -0.083 Cl
ENDBRANCH   5  20
BRANCH   1  29
ATOM     27  C   UNL     1       0.626  -0.619   1.042  0.00  0.00    +0.165 A 
ATOM     28  C   UNL     1       1.202   0.138   2.051  0.00  0.00    +0.053 A 
ATOM     29  C   UNL     1       1.837  -0.486   3.109  0.00  0.00    -0.036 A 
ATOM     30  C   UNL     1       1.900  -1.866   3.166  0.00  0.00    +0.053 A 
ATOM     31  C   UNL     1       1.327  -2.630   2.160  0.00  0.00    +0.165 A 
ATOM     32  C   UNL     1       0.683  -2.006   1.098  0.00  0.00    +0.204 A 
BRANCH  27  34
ATOM     33  C   UNL     1      -0.017   1.425   0.010  0.00  0.00    +0.277 C 
ATOM     34  O   UNL     1       0.002  -0.004   0.002  0.00  0.00    -0.491 OA
ENDBRANCH  27  34
BRANCH  32  35
ATOM     35  O   UNL     1       0.114  -2.753   0.113  0.00  0.00    -0.488 OA
ATOM     36  C   UNL     1       0.939  -3.090  -1.004  0.00  0.00    +0.277 C 
ENDBRANCH  32  35
BRANCH  31  37
ATOM     37  O   UNL     1       1.390  -3.987   2.217  0.00  0.00    -0.491 OA
ATOM     38  C   UNL     1       2.062  -4.559   3.340  0.00  0.00    +0.277 C 
ENDBRANCH  31  37
ENDBRANCH   1  29
TORSDOF 5
