REMARK  Name = ZINC38288348
REMARK  11 active torsions:
REMARK  status: ('A' for Active; 'I' for Inactive)
REMARK    1  A    between atoms: C_1  and  C_2
REMARK    2  A    between atoms: C_2  and  C_3
REMARK    3  A    between atoms: C_2  and  C_4
REMARK    4  A    between atoms: C_7  and  N_10
REMARK    5  A    between atoms: C_11  and  C_13
REMARK    6  A    between atoms: C_16  and  C_37
REMARK    7  A    between atoms: C_17  and  C_18
REMARK    8  A    between atoms: C_17  and  C_19
REMARK    9  A    between atoms: N_21  and  O_22
REMARK   10  A    between atoms: O_22  and  C_23
REMARK   11  A    between atoms: C_23  and  C_25
REMARK                            x       y       z     vdW  Elec       q    Type
REMARK                         _______ _______ _______ _____ _____    ______ ____
ROOT
ATOM      1  C   UNL     1      -7.236  -3.087  -1.052  0.00  0.00    +0.058 C 
ATOM      2  C   UNL     1      -7.697  -4.053   0.083  0.00  0.00    +0.018 C 
ATOM      3  C   UNL     1      -8.996  -4.692  -0.459  0.00  0.00    +0.014 C 
ATOM      4  C   UNL     1      -9.187  -4.058  -1.870  0.00  0.00    +0.015 C 
ATOM      5  C   UNL     1      -7.693  -3.892  -2.320  0.00  0.00    -0.010 C 
ATOM      6  C   UNL     1      -7.547  -3.074  -3.604  0.00  0.00    +0.013 C 
ATOM      7  C   UNL     1      -6.989  -5.247  -2.426  0.00  0.00    +0.013 C 
ATOM      8  C   UNL     1      -9.568  -2.597  -1.589  0.00  0.00    +0.066 C 
ATOM      9  N   UNL     1     -10.706  -2.043  -1.771  0.00  0.00    -0.083 NA
ATOM     10  C   UNL     1      -8.289  -1.937  -1.059  0.00  0.00    +0.071 C 
ATOM     11  C   UNL     1     -10.099  -4.826  -2.829  0.00  0.00    +0.018 C 
ENDROOT
BRANCH   1  13
ATOM     12  N   UNL     1      -5.320  -1.968   0.042  0.00  0.00    -0.285 N 
ATOM     13  C   UNL     1      -5.790  -2.663  -1.013  0.00  0.00    +0.224 C 
ATOM     14  O   UNL     1      -5.050  -2.946  -1.931  0.00  0.00    -0.275 OA
ATOM     15  H   UNL     1      -5.894  -1.799   0.806  0.00  0.00    +0.155 HD
BRANCH  12  19
ATOM     16  C   UNL     1      -1.405  -0.544   0.021  0.00  0.00    -0.045 A 
ATOM     17  C   UNL     1      -1.701  -1.757  -0.574  0.00  0.00    +0.006 A 
ATOM     18  C   UNL     1      -2.998  -2.232  -0.568  0.00  0.00    +0.023 A 
ATOM     19  C   UNL     1      -4.005  -1.490   0.035  0.00  0.00    +0.033 A 
ATOM     20  C   UNL     1      -3.704  -0.272   0.632  0.00  0.00    +0.023 A 
ATOM     21  C   UNL     1      -2.404   0.195   0.627  0.00  0.00    +0.006 A 
BRANCH  16  23
ATOM     22  C   UNL     1       0.922  -1.030   0.727  0.00  0.00    +0.012 C 
ATOM     23  C   UNL     1       0.011  -0.029   0.013  0.00  0.00    +0.013 C 
ATOM     24  C   UNL     1       0.482   0.147  -1.432  0.00  0.00    +0.012 C 
ENDBRANCH  16  23
ENDBRANCH  12  19
ENDBRANCH   1  13
BRANCH   9  25
ATOM     25  O   UNL     1     -11.787  -2.798  -2.287  0.00  0.00    -0.312 OA
BRANCH  25  26
ATOM     26  C   UNL     1     -12.928  -2.096  -2.430  0.00  0.00    +0.373 C 
ATOM     27  O   UNL     1     -12.960  -0.920  -2.124  0.00  0.00    -0.242 OA
BRANCH  26  28
ATOM     28  C   UNL     1     -14.135  -2.752  -2.956  0.00  0.00    +0.146 A 
ATOM     29  C   UNL     1     -15.324  -2.053  -3.120  0.00  0.00    +0.033 A 
ATOM     30  C   UNL     1     -16.454  -2.761  -3.604  0.00  0.00    +0.018 A 
ATOM     31  C   UNL     1     -17.618  -2.075  -3.978  0.00  0.00    +0.011 A 
ATOM     32  C   UNL     1     -18.682  -2.767  -4.481  0.00  0.00    +0.001 A 
ATOM     33  C   UNL     1     -18.625  -4.148  -4.618  0.00  0.00    +0.004 A 
ATOM     34  C   UNL     1     -17.497  -4.845  -4.238  0.00  0.00    +0.047 A 
ATOM     35  C   UNL     1     -16.405  -4.163  -3.717  0.00  0.00    +0.139 A 
ATOM     36  O   UNL     1     -15.309  -4.841  -3.301  0.00  0.00    -0.422 OA
ATOM     37  C   UNL     1     -14.129  -4.176  -3.337  0.00  0.00    +0.352 A 
ATOM     38  O   UNL     1     -13.099  -4.735  -3.668  0.00  0.00    -0.244 OA
ENDBRANCH  26  28
ENDBRANCH  25  26
ENDBRANCH   9  25
TORSDOF 6
