REMARK  Name = ZINC09043210
REMARK  12 active torsions:
REMARK  status: ('A' for Active; 'I' for Inactive)
REMARK    1  A    between atoms: C_1  and  C_2
REMARK    2  A    between atoms: C_2  and  N_61
REMARK    3  A    between atoms: C_3  and  C_4
REMARK    4  A    between atoms: C_3  and  N_61
REMARK    5  A    between atoms: C_5  and  C_6
REMARK    6  A    between atoms: C_5  and  N_61
REMARK    7  A    between atoms: C_6  and  N_7
REMARK    8  A    between atoms: C_8  and  C_28
REMARK    9  A    between atoms: C_11  and  C_12
REMARK   10  A    between atoms: C_11  and  O_23
REMARK   11  A    between atoms: C_18  and  O_21
REMARK   12  A    between atoms: O_21  and  C_22
REMARK                            x       y       z     vdW  Elec       q    Type
REMARK                         _______ _______ _______ _____ _____    ______ ____
ROOT
ATOM      1  N   UNL     1      -0.493   0.942   1.079  0.00  0.00    -0.285 N 
ATOM      2  C   UNL     1       0.410   0.369   0.076  0.00  0.00    +0.144 C 
ATOM      3  C   UNL     1      -0.280   0.512  -1.260  0.00  0.00    +0.074 C 
ATOM      4  C   UNL     1       0.203   0.107  -2.494  0.00  0.00    +0.168 C 
ATOM      5  C   UNL     1      -1.509   1.135  -1.000  0.00  0.00    +0.249 C 
ATOM      6  O   UNL     1      -2.354   1.422  -1.829  0.00  0.00    -0.282 OA
ATOM      7  C   UNL     1      -1.602   1.386   0.463  0.00  0.00    +0.288 C 
ATOM      8  O   UNL     1      -2.543   1.914   1.019  0.00  0.00    -0.266 OA
ENDROOT
BRANCH   4   9
ATOM      9  C   UNL     1      -0.544   0.420  -3.711  0.00  0.00    +0.171 A 
ATOM     10  C   UNL     1      -0.846  -0.467  -4.701  0.00  0.00    +0.061 A 
ATOM     11  C   UNL     1      -1.576   0.247  -5.684  0.00  0.00    +0.025 A 
ATOM     12  C   UNL     1      -2.152  -0.109  -6.910  0.00  0.00    +0.012 A 
ATOM     13  C   UNL     1      -2.804   0.833  -7.654  0.00  0.00    +0.004 A 
ATOM     14  C   UNL     1      -2.902   2.143  -7.205  0.00  0.00    +0.049 A 
ATOM     15  C   UNL     1      -2.342   2.517  -5.997  0.00  0.00    +0.163 A 
ATOM     16  C   UNL     1      -1.671   1.572  -5.222  0.00  0.00    +0.177 A 
ATOM     17  O   UNL     1      -1.038   1.636  -4.033  0.00  0.00    -0.448 OA
BRANCH  15  18
ATOM     18  O   UNL     1      -2.445   3.803  -5.567  0.00  0.00    -0.491 OA
ATOM     19  C   UNL     1      -3.147   4.716  -6.413  0.00  0.00    +0.277 C 
ENDBRANCH  15  18
ENDBRANCH   4   9
BRANCH   2  20
ATOM     20  C   UNL     1       0.658  -1.086   0.377  0.00  0.00    -0.022 A 
ATOM     21  C   UNL     1      -0.376  -1.883   0.833  0.00  0.00    +0.007 A 
ATOM     22  C   UNL     1      -0.150  -3.220   1.104  0.00  0.00    +0.020 A 
ATOM     23  C   UNL     1       1.112  -3.757   0.929  0.00  0.00    +0.041 A 
ATOM     24  C   UNL     1       2.147  -2.958   0.478  0.00  0.00    +0.020 A 
ATOM     25  C   UNL     1       1.920  -1.623   0.202  0.00  0.00    +0.007 A 
ATOM     26 CL   UNL     1       1.397  -5.435   1.274  0.00  0.00    -0.084 Cl
ENDBRANCH   2  20
BRANCH   4  27
ATOM     27  O   UNL     1       1.366  -0.578  -2.572  0.00  0.00    -0.503 OA
ATOM     28  H   UNL     1       1.565  -0.789  -3.529  0.00  0.00    +0.292 HD
ENDBRANCH   4  27
BRANCH   1  29
ATOM     29  C   UNL     1      -0.230   1.020   2.518  0.00  0.00    +0.090 C 
BRANCH  29  30
ATOM     30  C   UNL     1       0.479   2.338   2.836  0.00  0.00    -0.060 C 
BRANCH  30  31
ATOM     31  N   UNL     1       0.757   2.391   4.287  0.00  0.00    +0.380 N 
ATOM     32  H   UNL     1       1.238   1.528   4.566  0.00  0.00    -0.082 HD
BRANCH  31  34
ATOM     33  C   UNL     1       3.062   3.198   4.194  0.00  0.00    -0.017 C 
ATOM     34  C   UNL     1       1.627   3.546   4.593  0.00  0.00    -0.082 C 
ENDBRANCH  31  34
BRANCH  31  35
ATOM     35  C   UNL     1      -0.510   2.500   5.040  0.00  0.00    -0.082 C 
ATOM     36  C   UNL     1      -0.238   2.172   6.510  0.00  0.00    -0.017 C 
ENDBRANCH  31  35
ENDBRANCH  30  31
ENDBRANCH  29  30
ENDBRANCH   1  29
TORSDOF 9
