REMARK  Name = ZINC35967463
REMARK  9 active torsions:
REMARK  status: ('A' for Active; 'I' for Inactive)
REMARK    1  A    between atoms: C_1  and  C_2
REMARK    2  A    between atoms: C_2  and  N_3
REMARK    3  A    between atoms: C_6  and  C_11
REMARK    4  A    between atoms: C_14  and  C_18
REMARK    5  A    between atoms: C_16  and  C_17
REMARK    6  A    between atoms: N_21  and  C_23
REMARK    7  A    between atoms: C_23  and  C_24
REMARK    8  A    between atoms: C_24  and  C_25
REMARK    9  A    between atoms: N_27  and  C_28
REMARK                            x       y       z     vdW  Elec       q    Type
REMARK                         _______ _______ _______ _____ _____    ______ ____
ROOT
ATOM      1  N   UNL     1      -0.680  -0.565  -0.147  0.00  0.00    -0.257 N 
ATOM      2  C   UNL     1      -1.232  -0.453   1.097  0.00  0.00    +0.042 C 
ATOM      3  C   UNL     1      -2.544  -0.684   1.304  0.00  0.00    +0.058 C 
ATOM      4  C   UNL     1      -3.388  -1.073   0.107  0.00  0.00    +0.142 C 
ATOM      5  N   UNL     1      -2.699  -1.167  -1.192  0.00  0.00    -0.288 N 
ATOM      6  C   UNL     1      -1.379  -0.900  -1.240  0.00  0.00    +0.307 C 
ATOM      7  O   UNL     1      -0.803  -0.971  -2.308  0.00  0.00    -0.252 OA
ATOM      8  C   UNL     1      -2.865  -0.504   2.665  0.00  0.00    +0.247 C 
ATOM      9  O   UNL     1      -3.980  -0.648   3.134  0.00  0.00    -0.270 OA
ATOM     10  N   UNL     1      -1.780  -0.153   3.378  0.00  0.00    -0.292 N 
ATOM     11  C   UNL     1      -0.646  -0.089   2.444  0.00  0.00    +0.159 C 
ATOM     12  H   UNL     1      -3.186  -1.412  -1.994  0.00  0.00    +0.151 HD
ENDROOT
BRANCH   4  13
ATOM     13  C   UNL     1      -4.016  -2.412   0.397  0.00  0.00    -0.020 A 
ATOM     14  C   UNL     1      -3.506  -3.211   1.403  0.00  0.00    +0.006 A 
ATOM     15  C   UNL     1      -4.082  -4.439   1.669  0.00  0.00    +0.004 A 
ATOM     16  C   UNL     1      -5.169  -4.868   0.930  0.00  0.00    -0.050 A 
ATOM     17  C   UNL     1      -5.679  -4.068  -0.075  0.00  0.00    +0.007 A 
ATOM     18  C   UNL     1      -5.106  -2.838  -0.339  0.00  0.00    -0.045 A 
ATOM     19  C   UNL     1      -5.665  -1.964  -1.431  0.00  0.00    +0.044 C 
ATOM     20  C   UNL     1      -5.797  -6.207   1.219  0.00  0.00    +0.044 C 
ENDBRANCH   4  13
BRANCH   1  22
ATOM     21  C   UNL     1       0.966   1.188  -0.594  0.00  0.00    +0.025 C 
ATOM     22  C   UNL     1       0.752  -0.298  -0.297  0.00  0.00    +0.111 C 
ENDBRANCH   1  22
BRANCH  10  23
ATOM     23  C   UNL     1      -1.736   0.117   4.817  0.00  0.00    +0.117 C 
BRANCH  23  24
ATOM     24  C   UNL     1      -1.435  -1.181   5.570  0.00  0.00    +0.115 C 
BRANCH  24  25
ATOM     25  C   UNL     1      -1.390  -0.904   7.051  0.00  0.00    +0.219 C 
ATOM     26  O   UNL     1      -1.579   0.221   7.463  0.00  0.00    -0.275 OA
ATOM     27  N   UNL     1      -1.139  -1.906   7.917  0.00  0.00    -0.285 N 
ATOM     28  H   UNL     1      -0.914  -2.789   7.584  0.00  0.00    +0.155 HD
BRANCH  27  29
ATOM     29  C   UNL     1      -1.202  -1.672   9.296  0.00  0.00    +0.034 A 
ATOM     30  C   UNL     1      -0.346  -2.346  10.156  0.00  0.00    +0.026 A 
ATOM     31  C   UNL     1      -0.410  -2.114  11.516  0.00  0.00    +0.040 A 
ATOM     32  C   UNL     1      -1.329  -1.210  12.022  0.00  0.00    +0.124 A 
ATOM     33  C   UNL     1      -2.183  -0.536  11.166  0.00  0.00    +0.040 A 
ATOM     34  C   UNL     1      -2.118  -0.760   9.805  0.00  0.00    +0.026 A 
ATOM     35  F   UNL     1      -1.391  -0.985  13.352  0.00  0.00    -0.205 F 
ENDBRANCH  27  29
ENDBRANCH  24  25
ENDBRANCH  23  24
ENDBRANCH  10  23
TORSDOF 6
