REMARK  Name = ZINC24833337
REMARK  8 active torsions:
REMARK  status: ('A' for Active; 'I' for Inactive)
REMARK    1  A    between atoms: C_1  and  C_2
REMARK    2  A    between atoms: C_9  and  C_11
REMARK    3  A    between atoms: N_13  and  N_14
REMARK    4  A    between atoms: C_20  and  C_23
REMARK    5  A    between atoms: N_25  and  C_26
REMARK    6  A    between atoms: C_26  and  C_27
REMARK    7  A    between atoms: C_27  and  C_28
REMARK    8  A    between atoms: C_27  and  C_29
REMARK                            x       y       z     vdW  Elec       q    Type
REMARK                         _______ _______ _______ _____ _____    ______ ____
ROOT
ATOM      1  N   UNL     1      -0.306   2.760   9.507  0.00  0.00    -0.218 N 
ATOM      2  C   UNL     1      -0.137   2.365   8.229  0.00  0.00    +0.319 C 
ATOM      3  O   UNL     1      -1.007   2.579   7.407  0.00  0.00    -0.251 OA
ATOM      4  N   UNL     1       0.996   1.735   7.863  0.00  0.00    -0.284 N 
ATOM      5  C   UNL     1       1.243   1.396   6.455  0.00  0.00    +0.110 C 
ATOM      6  C   UNL     1       1.558  -0.095   6.349  0.00  0.00    +0.032 C 
ATOM      7  C   UNL     1       2.715  -0.438   7.290  0.00  0.00    +0.078 C 
ATOM      8  C   UNL     1       2.309  -0.129   8.733  0.00  0.00    +0.032 C 
ATOM      9  C   UNL     1       2.006   1.367   8.865  0.00  0.00    +0.110 C 
ATOM     10  H   UNL     1       0.513   2.644  10.231  0.00  0.00    +0.174 HD
ENDROOT
BRANCH   1  13
ATOM     11  C   UNL     1      -1.731   3.619  11.210  0.00  0.00    +0.267 C 
ATOM     12  O   UNL     1      -0.856   3.406  12.029  0.00  0.00    -0.268 OA
ATOM     13  N   UNL     1      -1.526   3.318   9.912  0.00  0.00    -0.229 N 
ATOM     14  H   UNL     1      -2.316   3.510   9.171  0.00  0.00    +0.173 HD
BRANCH  11  22
ATOM     15  C   UNL     1      -7.324   6.269  15.577  0.00  0.00    +0.008 C 
ATOM     16  C   UNL     1      -6.765   5.654  14.293  0.00  0.00    -0.009 C 
ATOM     17  C   UNL     1      -7.158   6.527  13.098  0.00  0.00    +0.009 C 
ATOM     18  C   UNL     1      -6.831   5.768  11.803  0.00  0.00    +0.043 C 
ATOM     19  C   UNL     1      -5.439   5.226  11.911  0.00  0.00    -0.006 A 
ATOM     20  C   UNL     1      -4.685   5.114  13.045  0.00  0.00    -0.036 A 
ATOM     21  C   UNL     1      -3.415   4.580  12.900  0.00  0.00    +0.024 A 
ATOM     22  C   UNL     1      -3.007   4.203  11.634  0.00  0.00    +0.076 A 
ATOM     23  S   UNL     1      -4.439   4.612  10.651  0.00  0.00    -0.088 S 
ATOM     24  C   UNL     1      -5.242   5.564  14.394  0.00  0.00    +0.039 C 
ENDBRANCH  11  22
ENDBRANCH   1  13
BRANCH   7  25
ATOM     25  C   UNL     1       3.047  -1.902   7.165  0.00  0.00    +0.216 C 
ATOM     26  O   UNL     1       2.968  -2.627   8.134  0.00  0.00    -0.276 OA
ATOM     27  N   UNL     1       3.433  -2.406   5.976  0.00  0.00    -0.315 N 
ATOM     28  H   UNL     1       3.505  -1.748   5.097  0.00  0.00    +0.149 HD
BRANCH  27  29
ATOM     29  C   UNL     1       3.756  -3.830   5.854  0.00  0.00    +0.107 C 
BRANCH  29  30
ATOM     30  C   UNL     1       4.161  -4.139   4.411  0.00  0.00    -0.000 C 
ATOM     31  C   UNL     1       5.458  -3.399   4.076  0.00  0.00    +0.009 C 
ATOM     32  C   UNL     1       4.378  -5.645   4.254  0.00  0.00    +0.009 C 
ENDBRANCH  29  30
ENDBRANCH  27  29
ENDBRANCH   7  25
TORSDOF 5
