REMARK  Name = ZINC36358998
REMARK  6 active torsions:
REMARK  status: ('A' for Active; 'I' for Inactive)
REMARK    1  A    between atoms: C_1  and  O_2
REMARK    2  A    between atoms: O_2  and  C_3
REMARK    3  A    between atoms: C_8  and  C_9
REMARK    4  A    between atoms: C_9  and  C_10
REMARK    5  A    between atoms: C_10  and  N_11
REMARK    6  A    between atoms: C_12  and  O_30
REMARK                            x       y       z     vdW  Elec       q    Type
REMARK                         _______ _______ _______ _____ _____    ______ ____
ROOT
ATOM      1  N   UNL     1       1.768  -3.786   1.403  0.00  0.00    -0.267 N 
ATOM      2  C   UNL     1       1.728  -5.149   1.493  0.00  0.00    +0.192 C 
ATOM      3  C   UNL     1       2.724  -5.867   0.813  0.00  0.00    +0.055 A 
ATOM      4  C   UNL     1       2.703  -7.268   0.727  0.00  0.00    +0.015 A 
ATOM      5  C   UNL     1       3.645  -7.906  -0.022  0.00  0.00    +0.001 A 
ATOM      6  C   UNL     1       4.638  -7.203  -0.701  0.00  0.00    +0.002 A 
ATOM      7  C   UNL     1       4.737  -5.849  -0.628  0.00  0.00    +0.026 A 
ATOM      8  C   UNL     1       3.816  -5.129   0.163  0.00  0.00    +0.050 A 
ATOM      9  N   UNL     1       3.945  -3.828   0.362  0.00  0.00    -0.352 N 
ATOM     10  C   UNL     1       3.065  -3.121   1.285  0.00  0.00    +0.215 C 
ATOM     11  C   UNL     1       3.714  -2.984   2.628  0.00  0.00    +0.026 A 
ATOM     12  C   UNL     1       4.132  -3.930   3.539  0.00  0.00    +0.010 A 
ATOM     13  C   UNL     1       4.707  -3.462   4.715  0.00  0.00    +0.001 A 
ATOM     14  C   UNL     1       4.851  -2.111   4.956  0.00  0.00    +0.002 A 
ATOM     15  C   UNL     1       4.433  -1.154   4.045  0.00  0.00    +0.024 A 
ATOM     16  C   UNL     1       3.853  -1.611   2.860  0.00  0.00    +0.041 A 
ATOM     17  N   UNL     1       3.353  -0.889   1.790  0.00  0.00    -0.281 N 
ATOM     18  C   UNL     1       2.870  -1.692   0.820  0.00  0.00    +0.266 C 
ATOM     19  O   UNL     1       2.373  -1.337  -0.228  0.00  0.00    -0.271 OA
ATOM     20  H   UNL     1       3.351   0.079   1.744  0.00  0.00    +0.155 HD
ATOM     21  H   UNL     1       4.632  -3.336  -0.115  0.00  0.00    +0.162 HD
ENDROOT
BRANCH   2  22
ATOM     22  O   UNL     1       0.774  -5.777   2.204  0.00  0.00    -0.495 OA
ATOM     23  H   UNL     1       0.847  -6.741   2.195  0.00  0.00    +0.293 HD
ENDBRANCH   2  22
BRANCH   1  24
ATOM     24  C   UNL     1       0.530  -3.003   1.419  0.00  0.00    +0.116 C 
BRANCH  24  25
ATOM     25  C   UNL     1       0.018  -2.829  -0.013  0.00  0.00    +0.058 C 
BRANCH  25  31
ATOM     26  C   UNL     1      -1.200  -0.637   0.010  0.00  0.00    +0.123 A 
ATOM     27  C   UNL     1      -2.375   0.101   0.019  0.00  0.00    +0.046 A 
ATOM     28  C   UNL     1      -3.596  -0.545   0.027  0.00  0.00    +0.004 A 
ATOM     29  C   UNL     1      -3.648  -1.927   0.026  0.00  0.00    +0.000 A 
ATOM     30  C   UNL     1      -2.479  -2.665   0.017  0.00  0.00    +0.007 A 
ATOM     31  C   UNL     1      -1.255  -2.023   0.003  0.00  0.00    -0.004 A 
BRANCH  26  33
ATOM     32  C   UNL     1      -0.017   1.425   0.010  0.00  0.00    +0.277 C 
ATOM     33  O   UNL     1       0.002  -0.004   0.002  0.00  0.00    -0.495 OA
ENDBRANCH  26  33
ENDBRANCH  25  31
ENDBRANCH  24  25
ENDBRANCH   1  24
TORSDOF 5
