REMARK  Name = ZINC20759187
REMARK  11 active torsions:
REMARK  status: ('A' for Active; 'I' for Inactive)
REMARK    1  A    between atoms: C_1  and  O_2
REMARK    2  A    between atoms: O_2  and  C_3
REMARK    3  A    between atoms: C_5  and  C_13
REMARK    4  A    between atoms: C_7  and  O_11
REMARK    5  A    between atoms: C_8  and  O_9
REMARK    6  A    between atoms: O_9  and  C_10
REMARK    7  A    between atoms: O_11  and  C_12
REMARK    8  A    between atoms: N_15  and  C_16
REMARK    9  A    between atoms: C_16  and  C_18
REMARK   10  A    between atoms: C_16  and  C_25
REMARK   11  A    between atoms: C_18  and  C_19
REMARK                            x       y       z     vdW  Elec       q    Type
REMARK                         _______ _______ _______ _____ _____    ______ ____
ROOT
ATOM      1  C   UNL     1       3.591   0.568  -6.333  0.00  0.00    +0.164 C 
ENDROOT
BRANCH   1   2
ATOM      2  C   UNL     1       3.643  -0.324  -7.546  0.00  0.00    +0.236 C 
ATOM      3  O   UNL     1       3.462  -1.518  -7.430  0.00  0.00    -0.274 OA
ATOM      4  N   UNL     1       3.891   0.204  -8.761  0.00  0.00    -0.300 N 
ATOM      5  C   UNL     1       4.230   1.627  -8.903  0.00  0.00    +0.110 C 
ATOM      6  C   UNL     1       3.276   2.260  -9.921  0.00  0.00    +0.047 C 
ATOM      7  C   UNL     1       3.328   1.466 -11.227  0.00  0.00    +0.064 C 
ATOM      8  C   UNL     1       2.881   0.026 -10.975  0.00  0.00    +0.047 C 
ATOM      9  C   UNL     1       3.835  -0.633  -9.967  0.00  0.00    +0.110 C 
ATOM     10  C   UNL     1       2.424   2.108 -12.247  0.00  0.00    +0.057 A 
ATOM     11  C   UNL     1       2.881   2.869 -13.268  0.00  0.00    +0.039 A 
ATOM     12  N   UNL     1       1.800   3.276 -13.981  0.00  0.00    -0.349 N 
ATOM     13  H   UNL     1       1.808   3.835 -14.774  0.00  0.00    +0.166 HD
ATOM     14  C   UNL     1       0.708   2.753 -13.376  0.00  0.00    +0.171 A 
ATOM     15  N   UNL     1       1.094   2.056 -12.339  0.00  0.00    -0.348 N 
ATOM     16  C   UNL     1       4.342   3.163 -13.495  0.00  0.00    +0.070 C 
ATOM     17  C   UNL     1       5.100   2.811 -12.207  0.00  0.00    +0.088 C 
ATOM     18  N   UNL     1       4.702   1.471 -11.752  0.00  0.00    -0.305 NA
ATOM     19  H   UNL     1       5.352   1.114 -11.067  0.00  0.00    +0.123 HD
ATOM     20  H   UNL     1       0.507   1.576 -11.733  0.00  0.00    +0.166 HD
ENDBRANCH   1   2
BRANCH   1  23
ATOM     21  C   UNL     1       2.185   0.671  -4.345  0.00  0.00    +0.245 C 
ATOM     22  O   UNL     1       2.297   1.881  -4.365  0.00  0.00    -0.270 OA
ATOM     23  N   UNL     1       2.794  -0.077  -5.286  0.00  0.00    -0.300 N 
ATOM     24  H   UNL     1       2.704  -1.043  -5.271  0.00  0.00    +0.150 HD
BRANCH  21  27
ATOM     25  C   UNL     1      -0.002   0.184  -1.329  0.00  0.00    +0.166 A 
ATOM     26  C   UNL     1       0.750   0.796  -2.315  0.00  0.00    +0.062 A 
ATOM     27  C   UNL     1       1.382   0.021  -3.291  0.00  0.00    +0.044 A 
ATOM     28  C   UNL     1       1.252  -1.370  -3.268  0.00  0.00    +0.062 A 
ATOM     29  C   UNL     1       0.499  -1.976  -2.280  0.00  0.00    +0.166 A 
ATOM     30  C   UNL     1      -0.125  -1.202  -1.305  0.00  0.00    +0.204 A 
BRANCH  25  32
ATOM     31  C   UNL     1      -0.447   2.354  -0.463  0.00  0.00    +0.277 C 
ATOM     32  O   UNL     1      -0.616   0.938  -0.378  0.00  0.00    -0.491 OA
ENDBRANCH  25  32
BRANCH  30  33
ATOM     33  O   UNL     1      -0.861  -1.801  -0.332  0.00  0.00    -0.488 OA
ATOM     34  C   UNL     1      -2.249  -2.007  -0.601  0.00  0.00    +0.277 C 
ENDBRANCH  30  33
BRANCH  29  35
ATOM     35  O   UNL     1       0.371  -3.330  -2.257  0.00  0.00    -0.491 OA
ATOM     36  C   UNL     1       1.042  -4.062  -3.284  0.00  0.00    +0.277 C 
ENDBRANCH  29  35
ENDBRANCH  21  27
ENDBRANCH   1  23
BRANCH   1  37
ATOM     37  C   UNL     1       5.010   0.810  -5.816  0.00  0.00    +0.067 C 
BRANCH  37  38
ATOM     38  C   UNL     1       4.971   1.809  -4.689  0.00  0.00    -0.045 A 
ATOM     39  C   UNL     1       5.082   3.160  -4.959  0.00  0.00    +0.004 A 
ATOM     40  C   UNL     1       5.046   4.077  -3.925  0.00  0.00    +0.000 A 
ATOM     41  C   UNL     1       4.899   3.643  -2.621  0.00  0.00    +0.000 A 
ATOM     42  C   UNL     1       4.787   2.292  -2.351  0.00  0.00    +0.000 A 
ATOM     43  C   UNL     1       4.819   1.375  -3.385  0.00  0.00    +0.004 A 
ENDBRANCH  37  38
ENDBRANCH   1  37
TORSDOF 8
