REMARK  Name = ZINC49765420
REMARK  6 active torsions:
REMARK  status: ('A' for Active; 'I' for Inactive)
REMARK    1  A    between atoms: C_1  and  C_2
REMARK    2  A    between atoms: N_11  and  C_15
REMARK    3  A    between atoms: C_15  and  C_16
REMARK    4  A    between atoms: C_16  and  N_18
REMARK    5  A    between atoms: N_25  and  C_28
REMARK    6  A    between atoms: C_28  and  C_29
REMARK                            x       y       z     vdW  Elec       q    Type
REMARK                         _______ _______ _______ _____ _____    ______ ____
ROOT
ATOM      1  N   UNL     1       1.183   1.058   6.745  0.00  0.00    -0.155 NA
ATOM      2  C   UNL     1       1.505   0.262   7.767  0.00  0.00    +0.163 A 
ATOM      3  N   UNL     1       1.938  -1.026   7.730  0.00  0.00    -0.339 N 
ATOM      4  C   UNL     1       2.218  -1.678   8.899  0.00  0.00    +0.024 A 
ATOM      5  C   UNL     1       2.030  -0.958  10.017  0.00  0.00    -0.004 A 
ATOM      6  S   UNL     1       1.478   0.611   9.414  0.00  0.00    -0.059 S 
ATOM      7  C   UNL     1       2.250  -1.413  11.422  0.00  0.00    -0.033 C 
ATOM      8  N   UNL     1       2.348  -2.885  11.424  0.00  0.00    +0.386 N 
ATOM      9  C   UNL     1       3.309  -3.312  10.399  0.00  0.00    -0.072 C 
ATOM     10  C   UNL     1       2.715  -3.115   9.001  0.00  0.00    +0.035 C 
ATOM     11  H   UNL     1       2.048  -1.480   6.880  0.00  0.00    +0.167 HD
ATOM     12  H   UNL     1       1.443  -3.282  11.223  0.00  0.00    -0.081 HD
ENDROOT
BRANCH   1  13
ATOM     13  C   UNL     1       1.267   0.606   5.501  0.00  0.00    +0.256 C 
ATOM     14  O   UNL     1       1.636  -0.534   5.291  0.00  0.00    -0.272 OA
BRANCH  13  15
ATOM     15  C   UNL     1       0.904   1.505   4.347  0.00  0.00    +0.215 C 
BRANCH  15  25
ATOM     16  C   UNL     1      -0.019   1.526   0.010  0.00  0.00    +0.010 C 
ATOM     17  C   UNL     1       0.002  -0.004   0.002  0.00  0.00    +0.018 C 
ATOM     18  C   UNL     1      -1.434  -0.533   0.012  0.00  0.00    +0.006 C 
ATOM     19  C   UNL     1      -1.413  -2.063   0.024  0.00  0.00    +0.000 C 
ATOM     20  C   UNL     1      -0.690  -2.554   1.280  0.00  0.00    +0.003 C 
ATOM     21  C   UNL     1       0.749  -2.033   1.276  0.00  0.00    +0.035 C 
ATOM     22  C   UNL     1       0.741  -0.509   1.237  0.00  0.00    +0.115 C 
ATOM     23  C   UNL     1       0.111   0.049   2.493  0.00  0.00    +0.247 C 
ATOM     24  O   UNL     1      -1.023  -0.123   2.884  0.00  0.00    -0.273 OA
ATOM     25  N   UNL     1       1.078   0.778   3.087  0.00  0.00    -0.215 N 
ATOM     26  C   UNL     1       2.217   0.755   2.383  0.00  0.00    +0.310 C 
ATOM     27  O   UNL     1       3.230   1.337   2.717  0.00  0.00    -0.252 OA
ATOM     28  N   UNL     1       2.113   0.013   1.264  0.00  0.00    -0.285 N 
ATOM     29  H   UNL     1       2.808  -0.145   0.606  0.00  0.00    +0.151 HD
ENDBRANCH  15  25
ENDBRANCH  13  15
ENDBRANCH   1  13
BRANCH   8  30
ATOM     30  C   UNL     1       2.803  -3.344  12.743  0.00  0.00    -0.043 C 
BRANCH  30  31
ATOM     31  C   UNL     1       1.758  -3.012  13.778  0.00  0.00    -0.064 A 
ATOM     32  C   UNL     1       1.799  -1.798  14.437  0.00  0.00    +0.002 A 
ATOM     33  C   UNL     1       0.841  -1.494  15.386  0.00  0.00    +0.000 A 
ATOM     34  C   UNL     1      -0.158  -2.404  15.675  0.00  0.00    +0.000 A 
ATOM     35  C   UNL     1      -0.199  -3.618  15.016  0.00  0.00    +0.000 A 
ATOM     36  C   UNL     1       0.756  -3.920  14.064  0.00  0.00    +0.002 A 
ENDBRANCH  30  31
ENDBRANCH   8  30
TORSDOF 5
