REMARK  Name = ZINC12451243
REMARK  8 active torsions:
REMARK  status: ('A' for Active; 'I' for Inactive)
REMARK    1  A    between atoms: C_1  and  C_2
REMARK    2  A    between atoms: C_6  and  S_29
REMARK    3  A    between atoms: C_16  and  N_60
REMARK    4  A    between atoms: C_20  and  C_22
REMARK    5  A    between atoms: C_20  and  C_23
REMARK    6  A    between atoms: C_20  and  N_60
REMARK    7  A    between atoms: C_23  and  C_24
REMARK    8  A    between atoms: S_29  and  C_32
REMARK                            x       y       z     vdW  Elec       q    Type
REMARK                         _______ _______ _______ _____ _____    ______ ____
ROOT
ATOM      1  C   UNL     1       7.338  -3.864  -2.778  0.00  0.00    +0.066 C 
ATOM      2  C   UNL     1       7.310  -3.170  -1.440  0.00  0.00    +0.051 A 
ATOM      3  C   UNL     1       8.481  -3.044  -0.670  0.00  0.00    +0.022 A 
ATOM      4  C   UNL     1       9.715  -3.550  -1.104  0.00  0.00    +0.013 A 
ATOM      5  C   UNL     1      10.816  -3.398  -0.316  0.00  0.00    +0.028 A 
ATOM      6  C   UNL     1      10.735  -2.747   0.913  0.00  0.00    +0.090 A 
ATOM      7  C   UNL     1       9.552  -2.243   1.364  0.00  0.00    +0.055 A 
ATOM      8  C   UNL     1       8.396  -2.381   0.581  0.00  0.00    +0.078 A 
ATOM      9  N   UNL     1       7.211  -1.899   0.976  0.00  0.00    -0.214 NA
ATOM     10  C   UNL     1       6.146  -2.052   0.214  0.00  0.00    +0.219 A 
ATOM     11  N   UNL     1       6.189  -2.668  -0.966  0.00  0.00    -0.219 NA
ATOM     12  N   UNL     1       4.936  -1.546   0.655  0.00  0.00    -0.300 N 
ATOM     13  C   UNL     1       5.028  -0.128   0.903  0.00  0.00    +0.108 C 
ATOM     14  C   UNL     1       4.245   0.288   2.163  0.00  0.00    +0.017 C 
ATOM     15  C   UNL     1       2.887  -0.433   2.274  0.00  0.00    -0.014 C 
ATOM     16  C   UNL     1       2.162  -0.532   0.959  0.00  0.00    -0.070 C 
ATOM     17  C   UNL     1       2.539  -1.867   0.279  0.00  0.00    +0.003 C 
ATOM     18  C   UNL     1       3.864  -1.805  -0.329  0.00  0.00    +0.106 C 
ENDROOT
BRANCH   6  19
ATOM     19  S   UNL     1      12.184  -2.572   1.899  0.00  0.00    -0.006 S 
ATOM     20  O   UNL     1      11.705  -2.467   3.233  0.00  0.00    -0.170 OA
ATOM     21  O   UNL     1      13.019  -3.655   1.512  0.00  0.00    -0.170 OA
ATOM     22  C   UNL     1      12.918  -0.998   1.374  0.00  0.00    +0.200 C 
ENDBRANCH   6  19
BRANCH  16  23
ATOM     23  N   UNL     1       0.708  -0.494   1.201  0.00  0.00    +0.383 N 
ATOM     24  H   UNL     1       0.512   0.135   1.989  0.00  0.00    -0.085 HD
ATOM     25  H   UNL     1       0.377  -1.439   1.427  0.00  0.00    -0.085 HD
BRANCH  23  26
ATOM     26  C   UNL     1       0.002  -0.004   0.002  0.00  0.00    -0.070 C 
ATOM     27  C   UNL     1      -0.019   1.526   0.010  0.00  0.00    -0.013 C 
BRANCH  26  28
ATOM     28  C   UNL     1      -1.433  -0.534   0.013  0.00  0.00    +0.019 C 
BRANCH  28  29
ATOM     29  C   UNL     1      -1.416  -2.035  -0.119  0.00  0.00    -0.042 A 
ATOM     30  C   UNL     1      -1.361  -2.837   1.005  0.00  0.00    +0.011 A 
ATOM     31  C   UNL     1      -1.346  -4.184   0.851  0.00  0.00    +0.045 A 
ATOM     32  S   UNL     1      -1.412  -4.354  -0.925  0.00  0.00    -0.105 S 
ATOM     33  C   UNL     1      -1.460  -2.618  -1.342  0.00  0.00    +0.048 A 
ENDBRANCH  28  29
ENDBRANCH  26  28
ENDBRANCH  23  26
ENDBRANCH  16  23
TORSDOF 5
