REMARK  Name = ZINC20418204
REMARK  8 active torsions:
REMARK  status: ('A' for Active; 'I' for Inactive)
REMARK    1  A    between atoms: C_1  and  C_2
REMARK    2  A    between atoms: C_12  and  C_14
REMARK    3  A    between atoms: C_12  and  C_15
REMARK    4  A    between atoms: C_23  and  C_24
REMARK    5  A    between atoms: N_26  and  C_27
REMARK    6  A    between atoms: C_27  and  C_28
REMARK    7  A    between atoms: C_28  and  C_29
REMARK    8  A    between atoms: C_29  and  N_30
REMARK                            x       y       z     vdW  Elec       q    Type
REMARK                         _______ _______ _______ _____ _____    ______ ____
ROOT
ATOM      1  C   UNL     1       1.923  -3.196  -0.036  0.00  0.00    +0.048 C 
ATOM      2  C   UNL     1       0.932  -2.061  -0.019  0.00  0.00    +0.008 A 
ATOM      3  C   UNL     1       1.195  -0.708  -0.335  0.00  0.00    +0.038 A 
ATOM      4  C   UNL     1      -0.020  -0.021  -0.182  0.00  0.00    +0.137 A 
ATOM      5  C   UNL     1      -0.069   1.349  -0.429  0.00  0.00    +0.050 A 
ATOM      6  C   UNL     1       1.059   2.035  -0.819  0.00  0.00    +0.050 A 
ATOM      7  C   UNL     1       2.277   1.377  -0.977  0.00  0.00    +0.133 A 
ATOM      8  C   UNL     1       2.349  -0.001  -0.737  0.00  0.00    +0.070 A 
ATOM      9  C   UNL     1       3.633  -0.691  -0.913  0.00  0.00    +0.171 C 
ATOM     10  O   UNL     1       3.709  -1.902  -0.929  0.00  0.00    -0.292 OA
ATOM     11  C   UNL     1       4.861   0.187  -1.074  0.00  0.00    +0.132 C 
ATOM     12  C   UNL     1       4.456   1.370  -1.966  0.00  0.00    +0.140 C 
ATOM     13  O   UNL     1       3.374   2.072  -1.355  0.00  0.00    -0.480 OA
ATOM     14  C   UNL     1       4.018   0.850  -3.337  0.00  0.00    +0.061 C 
ATOM     15  O   UNL     1      -0.948  -0.920   0.203  0.00  0.00    -0.450 OA
ATOM     16  C   UNL     1      -0.386  -2.143   0.302  0.00  0.00    +0.193 A 
ENDROOT
BRANCH  12  17
ATOM     17  C   UNL     1       5.630   2.300  -2.133  0.00  0.00    -0.004 A 
ATOM     18  C   UNL     1       6.919   1.800  -2.090  0.00  0.00    +0.010 A 
ATOM     19  C   UNL     1       7.996   2.651  -2.248  0.00  0.00    +0.039 A 
ATOM     20  C   UNL     1       7.785   4.006  -2.438  0.00  0.00    +0.123 A 
ATOM     21  C   UNL     1       6.495   4.506  -2.476  0.00  0.00    +0.039 A 
ATOM     22  C   UNL     1       5.419   3.653  -2.324  0.00  0.00    +0.010 A 
ATOM     23  F   UNL     1       8.838   4.839  -2.588  0.00  0.00    -0.205 F 
ENDBRANCH  12  17
BRANCH  16  24
ATOM     24  C   UNL     1      -1.090  -3.373   0.698  0.00  0.00    +0.280 C 
ATOM     25  O   UNL     1      -0.486  -4.428   0.756  0.00  0.00    -0.267 OA
ATOM     26  N   UNL     1      -2.404  -3.331   0.995  0.00  0.00    -0.309 N 
ATOM     27  H   UNL     1      -2.950  -2.378   0.943  0.00  0.00    +0.149 HD
BRANCH  26  28
ATOM     28  C   UNL     1      -3.105  -4.556   1.389  0.00  0.00    +0.103 C 
BRANCH  28  29
ATOM     29  C   UNL     1      -4.574  -4.235   1.670  0.00  0.00    +0.000 C 
BRANCH  29  30
ATOM     30  C   UNL     1      -5.306  -5.514   2.081  0.00  0.00    -0.077 C 
BRANCH  30  31
ATOM     31  N   UNL     1      -6.717  -5.205   2.351  0.00  0.00    +0.380 N 
ATOM     32  C   UNL     1      -6.849  -4.329   3.522  0.00  0.00    -0.079 C 
ATOM     33  C   UNL     1      -8.313  -3.912   3.685  0.00  0.00    -0.019 C 
ATOM     34  C   UNL     1      -9.178  -5.163   3.860  0.00  0.00    -0.004 C 
ATOM     35  C   UNL     1      -8.985  -6.081   2.650  0.00  0.00    -0.019 C 
ATOM     36  C   UNL     1      -7.502  -6.435   2.516  0.00  0.00    -0.079 C 
ATOM     37  H   UNL     1      -7.119  -4.665   1.481  0.00  0.00    -0.082 HD
ENDBRANCH  30  31
ENDBRANCH  29  30
ENDBRANCH  28  29
ENDBRANCH  26  28
ENDBRANCH  16  24
TORSDOF 6
