REMARK  Name = ZINC36719201
REMARK  7 active torsions:
REMARK  status: ('A' for Active; 'I' for Inactive)
REMARK    1  A    between atoms: C_1  and  C_2
REMARK    2  A    between atoms: C_2  and  C_3
REMARK    3  A    between atoms: C_3  and  N_4
REMARK    4  A    between atoms: N_4  and  C_5
REMARK    5  A    between atoms: C_5  and  C_6
REMARK    6  A    between atoms: N_8  and  C_9
REMARK    7  A    between atoms: C_18  and  C_20
REMARK                            x       y       z     vdW  Elec       q    Type
REMARK                         _______ _______ _______ _____ _____    ______ ____
ROOT
ATOM      1  N   UNL     1       0.650  -1.919  -1.227  0.00  0.00    -0.289 N 
ATOM      2  C   UNL     1       1.718  -2.592  -0.753  0.00  0.00    +0.250 C 
ATOM      3  O   UNL     1       2.577  -2.004  -0.125  0.00  0.00    -0.270 OA
ENDROOT
BRANCH   2   4
ATOM      4  C   UNL     1       1.843  -4.043  -0.994  0.00  0.00    +0.073 A 
ATOM      5  C   UNL     1       0.851  -4.918  -0.544  0.00  0.00    +0.031 A 
ATOM      6  C   UNL     1       0.974  -6.273  -0.773  0.00  0.00    +0.019 A 
ATOM      7  C   UNL     1       2.078  -6.768  -1.449  0.00  0.00    +0.018 A 
ATOM      8  C   UNL     1       3.064  -5.910  -1.898  0.00  0.00    +0.040 A 
ATOM      9  C   UNL     1       2.951  -4.548  -1.681  0.00  0.00    +0.136 A 
ATOM     10  F   UNL     1       3.913  -3.710  -2.125  0.00  0.00    -0.205 F 
ATOM     11 BR   UNL     1      -0.368  -7.457  -0.164  0.00  0.00    -0.050 Br
ENDBRANCH   2   4
BRANCH   1  12
ATOM     12  C   UNL     1       0.576  -0.464  -1.076  0.00  0.00    +0.108 C 
BRANCH  12  14
ATOM     13  C   UNL     1      -0.303   1.397   0.340  0.00  0.00    +0.005 C 
ATOM     14  C   UNL     1      -0.225  -0.122   0.182  0.00  0.00    +0.016 C 
ENDBRANCH  12  14
ENDBRANCH   1  12
BRANCH   1  15
ATOM     15  C   UNL     1      -0.434  -2.643  -1.895  0.00  0.00    +0.204 C 
BRANCH  15  16
ATOM     16  C   UNL     1      -0.148  -2.728  -3.372  0.00  0.00    +0.235 C 
ATOM     17  O   UNL     1       0.863  -2.232  -3.823  0.00  0.00    -0.274 OA
ATOM     18  N   UNL     1      -1.015  -3.354  -4.191  0.00  0.00    -0.282 N 
ATOM     19  H   UNL     1      -1.854  -3.693  -3.842  0.00  0.00    +0.155 HD
BRANCH  18  20
ATOM     20  C   UNL     1      -0.704  -3.517  -5.548  0.00  0.00    +0.072 A 
ATOM     21  C   UNL     1       0.026  -2.543  -6.215  0.00  0.00    +0.029 A 
ATOM     22  C   UNL     1       0.332  -2.703  -7.553  0.00  0.00    +0.043 A 
ATOM     23  C   UNL     1      -0.088  -3.836  -8.230  0.00  0.00    +0.161 A 
ATOM     24  C   UNL     1      -0.817  -4.811  -7.568  0.00  0.00    +0.195 A 
ATOM     25  C   UNL     1      -1.121  -4.657  -6.226  0.00  0.00    +0.182 A 
ATOM     26  F   UNL     1      -1.826  -5.609  -5.578  0.00  0.00    -0.200 F 
ATOM     27  F   UNL     1      -1.226  -5.915  -8.231  0.00  0.00    -0.199 F 
ATOM     28  F   UNL     1       0.213  -3.990  -9.538  0.00  0.00    -0.202 F 
ENDBRANCH  18  20
ENDBRANCH  15  16
ENDBRANCH   1  15
TORSDOF 6
