REMARK  Name = ZINC52583969
REMARK  5 active torsions:
REMARK  status: ('A' for Active; 'I' for Inactive)
REMARK    1  A    between atoms: C_1  and  C_2
REMARK    2  A    between atoms: C_2  and  C_4
REMARK    3  A    between atoms: C_2  and  N_10
REMARK    4  A    between atoms: C_4  and  C_5
REMARK    5  A    between atoms: C_19  and  C_21
REMARK                            x       y       z     vdW  Elec       q    Type
REMARK                         _______ _______ _______ _____ _____    ______ ____
ROOT
ATOM      1  N   UNL     1       0.682  -0.510  -1.197  0.00  0.00    -0.296 N 
ATOM      2  C   UNL     1       2.027  -0.597  -1.216  0.00  0.00    +0.303 C 
ATOM      3  O   UNL     1       2.675  -0.201  -0.266  0.00  0.00    -0.253 OA
ATOM      4  N   UNL     1       2.654  -1.122  -2.287  0.00  0.00    -0.279 N 
ATOM      5  C   UNL     1       1.852  -1.464  -3.479  0.00  0.00    +0.110 C 
ATOM      6  C   UNL     1       2.552  -1.054  -4.787  0.00  0.00    +0.019 C 
ATOM      7  C   UNL     1       3.209   0.295  -4.622  0.00  0.00    +0.002 C 
ATOM      8  C   UNL     1       4.653   0.102  -4.167  0.00  0.00    +0.002 C 
ATOM      9  C   UNL     1       4.814  -0.052  -2.713  0.00  0.00    +0.027 C 
ATOM     10  C   UNL     1       4.084  -1.322  -2.225  0.00  0.00    +0.108 C 
ATOM     11  H   UNL     1       0.169  -0.759  -1.982  0.00  0.00    +0.151 HD
ENDROOT
BRANCH  10  12
ATOM     12  C   UNL     1       4.489  -1.610  -0.802  0.00  0.00    -0.024 A 
ATOM     13  C   UNL     1       4.059  -2.762  -0.161  0.00  0.00    +0.025 A 
ATOM     14  C   UNL     1       4.450  -2.993   1.144  0.00  0.00    +0.111 A 
ATOM     15  N   UNL     1       5.222  -2.133   1.779  0.00  0.00    -0.263 NA
ATOM     16  C   UNL     1       5.649  -1.027   1.201  0.00  0.00    +0.111 A 
ATOM     17  C   UNL     1       5.304  -0.732  -0.104  0.00  0.00    +0.025 A 
ENDBRANCH  10  12
BRANCH   1  19
ATOM     18  C   UNL     1      -0.053   1.489   0.005  0.00  0.00    +0.028 C 
ATOM     19  C   UNL     1      -0.005  -0.040   0.009  0.00  0.00    +0.076 C 
BRANCH  19  20
ATOM     20  C   UNL     1      -1.430  -0.595   0.033  0.00  0.00    +0.057 C 
BRANCH  20  21
ATOM     21  C   UNL     1      -1.383  -2.096   0.160  0.00  0.00    -0.039 A 
ATOM     22  C   UNL     1      -1.337  -2.894  -0.967  0.00  0.00    +0.011 A 
ATOM     23  C   UNL     1      -1.295  -4.241  -0.817  0.00  0.00    +0.045 A 
ATOM     24  S   UNL     1      -1.321  -4.416   0.959  0.00  0.00    -0.105 S 
ATOM     25  C   UNL     1      -1.380  -2.683   1.382  0.00  0.00    +0.049 A 
ENDBRANCH  20  21
ENDBRANCH  19  20
ENDBRANCH   1  19
TORSDOF 4
