REMARK  Name = ZINC12901667
REMARK  6 active torsions:
REMARK  status: ('A' for Active; 'I' for Inactive)
REMARK    1  A    between atoms: C_1  and  C_2
REMARK    2  A    between atoms: N_5  and  C_11
REMARK    3  A    between atoms: C_7  and  C_10
REMARK    4  A    between atoms: C_11  and  C_12
REMARK    5  A    between atoms: C_18  and  C_20
REMARK    6  A    between atoms: C_23  and  C_25
REMARK                            x       y       z     vdW  Elec       q    Type
REMARK                         _______ _______ _______ _____ _____    ______ ____
ROOT
ATOM      1  C   UNL     1      -2.696  -4.052  -0.132  0.00  0.00    +0.064 A 
ATOM      2  C   UNL     1      -2.750  -4.892   0.931  0.00  0.00    +0.073 A 
ATOM      3  S   UNL     1      -2.623  -6.473   0.112  0.00  0.00    -0.060 S 
ATOM      4  C   UNL     1      -2.516  -5.909  -1.470  0.00  0.00    +0.165 A 
ATOM      5  N   UNL     1      -2.583  -4.602  -1.327  0.00  0.00    -0.228 NA
ATOM      6  N   UNL     1      -2.392  -6.643  -2.642  0.00  0.00    -0.259 N 
ATOM      7  C   UNL     1      -2.344  -7.989  -2.592  0.00  0.00    +0.269 C 
ATOM      8  O   UNL     1      -2.409  -8.561  -1.520  0.00  0.00    -0.268 OA
ATOM      9  H   UNL     1      -2.340  -6.188  -3.497  0.00  0.00    +0.157 HD
ENDROOT
BRANCH   7  10
ATOM     10  C   UNL     1      -2.212  -8.768  -3.834  0.00  0.00    +0.134 A 
ATOM     11  C   UNL     1      -2.168 -10.136  -3.795  0.00  0.00    +0.080 A 
ATOM     12  S   UNL     1      -2.018 -10.544  -5.421  0.00  0.00    -0.072 S 
ATOM     13  C   UNL     1      -2.018  -8.894  -6.098  0.00  0.00    +0.144 A 
ATOM     14  N   UNL     1      -2.140  -8.154  -5.008  0.00  0.00    -0.231 NA
BRANCH  13  15
ATOM     15  C   UNL     1      -1.916  -8.467  -7.503  0.00  0.00    +0.160 A 
ATOM     16  C   UNL     1      -1.803  -9.290  -8.583  0.00  0.00    +0.052 A 
ATOM     17  C   UNL     1      -1.734  -8.461  -9.718  0.00  0.00    +0.042 A 
ATOM     18  C   UNL     1      -1.808  -7.187  -9.283  0.00  0.00    +0.196 A 
ATOM     19  O   UNL     1      -1.923  -7.194  -7.946  0.00  0.00    -0.461 OA
ENDBRANCH  13  15
ENDBRANCH   7  10
BRANCH   1  20
ATOM     20  C   UNL     1      -2.768  -2.557   0.042  0.00  0.00    +0.140 C 
BRANCH  20  24
ATOM     21  C   UNL     1      -0.019   1.526   0.010  0.00  0.00    +0.039 C 
ATOM     22  C   UNL     1       0.002  -0.004   0.002  0.00  0.00    +0.130 C 
ATOM     23  C   UNL     1      -1.434  -0.535   0.015  0.00  0.00    +0.116 C 
ATOM     24  N   UNL     1      -1.407  -2.003   0.085  0.00  0.00    -0.292 NA
ATOM     25  C   UNL     1      -0.692  -2.455   1.287  0.00  0.00    +0.116 C 
ATOM     26  C   UNL     1       0.736  -1.905   1.261  0.00  0.00    +0.130 C 
ATOM     27  O   UNL     1       0.692  -0.479   1.161  0.00  0.00    -0.371 OA
ATOM     28  C   UNL     1       1.461  -2.305   2.548  0.00  0.00    +0.039 C 
ENDBRANCH  20  24
ENDBRANCH   1  20
TORSDOF 4
