REMARK  Name = ZINC06442523
REMARK  7 active torsions:
REMARK  status: ('A' for Active; 'I' for Inactive)
REMARK    1  A    between atoms: C_1  and  C_2
REMARK    2  A    between atoms: C_7  and  C_15
REMARK    3  A    between atoms: C_13  and  C_14
REMARK    4  A    between atoms: C_15  and  C_17
REMARK    5  A    between atoms: C_15  and  N_74
REMARK    6  A    between atoms: N_21  and  C_22
REMARK    7  A    between atoms: C_22  and  C_23
REMARK                            x       y       z     vdW  Elec       q    Type
REMARK                         _______ _______ _______ _____ _____    ______ ____
ROOT
ATOM      1  C   UNL     1       0.002  -0.004   0.002  0.00  0.00    +0.039 C 
ENDROOT
BRANCH   1   8
ATOM      2  C   UNL     1      -7.162  -3.138   1.576  0.00  0.00    +0.044 C 
ATOM      3  C   UNL     1      -5.744  -2.635   1.484  0.00  0.00    -0.046 A 
ATOM      4  C   UNL     1      -4.853  -2.902   2.515  0.00  0.00    +0.004 A 
ATOM      5  C   UNL     1      -3.563  -2.457   2.452  0.00  0.00    +0.010 A 
ATOM      6  C   UNL     1      -3.136  -1.724   1.339  0.00  0.00    -0.001 A 
ATOM      7  C   UNL     1      -1.762  -1.231   1.239  0.00  0.00    +0.017 A 
ATOM      8  C   UNL     1      -1.405  -0.526   0.137  0.00  0.00    +0.011 A 
ATOM      9  C   UNL     1      -2.349  -0.275  -0.883  0.00  0.00    +0.251 A 
ATOM     10  O   UNL     1      -2.009   0.364  -1.863  0.00  0.00    -0.268 OA
ATOM     11  N   UNL     1      -3.612  -0.729  -0.802  0.00  0.00    -0.322 N 
ATOM     12  H   UNL     1      -4.234  -0.542  -1.522  0.00  0.00    +0.169 HD
ATOM     13  C   UNL     1      -4.037  -1.452   0.292  0.00  0.00    +0.052 A 
ATOM     14  C   UNL     1      -5.346  -1.917   0.379  0.00  0.00    -0.024 A 
ATOM     15  C   UNL     1      -6.324  -1.634  -0.733  0.00  0.00    +0.046 C 
ENDBRANCH   1   8
BRANCH   1  26
ATOM     16  C   UNL     1      -0.816   2.061   0.965  0.00  0.00    -0.077 C 
ATOM     17  C   UNL     1      -0.948   3.567   0.727  0.00  0.00    -0.018 C 
ATOM     18  C   UNL     1       0.448   4.194   0.677  0.00  0.00    +0.003 C 
ATOM     19  C   UNL     1       1.264   3.517  -0.428  0.00  0.00    -0.044 C 
ATOM     20  C   UNL     1       1.332   2.013  -0.157  0.00  0.00    -0.071 C 
ATOM     21  C   UNL     1       0.592   3.764  -1.780  0.00  0.00    +0.005 C 
ATOM     22  C   UNL     1       1.407   3.089  -2.885  0.00  0.00    +0.000 C 
ATOM     23  C   UNL     1       2.822   3.673  -2.904  0.00  0.00    +0.000 C 
ATOM     24  C   UNL     1       3.493   3.424  -1.552  0.00  0.00    +0.000 C 
ATOM     25  C   UNL     1       2.679   4.098  -0.446  0.00  0.00    +0.005 C 
ATOM     26  N   UNL     1      -0.042   1.465  -0.145  0.00  0.00    +0.390 N 
ATOM     27  H   UNL     1      -0.501   1.698  -1.033  0.00  0.00    -0.080 HD
ENDBRANCH   1  26
BRANCH   1  28
ATOM     28  C   UNL     1       0.800  -0.391   1.220  0.00  0.00    +0.143 A 
ATOM     29  N   UNL     1       0.719   0.147   2.413  0.00  0.00    -0.115 NA
ATOM     30  N   UNL     1       1.559  -0.457   3.180  0.00  0.00    -0.023 NA
ATOM     31  N   UNL     1       2.175  -1.366   2.508  0.00  0.00    -0.044 NA
ATOM     32  N   UNL     1       1.731  -1.360   1.297  0.00  0.00    -0.228 N 
BRANCH  32  33
ATOM     33  C   UNL     1       2.161  -2.241   0.208  0.00  0.00    +0.178 C 
BRANCH  33  34
ATOM     34  C   UNL     1       3.332  -1.597  -0.537  0.00  0.00    +0.140 C 
ATOM     35  C   UNL     1       3.839  -2.537  -1.659  0.00  0.00    +0.035 C 
ATOM     36  C   UNL     1       4.491  -1.514  -2.629  0.00  0.00    +0.031 C 
ATOM     37  C   UNL     1       3.576  -0.281  -2.468  0.00  0.00    +0.160 C 
ATOM     38  O   UNL     1       2.898  -0.406  -1.213  0.00  0.00    -0.375 OA
ENDBRANCH  33  34
ENDBRANCH  32  33
ENDBRANCH   1  28
TORSDOF 5
