REMARK  Name = ZINC21104571
REMARK  6 active torsions:
REMARK  status: ('A' for Active; 'I' for Inactive)
REMARK    1  A    between atoms: C_1  and  C_2
REMARK    2  A    between atoms: C_6  and  N_9
REMARK    3  A    between atoms: C_7  and  C_8
REMARK    4  A    between atoms: N_9  and  C_10
REMARK    5  A    between atoms: N_20  and  C_21
REMARK    6  A    between atoms: C_21  and  C_22
REMARK                            x       y       z     vdW  Elec       q    Type
REMARK                         _______ _______ _______ _____ _____    ______ ____
ROOT
ATOM      1  C   UNL     1       0.170   1.022   0.172  0.00  0.00    +0.212 C 
ATOM      2  C   UNL     1       1.570   1.550   0.376  0.00  0.00    +0.092 A 
ATOM      3  C   UNL     1       1.898   2.246  -0.790  0.00  0.00    +0.062 A 
ATOM      4  C   UNL     1       3.155   2.851  -0.883  0.00  0.00    +0.016 A 
ATOM      5  C   UNL     1       4.021   2.731   0.191  0.00  0.00    +0.020 A 
ATOM      6  C   UNL     1       3.619   2.024   1.310  0.00  0.00    +0.111 A 
ATOM      7  N   UNL     1       2.426   1.462   1.369  0.00  0.00    -0.256 NA
ATOM      8  C   UNL     1       0.754   2.173  -1.716  0.00  0.00    +0.250 C 
ATOM      9  O   UNL     1       0.720   2.679  -2.820  0.00  0.00    -0.270 OA
ATOM     10  N   UNL     1      -0.247   1.466  -1.163  0.00  0.00    -0.269 N 
ENDROOT
BRANCH   1  11
ATOM     11  N   UNL     1      -0.728   1.572   1.190  0.00  0.00    -0.321 N 
ATOM     12  H   UNL     1      -0.699   2.646   1.427  0.00  0.00    +0.148 HD
BRANCH  11  18
ATOM     13  C   UNL     1      -4.078   0.923   4.727  0.00  0.00    +0.044 C 
ATOM     14  C   UNL     1      -3.258   0.392   3.579  0.00  0.00    -0.046 A 
ATOM     15  C   UNL     1      -3.389  -0.929   3.190  0.00  0.00    +0.004 A 
ATOM     16  C   UNL     1      -2.638  -1.421   2.138  0.00  0.00    +0.002 A 
ATOM     17  C   UNL     1      -1.755  -0.593   1.472  0.00  0.00    +0.023 A 
ATOM     18  C   UNL     1      -1.621   0.733   1.861  0.00  0.00    +0.032 A 
ATOM     19  C   UNL     1      -2.373   1.222   2.922  0.00  0.00    -0.027 A 
ATOM     20  C   UNL     1      -2.226   2.659   3.351  0.00  0.00    +0.046 C 
ENDBRANCH  11  18
ENDBRANCH   1  11
BRANCH  10  21
ATOM     21  C   UNL     1      -1.541   1.185  -1.789  0.00  0.00    +0.145 C 
BRANCH  21  22
ATOM     22  C   UNL     1      -2.516   2.280  -1.442  0.00  0.00    -0.030 A 
ATOM     23  C   UNL     1      -3.306   2.169  -0.313  0.00  0.00    +0.008 A 
ATOM     24  C   UNL     1      -4.197   3.175   0.010  0.00  0.00    +0.038 A 
ATOM     25  C   UNL     1      -4.306   4.289  -0.804  0.00  0.00    +0.123 A 
ATOM     26  C   UNL     1      -3.519   4.397  -1.938  0.00  0.00    +0.038 A 
ATOM     27  C   UNL     1      -2.624   3.392  -2.256  0.00  0.00    +0.008 A 
ATOM     28  F   UNL     1      -5.181   5.270  -0.493  0.00  0.00    -0.205 F 
ENDBRANCH  21  22
ENDBRANCH  10  21
TORSDOF 4
