REMARK  Name = ZINC46864747
REMARK  7 active torsions:
REMARK  status: ('A' for Active; 'I' for Inactive)
REMARK    1  A    between atoms: C_1  and  C_2
REMARK    2  A    between atoms: C_2  and  C_3
REMARK    3  A    between atoms: C_2  and  C_4
REMARK    4  A    between atoms: C_2  and  N_8
REMARK    5  A    between atoms: C_4  and  O_6
REMARK    6  A    between atoms: O_6  and  C_7
REMARK    7  A    between atoms: C_9  and  C_11
REMARK                            x       y       z     vdW  Elec       q    Type
REMARK                         _______ _______ _______ _____ _____    ______ ____
ROOT
ATOM      1  N   UNL     1       0.688  -0.476  -1.203  0.00  0.00    -0.296 N 
ATOM      2  C   UNL     1       1.972  -0.132  -1.427  0.00  0.00    +0.244 C 
ATOM      3  O   UNL     1       2.561   0.571  -0.628  0.00  0.00    -0.270 OA
ATOM      4  H   UNL     1       0.218  -1.037  -1.840  0.00  0.00    +0.150 HD
ENDROOT
BRANCH   2   5
ATOM      5  C   UNL     1       2.656  -0.604  -2.630  0.00  0.00    +0.052 C 
ATOM      6  C   UNL     1       3.949  -0.264  -2.855  0.00  0.00    +0.023 C 
ATOM      7  C   UNL     1       4.583  -0.749  -4.091  0.00  0.00    +0.019 A 
ATOM      8  C   UNL     1       5.968  -0.739  -4.252  0.00  0.00    +0.031 A 
ATOM      9  C   UNL     1       6.519  -1.205  -5.429  0.00  0.00    +0.042 A 
ATOM     10  C   UNL     1       5.703  -1.679  -6.445  0.00  0.00    +0.023 A 
ATOM     11  C   UNL     1       4.329  -1.693  -6.296  0.00  0.00    +0.048 A 
ATOM     12  C   UNL     1       3.758  -1.230  -5.123  0.00  0.00    +0.128 A 
ATOM     13  O   UNL     1       2.414  -1.231  -4.946  0.00  0.00    -0.487 OA
ATOM     14  C   UNL     1       1.929  -1.475  -3.622  0.00  0.00    +0.269 C 
ATOM     15 CL   UNL     1       8.242  -1.196  -5.639  0.00  0.00    -0.084 Cl
ENDBRANCH   2   5
BRANCH   1  17
ATOM     16  C   UNL     1      -0.019   1.526   0.010  0.00  0.00    +0.043 C 
ATOM     17  C   UNL     1       0.002  -0.004   0.002  0.00  0.00    +0.126 C 
ATOM     18  C   UNL     1       0.742  -0.511   1.242  0.00  0.00    +0.043 C 
BRANCH  17  19
ATOM     19  C   UNL     1      -1.412  -0.526   0.013  0.00  0.00    +0.330 C 
ATOM     20  O   UNL     1      -1.937  -0.826   1.059  0.00  0.00    -0.248 OA
BRANCH  19  21
ATOM     21  O   UNL     1      -2.087  -0.657  -1.140  0.00  0.00    -0.466 OA
ATOM     22  C   UNL     1      -3.423  -1.157  -1.055  0.00  0.00    +0.280 C 
ENDBRANCH  19  21
ENDBRANCH  17  19
ENDBRANCH   1  17
TORSDOF 4
