REMARK  Name = ZINC24002544
REMARK  11 active torsions:
REMARK  status: ('A' for Active; 'I' for Inactive)
REMARK    1  A    between atoms: C_1  and  C_2
REMARK    2  A    between atoms: C_2  and  O_3
REMARK    3  A    between atoms: O_3  and  C_4
REMARK    4  A    between atoms: C_4  and  C_6
REMARK    5  A    between atoms: C_7  and  C_19
REMARK    6  A    between atoms: C_12  and  C_14
REMARK    7  A    between atoms: C_19  and  O_20
REMARK    8  A    between atoms: O_20  and  C_21
REMARK    9  A    between atoms: C_21  and  C_23
REMARK   10  A    between atoms: C_24  and  C_39
REMARK   11  A    between atoms: C_25  and  C_33
REMARK                            x       y       z     vdW  Elec       q    Type
REMARK                         _______ _______ _______ _____ _____    ______ ____
ROOT
ATOM      1  C   UNL     1       3.670  -3.192  -3.582  0.00  0.00    +0.283 C 
ENDROOT
BRANCH   1   3
ATOM      2  C   UNL     1       2.071  -3.765  -1.790  0.00  0.00    +0.084 C 
ATOM      3  C   UNL     1       3.034  -2.933  -2.241  0.00  0.00    +0.061 C 
ATOM      4  N   UNL     1       3.440  -1.859  -1.501  0.00  0.00    -0.269 N 
ATOM      5  C   UNL     1       2.933  -1.549  -0.301  0.00  0.00    +0.305 C 
ATOM      6  O   UNL     1       3.360  -0.572   0.283  0.00  0.00    -0.252 OA
ATOM      7  N   UNL     1       1.966  -2.286   0.280  0.00  0.00    -0.285 N 
ATOM      8  C   UNL     1       1.457  -3.467  -0.437  0.00  0.00    +0.179 C 
ATOM      9  H   UNL     1       4.226  -1.192  -1.886  0.00  0.00    +0.156 HD
ATOM     10  H   UNL     1       1.556  -2.023   1.267  0.00  0.00    +0.151 HD
BRANCH   8  11
ATOM     11  C   UNL     1      -0.027  -3.292  -0.628  0.00  0.00    +0.130 A 
ATOM     12  C   UNL     1      -0.968  -4.220  -0.377  0.00  0.00    +0.047 A 
ATOM     13  C   UNL     1      -2.215  -3.635  -0.695  0.00  0.00    +0.041 A 
ATOM     14  C   UNL     1      -1.962  -2.385  -1.121  0.00  0.00    +0.195 A 
ATOM     15  O   UNL     1      -0.635  -2.182  -1.079  0.00  0.00    -0.466 OA
ENDBRANCH   8  11
BRANCH   2  16
ATOM     16  C   UNL     1       1.649  -4.878  -2.555  0.00  0.00    +0.339 C 
ATOM     17  O   UNL     1       2.078  -5.039  -3.683  0.00  0.00    -0.245 OA
BRANCH  16  18
ATOM     18  O   UNL     1       0.772  -5.761  -2.034  0.00  0.00    -0.462 OA
BRANCH  18  20
ATOM     19  C   UNL     1      -0.603  -7.748  -2.108  0.00  0.00    +0.048 C 
ATOM     20  C   UNL     1       0.390  -6.861  -2.863  0.00  0.00    +0.229 C 
ENDBRANCH  18  20
ENDBRANCH  16  18
ENDBRANCH   2  16
ENDBRANCH   1   3
BRANCH   1  21
ATOM     21  O   UNL     1       4.743  -2.239  -3.802  0.00  0.00    -0.455 OA
BRANCH  21  22
ATOM     22  C   UNL     1       5.419  -2.335  -4.963  0.00  0.00    +0.341 C 
ATOM     23  O   UNL     1       5.120  -3.192  -5.770  0.00  0.00    -0.245 OA
BRANCH  22  24
ATOM     24  C   UNL     1       6.524  -1.398  -5.255  0.00  0.00    +0.073 A 
ATOM     25  C   UNL     1       6.296  -0.194  -5.906  0.00  0.00    -0.010 A 
ATOM     26  C   UNL     1       7.375   0.665  -6.162  0.00  0.00    +0.075 A 
ATOM     27  N   UNL     1       8.608   0.371  -5.806  0.00  0.00    -0.246 NA
ATOM     28  C   UNL     1       8.918  -0.763  -5.177  0.00  0.00    +0.072 A 
ATOM     29  C   UNL     1       7.901  -1.700  -4.864  0.00  0.00    +0.015 A 
ATOM     30  C   UNL     1       8.230  -2.892  -4.209  0.00  0.00    +0.011 A 
ATOM     31  C   UNL     1       9.528  -3.136  -3.868  0.00  0.00    +0.001 A 
ATOM     32  C   UNL     1      10.530  -2.217  -4.168  0.00  0.00    +0.002 A 
ATOM     33  C   UNL     1      10.245  -1.050  -4.808  0.00  0.00    +0.028 A 
ATOM     34  C   UNL     1       4.903   0.188  -6.334  0.00  0.00    +0.047 C 
BRANCH  26  35
ATOM     35  C   UNL     1       7.119   1.949  -6.859  0.00  0.00    +0.001 A 
ATOM     36  C   UNL     1       7.964   2.369  -7.885  0.00  0.00    +0.010 A 
ATOM     37  C   UNL     1       7.717   3.562  -8.533  0.00  0.00    +0.001 A 
ATOM     38  C   UNL     1       6.641   4.346  -8.159  0.00  0.00    +0.000 A 
ATOM     39  C   UNL     1       5.802   3.937  -7.138  0.00  0.00    +0.001 A 
ATOM     40  C   UNL     1       6.035   2.743  -6.486  0.00  0.00    +0.010 A 
ENDBRANCH  26  35
ENDBRANCH  22  24
ENDBRANCH  21  22
ENDBRANCH   1  21
TORSDOF 9
