REMARK  Name = ZINC13064582
REMARK  17 active torsions:
REMARK  status: ('A' for Active; 'I' for Inactive)
REMARK    1  A    between atoms: C_1  and  C_2
REMARK    2  A    between atoms: C_2  and  C_3
REMARK    3  A    between atoms: C_3  and  C_5
REMARK    4  A    between atoms: C_3  and  N_75
REMARK    5  A    between atoms: N_9  and  C_10
REMARK    6  A    between atoms: C_10  and  C_11
REMARK    7  A    between atoms: C_10  and  C_12
REMARK    8  A    between atoms: C_10  and  C_13
REMARK    9  A    between atoms: C_13  and  C_14
REMARK   10  A    between atoms: C_15  and  C_16
REMARK   11  A    between atoms: C_15  and  N_75
REMARK   12  A    between atoms: C_21  and  O_22
REMARK   13  A    between atoms: O_22  and  C_23
REMARK   14  A    between atoms: C_24  and  C_25
REMARK   15  A    between atoms: C_24  and  N_75
REMARK   16  A    between atoms: C_29  and  C_38
REMARK   17  A    between atoms: C_30  and  C_37
REMARK                            x       y       z     vdW  Elec       q    Type
REMARK                         _______ _______ _______ _____ _____    ______ ____
ROOT
ATOM      1  N   UNL     1      -6.188   4.093  -1.449  0.00  0.00    +0.392 N 
ATOM      2  H   UNL     1      -5.894   3.233  -1.926  0.00  0.00    -0.080 HD
ENDROOT
BRANCH   1   3
ATOM      3  C   UNL     1      -7.383   4.634  -2.130  0.00  0.00    +0.003 C 
BRANCH   3   4
ATOM      4  C   UNL     1      -7.224   4.434  -3.615  0.00  0.00    +0.139 A 
ATOM      5  N   UNL     1      -6.131   4.612  -4.316  0.00  0.00    -0.115 NA
ATOM      6  N   UNL     1      -6.398   4.338  -5.546  0.00  0.00    -0.023 NA
ATOM      7  N   UNL     1      -7.633   3.990  -5.648  0.00  0.00    -0.043 NA
ATOM      8  N   UNL     1      -8.175   4.032  -4.478  0.00  0.00    -0.225 N 
BRANCH   8   9
ATOM      9  C   UNL     1      -9.565   3.705  -4.151  0.00  0.00    +0.061 C 
ATOM     10  C   UNL     1      -9.601   2.461  -3.260  0.00  0.00    +0.036 C 
ATOM     11  C   UNL     1     -10.205   4.881  -3.411  0.00  0.00    +0.036 C 
BRANCH   9  12
ATOM     12  C   UNL     1     -10.342   3.431  -5.441  0.00  0.00    +0.026 C 
ATOM     13  C   UNL     1     -11.794   3.090  -5.099  0.00  0.00    +0.006 C 
ENDBRANCH   9  12
ENDBRANCH   8   9
ENDBRANCH   3   4
BRANCH   3  15
ATOM     14  C   UNL     1      -7.859   6.319  -0.347  0.00  0.00    +0.002 C 
ATOM     15  C   UNL     1      -7.539   6.127  -1.830  0.00  0.00    -0.011 C 
ENDBRANCH   3  15
ENDBRANCH   1   3
BRANCH   1  16
ATOM     16  C   UNL     1      -5.086   5.075  -1.506  0.00  0.00    -0.038 C 
BRANCH  16  17
ATOM     17  C   UNL     1      -3.806   4.392  -1.099  0.00  0.00    -0.022 A 
ATOM     18  C   UNL     1      -3.273   4.612   0.157  0.00  0.00    +0.005 A 
ATOM     19  C   UNL     1      -2.102   3.982   0.532  0.00  0.00    +0.000 A 
ATOM     20  C   UNL     1      -1.454   3.138  -0.351  0.00  0.00    +0.004 A 
ATOM     21  C   UNL     1      -1.980   2.918  -1.609  0.00  0.00    +0.046 A 
ATOM     22  C   UNL     1      -3.158   3.545  -1.987  0.00  0.00    +0.121 A 
BRANCH  22  23
ATOM     23  O   UNL     1      -3.677   3.331  -3.225  0.00  0.00    -0.495 OA
ATOM     24  C   UNL     1      -2.957   2.447  -4.086  0.00  0.00    +0.277 C 
ENDBRANCH  22  23
ENDBRANCH  16  17
ENDBRANCH   1  16
BRANCH   1  25
ATOM     25  C   UNL     1      -6.509   3.775  -0.042  0.00  0.00    -0.036 C 
BRANCH  25  26
ATOM     26  C   UNL     1      -7.232   2.453   0.001  0.00  0.00    +0.001 A 
ATOM     27  C   UNL     1      -6.531   1.306   0.177  0.00  0.00    +0.017 A 
ATOM     28  C   UNL     1      -7.263   0.038   0.210  0.00  0.00    -0.001 A 
ATOM     29  C   UNL     1      -6.593  -1.180   0.373  0.00  0.00    +0.013 A 
ATOM     30  C   UNL     1      -7.304  -2.345   0.400  0.00  0.00    -0.047 A 
ATOM     31  C   UNL     1      -8.686  -2.333   0.266  0.00  0.00    -0.046 A 
ATOM     32  C   UNL     1      -9.367  -1.146   0.104  0.00  0.00    +0.030 A 
ATOM     33  C   UNL     1      -8.663   0.054   0.070  0.00  0.00    +0.049 A 
ATOM     34  N   UNL     1      -9.317   1.256  -0.097  0.00  0.00    -0.322 N 
ATOM     35  H   UNL     1     -10.283   1.266  -0.190  0.00  0.00    +0.169 HD
ATOM     36  C   UNL     1      -8.637   2.415  -0.130  0.00  0.00    +0.251 A 
ATOM     37  O   UNL     1      -9.248   3.459  -0.279  0.00  0.00    -0.268 OA
ATOM     38  C   UNL     1      -9.450  -3.632   0.297  0.00  0.00    +0.044 C 
ATOM     39  C   UNL     1      -6.583  -3.657   0.575  0.00  0.00    +0.044 C 
ENDBRANCH  25  26
ENDBRANCH   1  25
TORSDOF 10
