REMARK  Name = ZINC49353533
REMARK  5 active torsions:
REMARK  status: ('A' for Active; 'I' for Inactive)
REMARK    1  A    between atoms: C_1  and  C_2
REMARK    2  A    between atoms: C_4  and  C_8
REMARK    3  A    between atoms: C_5  and  C_7
REMARK    4  A    between atoms: N_10  and  N_11
REMARK    5  A    between atoms: C_12  and  C_14
REMARK                            x       y       z     vdW  Elec       q    Type
REMARK                         _______ _______ _______ _____ _____    ______ ____
ROOT
ATOM      1  C   UNL     1      -1.364  -3.418  -0.010  0.00  0.00    +0.263 C 
ATOM      2  O   UNL     1      -0.804  -4.497  -0.018  0.00  0.00    -0.269 OA
ATOM      3  N   UNL     1      -2.711  -3.358  -0.003  0.00  0.00    -0.230 N 
ATOM      4  H   UNL     1      -3.158  -2.498   0.003  0.00  0.00    +0.173 HD
ENDROOT
BRANCH   1   8
ATOM      5  C   UNL     1      -0.018   1.503   0.010  0.00  0.00    +0.086 C 
ATOM      6  C   UNL     1       0.002  -0.004   0.002  0.00  0.00    +0.103 A 
ATOM      7  C   UNL     1      -1.081  -0.797   0.003  0.00  0.00    +0.057 A 
ATOM      8  C   UNL     1      -0.571  -2.176  -0.007  0.00  0.00    +0.079 A 
ATOM      9  C   UNL     1       0.788  -2.066  -0.013  0.00  0.00    +0.114 A 
ATOM     10  O   UNL     1       1.106  -0.767  -0.013  0.00  0.00    -0.464 OA
ATOM     11  C   UNL     1       1.766  -3.212  -0.024  0.00  0.00    +0.087 C 
ENDBRANCH   1   8
BRANCH   3  12
ATOM     12  N   UNL     1      -3.464  -4.540  -0.006  0.00  0.00    -0.234 N 
ATOM     13  C   UNL     1      -4.811  -4.480   0.001  0.00  0.00    +0.234 C 
ATOM     14  O   UNL     1      -5.370  -3.403   0.009  0.00  0.00    -0.274 OA
ATOM     15  H   UNL     1      -3.017  -5.400  -0.012  0.00  0.00    +0.173 HD
BRANCH  13  16
ATOM     16  C   UNL     1      -5.622  -5.750  -0.002  0.00  0.00    +0.104 C 
ATOM     17  C   UNL     1      -7.135  -5.427   0.053  0.00  0.00    +0.043 C 
ATOM     18  C   UNL     1      -7.662  -6.509   1.030  0.00  0.00    +0.160 C 
ATOM     19  O   UNL     1      -6.603  -6.629   2.004  0.00  0.00    -0.379 OA
ATOM     20  C   UNL     1      -5.358  -6.561   1.282  0.00  0.00    +0.172 C 
ENDBRANCH  13  16
ENDBRANCH   3  12
TORSDOF 3
