REMARK  Name = ZINC16080874
REMARK  7 active torsions:
REMARK  status: ('A' for Active; 'I' for Inactive)
REMARK    1  A    between atoms: C_5  and  N_7
REMARK    2  A    between atoms: C_8  and  O_10
REMARK    3  A    between atoms: O_10  and  N_11
REMARK    4  A    between atoms: C_12  and  C_13
REMARK    5  A    between atoms: C_16  and  C_19
REMARK    6  A    between atoms: C_19  and  N_20
REMARK    7  A    between atoms: C_22  and  C_27
REMARK                            x       y       z     vdW  Elec       q    Type
REMARK                         _______ _______ _______ _____ _____    ______ ____
ROOT
ATOM      1  C   UNL     1      -2.610  -6.631   0.502  0.00  0.00    +0.018 A 
ATOM      2  C   UNL     1      -3.756  -5.836   0.501  0.00  0.00    +0.012 A 
ATOM      3  C   UNL     1      -5.000  -6.424   0.607  0.00  0.00    +0.006 A 
ATOM      4  C   UNL     1      -5.111  -7.799   0.716  0.00  0.00    -0.028 A 
ATOM      5  C   UNL     1      -3.978  -8.592   0.718  0.00  0.00    +0.006 A 
ATOM      6  C   UNL     1      -2.729  -8.017   0.607  0.00  0.00    +0.012 A 
ENDROOT
BRANCH   1   8
ATOM      7  N   UNL     1      -1.164  -4.713   0.291  0.00  0.00    -0.057 NA
ATOM      8  C   UNL     1      -1.272  -6.006   0.388  0.00  0.00    +0.163 C 
ATOM      9  N   UNL     1      -0.138  -6.797   0.384  0.00  0.00    -0.340 N 
ATOM     10  H   UNL     1       0.739  -6.388   0.309  0.00  0.00    +0.144 HD
ATOM     11  H   UNL     1      -0.218  -7.761   0.457  0.00  0.00    +0.144 HD
BRANCH   7  12
ATOM     12  O   UNL     1       0.115  -4.115   0.181  0.00  0.00    -0.297 OA
BRANCH  12  14
ATOM     13  N   UNL     1       1.237  -2.080  -0.021  0.00  0.00    -0.248 N 
ATOM     14  C   UNL     1       0.086  -2.773   0.088  0.00  0.00    +0.430 C 
ATOM     15  O   UNL     1      -0.978  -2.186   0.102  0.00  0.00    -0.224 OA
ATOM     16  H   UNL     1       2.079  -2.551  -0.115  0.00  0.00    +0.158 HD
BRANCH  13  21
ATOM     17  C   UNL     1       0.154   1.371   0.643  0.00  0.00    +0.002 A 
ATOM     18  C   UNL     1       1.174   2.086   0.042  0.00  0.00    +0.002 A 
ATOM     19  C   UNL     1       2.215   1.422  -0.581  0.00  0.00    +0.022 A 
ATOM     20  C   UNL     1       2.239   0.040  -0.604  0.00  0.00    +0.062 A 
ATOM     21  C   UNL     1       1.216  -0.681   0.000  0.00  0.00    +0.055 A 
ATOM     22  C   UNL     1       0.172  -0.010   0.624  0.00  0.00    +0.025 A 
ATOM     23 CL   UNL     1       3.545  -0.793  -1.386  0.00  0.00    -0.082 Cl
ENDBRANCH  13  21
ENDBRANCH  12  14
ENDBRANCH   7  12
ENDBRANCH   1   8
BRANCH   4  24
ATOM     24  C   UNL     1      -6.472  -8.435   0.831  0.00  0.00    +0.160 C 
BRANCH  24  25
ATOM     25  N   UNL     1      -6.983  -8.744  -0.507  0.00  0.00    -0.310 N 
ATOM     26  C   UNL     1      -7.714  -7.817  -1.176  0.00  0.00    +0.101 A 
ATOM     27  C   UNL     1      -8.197  -8.079  -2.413  0.00  0.00    +0.071 A 
ATOM     28  C   UNL     1      -7.941  -9.319  -3.016  0.00  0.00    +0.019 A 
ATOM     29  C   UNL     1      -7.206 -10.249  -2.341  0.00  0.00    +0.071 A 
ATOM     30  C   UNL     1      -6.716  -9.942  -1.061  0.00  0.00    +0.252 A 
ATOM     31  O   UNL     1      -6.052 -10.763  -0.448  0.00  0.00    -0.268 OA
BRANCH  27  32
ATOM     32  C   UNL     1      -9.008  -7.040  -3.143  0.00  0.00    +0.419 C 
ATOM     33  F   UNL     1      -8.171  -6.305  -3.989  0.00  0.00    -0.166 F 
ATOM     34  F   UNL     1     -10.001  -7.670  -3.901  0.00  0.00    -0.166 F 
ATOM     35  F   UNL     1      -9.605  -6.179  -2.215  0.00  0.00    -0.166 F 
ENDBRANCH  27  32
ENDBRANCH  24  25
ENDBRANCH   4  24
TORSDOF 7
