REMARK  Name = ZINC67378368
REMARK  6 active torsions:
REMARK  status: ('A' for Active; 'I' for Inactive)
REMARK    1  A    between atoms: C_1  and  C_2
REMARK    2  A    between atoms: C_15  and  C_17
REMARK    3  A    between atoms: N_19  and  C_20
REMARK    4  A    between atoms: C_20  and  C_21
REMARK    5  A    between atoms: C_21  and  C_22
REMARK    6  A    between atoms: N_24  and  C_25
REMARK                            x       y       z     vdW  Elec       q    Type
REMARK                         _______ _______ _______ _____ _____    ______ ____
ROOT
ATOM      1  C   UNL     1      -0.019   1.526   0.010  0.00  0.00    +0.029 C 
ATOM      2  C   UNL     1       0.002  -0.004   0.002  0.00  0.00    +0.088 C 
ATOM      3  C   UNL     1       0.715  -0.496  -1.259  0.00  0.00    +0.118 C 
ATOM      4  C   UNL     1       1.097  -1.944  -1.107  0.00  0.00    +0.219 C 
ATOM      5  O   UNL     1       0.459  -2.800  -1.684  0.00  0.00    -0.275 OA
ATOM      6  N   UNL     1       2.145  -2.297  -0.331  0.00  0.00    -0.284 N 
ATOM      7  C   UNL     1       2.830  -1.333   0.416  0.00  0.00    +0.055 A 
ATOM      8  C   UNL     1       4.213  -1.255   0.378  0.00  0.00    +0.025 A 
ATOM      9  C   UNL     1       4.870  -0.309   1.143  0.00  0.00    +0.002 A 
ATOM     10  C   UNL     1       4.152   0.558   1.947  0.00  0.00    +0.002 A 
ATOM     11  C   UNL     1       2.771   0.494   1.983  0.00  0.00    +0.025 A 
ATOM     12  C   UNL     1       2.105  -0.444   1.211  0.00  0.00    +0.058 A 
ATOM     13  N   UNL     1       0.707  -0.487   1.191  0.00  0.00    -0.259 N 
ATOM     14  C   UNL     1       0.022  -0.966   2.248  0.00  0.00    +0.306 C 
ATOM     15  O   UNL     1      -1.192  -0.998   2.220  0.00  0.00    -0.265 OA
ATOM     16  H   UNL     1       2.424  -3.225  -0.292  0.00  0.00    +0.155 HD
ENDROOT
BRANCH  14  17
ATOM     17  C   UNL     1       0.755  -1.455   3.453  0.00  0.00    +0.300 C 
ATOM     18  O   UNL     1       1.968  -1.423   3.481  0.00  0.00    -0.265 OA
ATOM     19  N   UNL     1       0.069  -1.933   4.511  0.00  0.00    -0.307 N 
ATOM     20  H   UNL     1      -0.900  -1.960   4.489  0.00  0.00    +0.149 HD
BRANCH  19  21
ATOM     21  C   UNL     1       0.788  -2.414   5.693  0.00  0.00    +0.114 C 
BRANCH  21  22
ATOM     22  C   UNL     1      -0.217  -2.899   6.739  0.00  0.00    +0.114 C 
BRANCH  22  23
ATOM     23  C   UNL     1       0.522  -3.393   7.956  0.00  0.00    +0.215 C 
ATOM     24  O   UNL     1       1.734  -3.361   7.983  0.00  0.00    -0.276 OA
ATOM     25  N   UNL     1      -0.163  -3.871   9.013  0.00  0.00    -0.312 N 
ATOM     26  H   UNL     1      -1.133  -3.897   8.991  0.00  0.00    +0.149 HD
BRANCH  25  27
ATOM     27  C   UNL     1       0.556  -4.352  10.196  0.00  0.00    +0.073 C 
ATOM     28  C   UNL     1       0.912  -5.843  10.028  0.00  0.00    +0.022 C 
ATOM     29  C   UNL     1       0.737  -6.437  11.448  0.00  0.00    +0.002 C 
ATOM     30  C   UNL     1      -0.508  -5.686  11.982  0.00  0.00    +0.002 C 
ATOM     31  C   UNL     1      -0.347  -4.252  11.438  0.00  0.00    +0.022 C 
ENDBRANCH  25  27
ENDBRANCH  22  23
ENDBRANCH  21  22
ENDBRANCH  19  21
ENDBRANCH  14  17
TORSDOF 5
