REMARK  Name = ZINC00818695
REMARK  7 active torsions:
REMARK  status: ('A' for Active; 'I' for Inactive)
REMARK    1  A    between atoms: C_1  and  C_2
REMARK    2  A    between atoms: C_9  and  N_30
REMARK    3  A    between atoms: C_10  and  C_28
REMARK    4  A    between atoms: C_11  and  C_13
REMARK    5  A    between atoms: C_16  and  O_19
REMARK    6  A    between atoms: O_19  and  C_20
REMARK    7  A    between atoms: C_20  and  C_21
REMARK                            x       y       z     vdW  Elec       q    Type
REMARK                         _______ _______ _______ _____ _____    ______ ____
ROOT
ATOM      1  C   UNL     1      -2.471  -0.530  -0.508  0.00  0.00    +0.068 C 
ATOM      2  C   UNL     1      -1.039  -0.896  -0.218  0.00  0.00    +0.068 A 
ATOM      3  C   UNL     1       0.002  -0.004   0.002  0.00  0.00    +0.049 A 
ATOM      4  C   UNL     1       1.140  -0.728   0.229  0.00  0.00    +0.222 A 
ATOM      5  N   UNL     1       0.815  -2.028   0.153  0.00  0.00    -0.246 N 
ATOM      6  H   UNL     1       1.440  -2.799   0.276  0.00  0.00    +0.192 HD
ATOM      7  N   UNL     1      -0.557  -2.114  -0.129  0.00  0.00    -0.176 NA
ATOM      8  O   UNL     1       2.340  -0.147   0.476  0.00  0.00    -0.423 OA
ATOM      9  C   UNL     1       2.458   1.173   0.225  0.00  0.00    +0.200 C 
ATOM     10  C   UNL     1       1.408   1.993  -0.001  0.00  0.00    +0.098 C 
ATOM     11  C   UNL     1      -0.018   1.503   0.010  0.00  0.00    +0.101 C 
ENDROOT
BRANCH  11  12
ATOM     12  C   UNL     1      -0.716   1.995   1.252  0.00  0.00    -0.034 A 
ATOM     13  C   UNL     1      -0.223   1.659   2.500  0.00  0.00    +0.008 A 
ATOM     14  C   UNL     1      -0.857   2.114   3.640  0.00  0.00    +0.046 A 
ATOM     15  C   UNL     1      -1.996   2.898   3.532  0.00  0.00    +0.121 A 
ATOM     16  C   UNL     1      -2.492   3.229   2.279  0.00  0.00    +0.046 A 
ATOM     17  C   UNL     1      -1.851   2.777   1.143  0.00  0.00    +0.008 A 
BRANCH  15  18
ATOM     18  O   UNL     1      -2.626   3.341   4.652  0.00  0.00    -0.483 OA
BRANCH  18  19
ATOM     19  C   UNL     1      -2.059   2.962   5.908  0.00  0.00    +0.324 C 
BRANCH  19  20
ATOM     20  C   UNL     1      -2.885   3.541   7.027  0.00  0.00    +0.253 C 
ATOM     21  O   UNL     1      -3.863   4.212   6.775  0.00  0.00    -0.272 OA
ATOM     22  N   UNL     1      -2.538   3.312   8.309  0.00  0.00    -0.299 N 
ATOM     23  C   UNL     1      -1.386   2.515   8.756  0.00  0.00    +0.108 C 
ATOM     24  C   UNL     1      -1.401   2.511  10.299  0.00  0.00    +0.020 C 
ATOM     25  C   UNL     1      -2.884   2.826  10.630  0.00  0.00    +0.020 C 
ATOM     26  C   UNL     1      -3.253   3.815   9.496  0.00  0.00    +0.108 C 
ENDBRANCH  19  20
ENDBRANCH  18  19
ENDBRANCH  15  18
ENDBRANCH  11  12
BRANCH   9  27
ATOM     27  N   UNL     1       3.719   1.715   0.199  0.00  0.00    -0.328 N 
ATOM     28  H   UNL     1       4.493   1.152   0.357  0.00  0.00    +0.145 HD
ATOM     29  H   UNL     1       3.836   2.662   0.021  0.00  0.00    +0.145 HD
ENDBRANCH   9  27
BRANCH  10  30
ATOM     30  C   UNL     1       1.659   3.379  -0.260  0.00  0.00    +0.101 C 
ATOM     31  N   UNL     1       1.857   4.478  -0.466  0.00  0.00    -0.191 NA
ENDBRANCH  10  30
TORSDOF 6
