REMARK  Name = ZINC20685104
REMARK  6 active torsions:
REMARK  status: ('A' for Active; 'I' for Inactive)
REMARK    1  A    between atoms: C_1  and  C_2
REMARK    2  A    between atoms: C_2  and  N_3
REMARK    3  A    between atoms: C_14  and  C_16
REMARK    4  A    between atoms: C_27  and  O_32
REMARK    5  A    between atoms: O_32  and  C_33
REMARK    6  A    between atoms: C_33  and  C_34
REMARK                            x       y       z     vdW  Elec       q    Type
REMARK                         _______ _______ _______ _____ _____    ______ ____
ROOT
ATOM      1  C   UNL     1       0.528   8.942   0.042  0.00  0.00    +0.105 C 
ATOM      2  C   UNL     1       0.587   9.523  -1.360  0.00  0.00    +0.029 C 
ATOM      3  C   UNL     1       1.393   8.742  -2.407  0.00  0.00    +0.033 C 
ATOM      4  C   UNL     1       1.861   9.864  -3.336  0.00  0.00    -0.030 C 
ATOM      5  C   UNL     1       1.916  11.011  -2.670  0.00  0.00    -0.023 C 
ATOM      6  C   UNL     1       1.530  10.759  -1.258  0.00  0.00    +0.049 C 
ATOM      7  C   UNL     1       0.852  11.784  -0.436  0.00  0.00    -0.016 A 
ATOM      8  C   UNL     1       0.984  13.134  -0.680  0.00  0.00    +0.051 A 
ATOM      9  C   UNL     1       0.340  14.057   0.129  0.00  0.00    +0.121 A 
ATOM     10  C   UNL     1      -0.440  13.620   1.190  0.00  0.00    +0.047 A 
ATOM     11  C   UNL     1      -0.580  12.270   1.436  0.00  0.00    +0.027 A 
ATOM     12  C   UNL     1       0.056  11.338   0.625  0.00  0.00    +0.032 A 
ATOM     13  N   UNL     1      -0.134   9.970   0.873  0.00  0.00    -0.336 N 
ATOM     14  H   UNL     1      -0.790   9.668   1.703  0.00  0.00    +0.147 HD
ENDROOT
BRANCH   1  26
ATOM     15  N   UNL     1      -2.286   4.045   0.045  0.00  0.00    -0.340 N 
ATOM     16  C   UNL     1      -1.245   3.134   0.030  0.00  0.00    +0.050 A 
ATOM     17  C   UNL     1      -1.218   1.743   0.017  0.00  0.00    +0.026 A 
ATOM     18  C   UNL     1      -0.013   1.076   0.008  0.00  0.00    +0.002 A 
ATOM     19  C   UNL     1       1.182   1.780   0.000  0.00  0.00    +0.001 A 
ATOM     20  C   UNL     1       1.176   3.158   0.007  0.00  0.00    +0.010 A 
ATOM     21  C   UNL     1      -0.036   3.845   0.022  0.00  0.00    +0.008 A 
ATOM     22  C   UNL     1      -0.391   5.276   0.033  0.00  0.00    +0.008 A 
ATOM     23  C   UNL     1      -1.793   5.337   0.047  0.00  0.00    +0.050 A 
ATOM     24  C   UNL     1      -2.420   6.579   0.059  0.00  0.00    +0.027 A 
ATOM     25  C   UNL     1      -1.666   7.733   0.058  0.00  0.00    +0.007 A 
ATOM     26  C   UNL     1      -0.281   7.670   0.044  0.00  0.00    -0.026 A 
ATOM     27  C   UNL     1       0.358   6.449   0.032  0.00  0.00    +0.016 A 
BRANCH  15  29
ATOM     28  C   UNL     1      -4.216   3.576  -1.383  0.00  0.00    +0.027 C 
ATOM     29  C   UNL     1      -3.708   3.692   0.056  0.00  0.00    +0.119 C 
ENDBRANCH  15  29
ENDBRANCH   1  26
BRANCH   9  30
ATOM     30  O   UNL     1       0.472  15.388  -0.116  0.00  0.00    -0.489 OA
BRANCH  30  31
ATOM     31  C   UNL     1      -0.220  16.281   0.759  0.00  0.00    +0.260 C 
BRANCH  31  32
ATOM     32  C   UNL     1       0.046  17.725   0.329  0.00  0.00    +0.156 C 
ATOM     33  C   UNL     1      -0.794  18.691   1.186  0.00  0.00    +0.037 C 
ATOM     34  C   UNL     1       0.253  19.614   1.855  0.00  0.00    +0.031 C 
ATOM     35  C   UNL     1       1.478  19.447   0.920  0.00  0.00    +0.160 C 
ATOM     36  O   UNL     1       1.429  18.053   0.546  0.00  0.00    -0.373 OA
ENDBRANCH  31  32
ENDBRANCH  30  31
ENDBRANCH   9  30
TORSDOF 5
