REMARK  Name = ZINC06301589
REMARK  8 active torsions:
REMARK  status: ('A' for Active; 'I' for Inactive)
REMARK    1  A    between atoms: C_1  and  C_2
REMARK    2  A    between atoms: C_4  and  C_38
REMARK    3  A    between atoms: C_7  and  C_14
REMARK    4  A    between atoms: C_14  and  C_16
REMARK    5  A    between atoms: C_14  and  N_73
REMARK    6  A    between atoms: N_20  and  C_21
REMARK    7  A    between atoms: C_28  and  C_31
REMARK    8  A    between atoms: C_31  and  C_32
REMARK                            x       y       z     vdW  Elec       q    Type
REMARK                         _______ _______ _______ _____ _____    ______ ____
ROOT
ATOM      1  C   UNL     1       4.873   4.287  -0.024  0.00  0.00    +0.039 C 
ENDROOT
BRANCH   1   8
ATOM      2  C   UNL     1      -1.297  -0.767   0.010  0.00  0.00    +0.044 C 
ATOM      3  C   UNL     1       0.002  -0.004   0.002  0.00  0.00    -0.048 A 
ATOM      4  C   UNL     1       1.205  -0.697  -0.013  0.00  0.00    +0.007 A 
ATOM      5  C   UNL     1       2.394  -0.024  -0.020  0.00  0.00    -0.041 A 
ATOM      6  C   UNL     1       2.400   1.375  -0.013  0.00  0.00    +0.002 A 
ATOM      7  C   UNL     1       3.656   2.127  -0.022  0.00  0.00    +0.018 A 
ATOM      8  C   UNL     1       3.599   3.482  -0.015  0.00  0.00    +0.011 A 
ATOM      9  C   UNL     1       2.351   4.141   0.001  0.00  0.00    +0.251 A 
ATOM     10  O   UNL     1       2.323   5.360   0.007  0.00  0.00    -0.268 OA
ATOM     11  N   UNL     1       1.193   3.459   0.009  0.00  0.00    -0.322 N 
ATOM     12  H   UNL     1       0.353   3.944   0.019  0.00  0.00    +0.169 HD
ATOM     13  C   UNL     1       1.182   2.080   0.002  0.00  0.00    +0.050 A 
ATOM     14  C   UNL     1      -0.017   1.374   0.010  0.00  0.00    +0.029 A 
ATOM     15  C   UNL     1       3.695  -0.785  -0.036  0.00  0.00    +0.044 C 
ENDBRANCH   1   8
BRANCH   1  21
ATOM     16  C   UNL     1       4.568   4.511   2.367  0.00  0.00    -0.077 C 
ATOM     17  C   UNL     1       4.435   5.526   3.505  0.00  0.00    -0.015 C 
ATOM     18  C   UNL     1       5.745   6.306   3.643  0.00  0.00    -0.010 C 
ATOM     19  C   UNL     1       6.066   6.990   2.311  0.00  0.00    -0.015 C 
ATOM     20  C   UNL     1       6.152   5.932   1.208  0.00  0.00    -0.077 C 
ATOM     21  N   UNL     1       4.853   5.234   1.110  0.00  0.00    +0.389 N 
ATOM     22  H   UNL     1       4.113   5.928   0.950  0.00  0.00    -0.080 HD
BRANCH  18  23
ATOM     23  C   UNL     1       5.597   7.364   4.738  0.00  0.00    +0.038 C 
BRANCH  23  24
ATOM     24  C   UNL     1       5.404   6.685   6.069  0.00  0.00    -0.047 A 
ATOM     25  C   UNL     1       4.130   6.388   6.515  0.00  0.00    +0.003 A 
ATOM     26  C   UNL     1       3.953   5.761   7.734  0.00  0.00    +0.000 A 
ATOM     27  C   UNL     1       5.049   5.441   8.512  0.00  0.00    +0.000 A 
ATOM     28  C   UNL     1       6.323   5.743   8.069  0.00  0.00    +0.000 A 
ATOM     29  C   UNL     1       6.501   6.366   6.848  0.00  0.00    +0.003 A 
ENDBRANCH  23  24
ENDBRANCH  18  23
ENDBRANCH   1  21
BRANCH   1  30
ATOM     30  C   UNL     1       4.965   5.069  -1.309  0.00  0.00    +0.143 A 
ATOM     31  N   UNL     1       4.287   6.147  -1.619  0.00  0.00    -0.115 NA
ATOM     32  N   UNL     1       4.646   6.517  -2.800  0.00  0.00    -0.023 NA
ATOM     33  N   UNL     1       5.535   5.703  -3.251  0.00  0.00    -0.044 NA
ATOM     34  N   UNL     1       5.762   4.799  -2.359  0.00  0.00    -0.227 N 
BRANCH  34  35
ATOM     35  C   UNL     1       6.708   3.686  -2.470  0.00  0.00    +0.111 C 
ATOM     36  C   UNL     1       8.131   4.225  -2.724  0.00  0.00    +0.027 C 
ATOM     37  C   UNL     1       8.755   3.200  -3.705  0.00  0.00    +0.002 C 
ATOM     38  C   UNL     1       7.564   2.841  -4.628  0.00  0.00    +0.002 C 
ATOM     39  C   UNL     1       6.348   2.806  -3.679  0.00  0.00    +0.027 C 
ENDBRANCH  34  35
ENDBRANCH   1  30
TORSDOF 6
