REMARK  Name = ZINC41027175
REMARK  6 active torsions:
REMARK  status: ('A' for Active; 'I' for Inactive)
REMARK    1  A    between atoms: C_3  and  N_19
REMARK    2  A    between atoms: C_6  and  C_7
REMARK    3  A    between atoms: C_7  and  C_8
REMARK    4  A    between atoms: C_8  and  S_9
REMARK    5  A    between atoms: S_9  and  C_10
REMARK    6  A    between atoms: C_16  and  N_18
REMARK                            x       y       z     vdW  Elec       q    Type
REMARK                         _______ _______ _______ _____ _____    ______ ____
ROOT
ATOM      1  S   UNL     1      -3.306  -1.952  -1.418  0.00  0.00    -0.087 S 
ENDROOT
BRANCH   1   2
ATOM      2  C   UNL     1      -3.689  -2.161  -3.125  0.00  0.00    +0.171 A 
ATOM      3  N   UNL     1      -4.825  -2.825  -3.478  0.00  0.00    -0.302 N 
ATOM      4  H   UNL     1      -5.413  -3.177  -2.791  0.00  0.00    +0.171 HD
ATOM      5  C   UNL     1      -5.135  -2.994  -4.780  0.00  0.00    +0.254 A 
ATOM      6  O   UNL     1      -6.151  -3.588  -5.105  0.00  0.00    -0.268 OA
ATOM      7  C   UNL     1      -4.272  -2.477  -5.752  0.00  0.00    +0.113 A 
ATOM      8  C   UNL     1      -3.127  -1.809  -5.341  0.00  0.00    +0.124 A 
ATOM      9  N   UNL     1      -2.875  -1.667  -4.035  0.00  0.00    -0.209 NA
BRANCH   8  10
ATOM     10  N   UNL     1      -2.256  -1.287  -6.276  0.00  0.00    -0.343 N 
ATOM     11  H   UNL     1      -2.443  -1.388  -7.222  0.00  0.00    +0.144 HD
ATOM     12  H   UNL     1      -1.456  -0.821  -5.986  0.00  0.00    +0.144 HD
ENDBRANCH   8  10
ENDBRANCH   1   2
BRANCH   1  13
ATOM     13  C   UNL     1      -1.746  -1.026  -1.429  0.00  0.00    +0.082 C 
BRANCH  13  14
ATOM     14  C   UNL     1      -1.294  -0.774   0.011  0.00  0.00    +0.046 C 
BRANCH  14  20
ATOM     15  C   UNL     1      -0.017   1.379   0.010  0.00  0.00    +0.005 A 
ATOM     16  C   UNL     1       1.169   2.087   0.002  0.00  0.00    +0.023 A 
ATOM     17  C   UNL     1       2.381   1.409  -0.013  0.00  0.00    +0.025 A 
ATOM     18  C   UNL     1       2.396   0.020  -0.021  0.00  0.00    +0.023 A 
ATOM     19  C   UNL     1       1.207  -0.682  -0.013  0.00  0.00    +0.005 A 
ATOM     20  C   UNL     1       0.002  -0.004   0.002  0.00  0.00    -0.046 A 
BRANCH  17  21
ATOM     21  N   UNL     1       3.582   2.122  -0.021  0.00  0.00    -0.358 N 
ATOM     22  H   UNL     1       3.570   3.092  -0.016  0.00  0.00    +0.142 HD
ATOM     23  H   UNL     1       4.428   1.647  -0.032  0.00  0.00    +0.142 HD
ENDBRANCH  17  21
ENDBRANCH  14  20
ENDBRANCH  13  14
ENDBRANCH   1  13
TORSDOF 6
