REMARK  Name = ZINC37626068
REMARK  6 active torsions:
REMARK  status: ('A' for Active; 'I' for Inactive)
REMARK    1  A    between atoms: C_1  and  C_2
REMARK    2  A    between atoms: C_5  and  N_9
REMARK    3  A    between atoms: C_10  and  C_12
REMARK    4  A    between atoms: C_12  and  C_14
REMARK    5  A    between atoms: C_12  and  N_18
REMARK    6  A    between atoms: C_14  and  C_15
REMARK                            x       y       z     vdW  Elec       q    Type
REMARK                         _______ _______ _______ _____ _____    ______ ____
ROOT
ATOM      1  N   UNL     1       0.059  -4.172  -0.021  0.00  0.00    -0.285 N 
ATOM      2  C   UNL     1       0.473  -4.846   1.070  0.00  0.00    +0.203 C 
ATOM      3  O   UNL     1       0.743  -4.245   2.088  0.00  0.00    -0.277 OA
ATOM      4  H   UNL     1      -0.226  -4.656  -0.811  0.00  0.00    +0.155 HD
ENDROOT
BRANCH   1   9
ATOM      5  C   UNL     1      -0.015   1.503   0.011  0.00  0.00    +0.044 C 
ATOM      6  C   UNL     1       0.005  -0.004   0.002  0.00  0.00    -0.048 A 
ATOM      7  C   UNL     1      -1.117  -0.711   0.394  0.00  0.00    +0.020 A 
ATOM      8  C   UNL     1      -1.103  -2.093   0.388  0.00  0.00    +0.040 A 
ATOM      9  C   UNL     1       0.041  -2.772  -0.013  0.00  0.00    +0.062 A 
ATOM     10  C   UNL     1       1.166  -2.058  -0.407  0.00  0.00    +0.040 A 
ATOM     11  C   UNL     1       1.143  -0.677  -0.403  0.00  0.00    +0.020 A 
ATOM     12 BR   UNL     1       2.726  -2.977  -0.954  0.00  0.00    -0.048 Br
ATOM     13 BR   UNL     1      -2.637  -3.058   0.925  0.00  0.00    -0.048 Br
ENDBRANCH   1   9
BRANCH   2  14
ATOM     14  C   UNL     1       0.601  -6.347   1.025  0.00  0.00    +0.022 C 
BRANCH  14  15
ATOM     15  N   UNL     1       1.490  -6.795   2.105  0.00  0.00    +0.386 N 
ATOM     16  H   UNL     1       2.400  -6.377   1.988  0.00  0.00    -0.089 HD
ATOM     17  H   UNL     1       1.104  -6.518   2.995  0.00  0.00    -0.089 HD
ATOM     18  H   UNL     1       1.575  -7.800   2.075  0.00  0.00    -0.089 HD
ENDBRANCH  14  15
BRANCH  14  19
ATOM     19  C   UNL     1      -0.779  -6.982   1.203  0.00  0.00    +0.088 C 
BRANCH  19  20
ATOM     20  C   UNL     1      -0.670  -8.476   1.035  0.00  0.00    +0.209 C 
ATOM     21  O   UNL     1       0.406  -8.982   0.797  0.00  0.00    -0.276 OA
ATOM     22  N   UNL     1      -1.768  -9.248   1.150  0.00  0.00    -0.329 N 
ATOM     23  H   UNL     1      -2.629  -8.843   1.341  0.00  0.00    +0.145 HD
ATOM     24  H   UNL     1      -1.698 -10.210   1.042  0.00  0.00    +0.145 HD
ENDBRANCH  19  20
ENDBRANCH  14  19
ENDBRANCH   2  14
TORSDOF 5
