REMARK  Name = ZINC39635117
REMARK  10 active torsions:
REMARK  status: ('A' for Active; 'I' for Inactive)
REMARK    1  A    between atoms: C_1  and  C_2
REMARK    2  A    between atoms: C_12  and  O_13
REMARK    3  A    between atoms: O_13  and  C_14
REMARK    4  A    between atoms: C_14  and  C_15
REMARK    5  A    between atoms: C_19  and  C_28
REMARK    6  A    between atoms: N_30  and  C_31
REMARK    7  A    between atoms: C_31  and  C_32
REMARK    8  A    between atoms: C_32  and  C_33
REMARK    9  A    between atoms: C_36  and  O_39
REMARK   10  A    between atoms: O_39  and  C_40
REMARK                            x       y       z     vdW  Elec       q    Type
REMARK                         _______ _______ _______ _____ _____    ______ ____
ROOT
ATOM      1  C   UNL     1       0.143  -6.578   3.309  0.00  0.00    +0.253 C 
ATOM      2  O   UNL     1       0.089  -7.039   2.188  0.00  0.00    -0.272 OA
ATOM      3  N   UNL     1       0.125  -7.399   4.377  0.00  0.00    -0.297 N 
ATOM      4  C   UNL     1       0.175  -7.025   5.810  0.00  0.00    +0.121 C 
ATOM      5  C   UNL     1      -0.808  -7.996   6.502  0.00  0.00    +0.100 C 
ATOM      6  C   UNL     1      -0.885  -9.211   5.562  0.00  0.00    -0.004 C 
ATOM      7  C   UNL     1       0.043  -8.879   4.385  0.00  0.00    +0.115 C 
ATOM      8  C   UNL     1      -0.400 -10.466   6.281  0.00  0.00    -0.010 C 
ATOM      9  C   UNL     1      -0.541 -11.671   5.346  0.00  0.00    -0.082 C 
ATOM     10  N   UNL     1      -1.946 -11.823   4.948  0.00  0.00    +0.379 N 
ATOM     11  C   UNL     1      -2.377 -10.651   4.177  0.00  0.00    -0.082 C 
ATOM     12  C   UNL     1      -2.314  -9.403   5.063  0.00  0.00    -0.010 C 
ATOM     13  H   UNL     1      -2.046 -12.652   4.382  0.00  0.00    -0.086 HD
ATOM     14  H   UNL     1      -2.519 -11.911   5.773  0.00  0.00    -0.086 HD
ENDROOT
BRANCH   5  15
ATOM     15  C   UNL     1      -0.279  -8.406   7.852  0.00  0.00    +0.218 C 
ATOM     16  O   UNL     1       0.917  -8.472   8.040  0.00  0.00    -0.275 OA
ATOM     17  N   UNL     1      -1.135  -8.700   8.850  0.00  0.00    -0.315 N 
ATOM     18  H   UNL     1      -2.092  -8.648   8.700  0.00  0.00    +0.149 HD
BRANCH  17  19
ATOM     19  C   UNL     1      -0.621  -9.099  10.162  0.00  0.00    +0.109 C 
BRANCH  19  20
ATOM     20  C   UNL     1      -1.792  -9.375  11.107  0.00  0.00    +0.054 C 
BRANCH  20  21
ATOM     21  C   UNL     1      -1.262  -9.785  12.457  0.00  0.00    -0.046 A 
ATOM     22  C   UNL     1      -1.023 -11.120  12.728  0.00  0.00    +0.007 A 
ATOM     23  C   UNL     1      -0.538 -11.498  13.965  0.00  0.00    +0.046 A 
ATOM     24  C   UNL     1      -0.291 -10.538  14.936  0.00  0.00    +0.120 A 
ATOM     25  C   UNL     1      -0.532  -9.200  14.661  0.00  0.00    +0.046 A 
ATOM     26  C   UNL     1      -1.012  -8.826  13.421  0.00  0.00    +0.007 A 
BRANCH  24  27
ATOM     27  O   UNL     1       0.185 -10.908  16.154  0.00  0.00    -0.495 OA
ATOM     28  C   UNL     1       0.417  -9.866  17.104  0.00  0.00    +0.277 C 
ENDBRANCH  24  27
ENDBRANCH  20  21
ENDBRANCH  19  20
ENDBRANCH  17  19
ENDBRANCH   5  15
BRANCH   1  29
ATOM     29  C   UNL     1       0.231  -5.086   3.506  0.00  0.00    +0.324 C 
BRANCH  29  30
ATOM     30  O   UNL     1       0.235  -4.437   2.233  0.00  0.00    -0.479 OA
BRANCH  30  42
ATOM     31  C   UNL     1       0.488   1.252  -0.264  0.00  0.00    +0.045 C 
ATOM     32  C   UNL     1       0.405  -0.252  -0.231  0.00  0.00    -0.033 A 
ATOM     33  C   UNL     1       0.336  -0.972  -1.380  0.00  0.00    +0.096 A 
ATOM     34  C   UNL     1       0.260  -2.380  -1.321  0.00  0.00    +0.338 A 
ATOM     35  O   UNL     1       0.199  -3.015  -2.359  0.00  0.00    -0.245 OA
ATOM     36  O   UNL     1       0.253  -3.038  -0.152  0.00  0.00    -0.418 OA
ATOM     37  C   UNL     1       0.319  -2.381   1.027  0.00  0.00    +0.181 A 
ATOM     38  C   UNL     1       0.402  -0.979   1.042  0.00  0.00    +0.024 A 
ATOM     39  C   UNL     1       0.476  -0.296   2.261  0.00  0.00    +0.012 A 
ATOM     40  C   UNL     1       0.472  -1.005   3.441  0.00  0.00    +0.004 A 
ATOM     41  C   UNL     1       0.395  -2.389   3.429  0.00  0.00    +0.049 A 
ATOM     42  C   UNL     1       0.310  -3.079   2.232  0.00  0.00    +0.164 A 
ENDBRANCH  30  42
ENDBRANCH  29  30
ENDBRANCH   1  29
TORSDOF 8
