REMARK  Name = ZINC64215775
REMARK  13 active torsions:
REMARK  status: ('A' for Active; 'I' for Inactive)
REMARK    1  A    between atoms: C_1  and  C_2
REMARK    2  A    between atoms: C_2  and  N_3
REMARK    3  A    between atoms: N_3  and  C_4
REMARK    4  A    between atoms: N_3  and  S_6
REMARK    5  A    between atoms: C_4  and  C_5
REMARK    6  A    between atoms: S_6  and  C_9
REMARK    7  A    between atoms: C_12  and  N_29
REMARK    8  A    between atoms: C_13  and  N_15
REMARK    9  A    between atoms: C_16  and  C_18
REMARK   10  A    between atoms: C_18  and  C_19
REMARK   11  A    between atoms: C_19  and  C_20
REMARK   12  A    between atoms: N_29  and  C_30
REMARK   13  A    between atoms: N_29  and  C_31
REMARK                            x       y       z     vdW  Elec       q    Type
REMARK                         _______ _______ _______ _____ _____    ______ ____
ROOT
ATOM      1  C   UNL     1      -0.337   0.562  -3.540  0.00  0.00    +0.107 A 
ATOM      2  C   UNL     1      -1.411   1.409  -3.342  0.00  0.00    +0.030 A 
ATOM      3  C   UNL     1      -1.539   2.559  -4.098  0.00  0.00    +0.027 A 
ATOM      4  C   UNL     1      -0.587   2.867  -5.059  0.00  0.00    +0.051 A 
ATOM      5  C   UNL     1       0.497   2.013  -5.259  0.00  0.00    +0.056 A 
ATOM      6  C   UNL     1       0.620   0.864  -4.492  0.00  0.00    +0.053 A 
ENDROOT
BRANCH   5   7
ATOM      7  N   UNL     1       1.462   2.317  -6.228  0.00  0.00    -0.284 N 
ATOM      8  C   UNL     1       2.756   2.004  -6.013  0.00  0.00    +0.218 C 
ATOM      9  O   UNL     1       3.073   1.387  -5.018  0.00  0.00    -0.275 OA
ATOM     10  H   UNL     1       1.200   2.753  -7.054  0.00  0.00    +0.155 HD
BRANCH   8  11
ATOM     11  C   UNL     1       3.807   2.420  -7.009  0.00  0.00    +0.100 C 
BRANCH  11  12
ATOM     12  C   UNL     1       5.180   1.944  -6.530  0.00  0.00    +0.042 C 
BRANCH  12  13
ATOM     13  C   UNL     1       6.232   2.360  -7.526  0.00  0.00    -0.041 C 
ATOM     14  C   UNL     1       7.006   3.468  -7.475  0.00  0.00    -0.001 A 
ATOM     15  C   UNL     1       7.096   4.576  -6.516  0.00  0.00    +0.010 A 
ATOM     16  C   UNL     1       7.989   5.567  -6.740  0.00  0.00    +0.001 A 
ATOM     17  C   UNL     1       8.828   5.563  -7.863  0.00  0.00    +0.002 A 
ATOM     18  C   UNL     1       8.803   4.580  -8.788  0.00  0.00    +0.026 A 
ATOM     19  C   UNL     1       7.903   3.487  -8.652  0.00  0.00    +0.043 A 
ATOM     20  N   UNL     1       7.693   2.432  -9.401  0.00  0.00    -0.380 N 
ATOM     21  C   UNL     1       6.640   1.620  -8.780  0.00  0.00    +0.144 C 
ATOM     22  H   UNL     1       8.157   2.221 -10.226  0.00  0.00    +0.160 HD
ENDBRANCH  12  13
ENDBRANCH  11  12
ENDBRANCH   8  11
ENDBRANCH   5   7
BRANCH   1  23
ATOM     23  S   UNL     1      -0.182  -0.902  -2.573  0.00  0.00    +0.061 S 
ATOM     24  O   UNL     1       0.624  -1.801  -3.322  0.00  0.00    -0.153 OA
ATOM     25  O   UNL     1      -1.490  -1.238  -2.132  0.00  0.00    -0.153 OA
BRANCH  23  26
ATOM     26  N   UNL     1       0.686  -0.505  -1.219  0.00  0.00    -0.177 NA
BRANCH  26  28
ATOM     27  C   UNL     1      -0.036   1.487   0.001  0.00  0.00    +0.022 C 
ATOM     28  C   UNL     1      -0.006  -0.042  -0.014  0.00  0.00    +0.106 C 
ENDBRANCH  26  28
BRANCH  26  29
ATOM     29  C   UNL     1       2.147  -0.616  -1.228  0.00  0.00    +0.106 C 
ATOM     30  C   UNL     1       2.558  -1.972  -0.648  0.00  0.00    +0.022 C 
ENDBRANCH  26  29
ENDBRANCH  23  26
ENDBRANCH   1  23
BRANCH   4  31
ATOM     31  N   UNL     1      -0.714   4.030  -5.825  0.00  0.00    -0.335 N 
ATOM     32  C   UNL     1      -0.114   5.283  -5.360  0.00  0.00    +0.129 C 
ATOM     33  C   UNL     1      -1.447   3.996  -7.093  0.00  0.00    +0.129 C 
ENDBRANCH   4  31
TORSDOF 9
