REMARK  Name = ZINC14140311
REMARK  7 active torsions:
REMARK  status: ('A' for Active; 'I' for Inactive)
REMARK    1  A    between atoms: C_1  and  C_2
REMARK    2  A    between atoms: C_2  and  C_4
REMARK    3  A    between atoms: C_2  and  N_41
REMARK    4  A    between atoms: N_6  and  C_7
REMARK    5  A    between atoms: C_19  and  N_41
REMARK    6  A    between atoms: C_20  and  C_21
REMARK    7  A    between atoms: C_20  and  N_41
REMARK                            x       y       z     vdW  Elec       q    Type
REMARK                         _______ _______ _______ _____ _____    ______ ____
ROOT
ATOM      1  C   UNL     1       6.212   2.017   2.803  0.00  0.00    +0.203 C 
ATOM      2  O   UNL     1       5.485   1.611   3.685  0.00  0.00    -0.277 OA
ATOM      3  N   UNL     1       7.476   2.388   3.088  0.00  0.00    -0.287 N 
ATOM      4  H   UNL     1       8.080   2.640   2.373  0.00  0.00    +0.155 HD
ENDROOT
BRANCH   3   5
ATOM      5  C   UNL     1       7.916   2.410   4.418  0.00  0.00    +0.035 A 
ATOM      6  C   UNL     1       9.239   2.104   4.716  0.00  0.00    +0.025 A 
ATOM      7  C   UNL     1       9.679   2.124   6.024  0.00  0.00    +0.029 A 
ATOM      8  C   UNL     1       8.799   2.451   7.045  0.00  0.00    +0.067 A 
ATOM      9  C   UNL     1       7.470   2.758   6.749  0.00  0.00    +0.069 A 
ATOM     10  C   UNL     1       7.032   2.743   5.434  0.00  0.00    +0.051 A 
ATOM     11  N   UNL     1       6.842   3.040   7.961  0.00  0.00    -0.306 N 
ATOM     12  H   UNL     1       5.911   3.288   8.073  0.00  0.00    +0.170 HD
ATOM     13  C   UNL     1       7.747   2.909   8.949  0.00  0.00    +0.325 A 
ATOM     14  O   UNL     1       7.524   3.086  10.132  0.00  0.00    -0.247 OA
ATOM     15  N   UNL     1       8.938   2.555   8.429  0.00  0.00    -0.306 N 
ATOM     16  H   UNL     1       9.753   2.398   8.932  0.00  0.00    +0.170 HD
ENDBRANCH   3   5
BRANCH   1  18
ATOM     17  C   UNL     1       5.777   3.557   0.909  0.00  0.00    -0.004 C 
ATOM     18  C   UNL     1       5.702   2.106   1.388  0.00  0.00    +0.016 C 
BRANCH  18  20
ATOM     19  C   UNL     1       3.428   2.557   2.087  0.00  0.00    -0.095 C 
ATOM     20  N   UNL     1       4.306   1.621   1.353  0.00  0.00    +0.388 N 
ATOM     21  H   UNL     1       4.261   0.700   1.803  0.00  0.00    -0.081 HD
BRANCH  20  22
ATOM     22  C   UNL     1       3.850   1.495  -0.047  0.00  0.00    -0.035 C 
BRANCH  22  23
ATOM     23  C   UNL     1       2.515   0.795  -0.062  0.00  0.00    -0.025 A 
ATOM     24  C   UNL     1       1.271   1.331  -0.013  0.00  0.00    +0.011 A 
ATOM     25  C   UNL     1       0.176   0.487  -0.039  0.00  0.00    +0.028 A 
ATOM     26  C   UNL     1       0.380  -0.852  -0.115  0.00  0.00    +0.078 A 
ATOM     27  S   UNL     1       2.162  -0.952  -0.150  0.00  0.00    -0.084 S 
ATOM     28 CL   UNL     1      -0.788  -2.135  -0.164  0.00  0.00    -0.076 Cl
ENDBRANCH  22  23
ENDBRANCH  20  22
ENDBRANCH  18  20
ENDBRANCH   1  18
TORSDOF 5
