REMARK  Name = ZINC08790465
REMARK  5 active torsions:
REMARK  status: ('A' for Active; 'I' for Inactive)
REMARK    1  A    between atoms: C_1  and  O_2
REMARK    2  A    between atoms: O_2  and  C_3
REMARK    3  A    between atoms: C_3  and  C_5
REMARK    4  A    between atoms: C_10  and  N_11
REMARK    5  A    between atoms: C_27  and  C_32
REMARK                            x       y       z     vdW  Elec       q    Type
REMARK                         _______ _______ _______ _____ _____    ______ ____
ROOT
ATOM      1  N   UNL     1      -1.306   2.067   0.904  0.00  0.00    -0.192 N 
ATOM      2  C   UNL     1      -0.135   1.427   1.229  0.00  0.00    +0.248 C 
ATOM      3  O   UNL     1       0.340   1.242   2.329  0.00  0.00    -0.273 OA
ATOM      4  C   UNL     1       0.442   0.988  -0.101  0.00  0.00    +0.170 C 
ATOM      5  C   UNL     1       1.802   1.661  -0.319  0.00  0.00    +0.069 C 
ATOM      6  C   UNL     1       2.092   1.738  -1.797  0.00  0.00    -0.015 A 
ATOM      7  C   UNL     1       3.381   1.929  -2.435  0.00  0.00    +0.003 A 
ATOM      8  C   UNL     1       4.673   2.089  -1.924  0.00  0.00    +0.010 A 
ATOM      9  C   UNL     1       5.685   2.252  -2.838  0.00  0.00    +0.001 A 
ATOM     10  C   UNL     1       5.449   2.260  -4.203  0.00  0.00    +0.002 A 
ATOM     11  C   UNL     1       4.181   2.105  -4.735  0.00  0.00    +0.026 A 
ATOM     12  C   UNL     1       3.134   1.937  -3.831  0.00  0.00    +0.047 A 
ATOM     13  N   UNL     1       1.792   1.761  -4.006  0.00  0.00    -0.356 N 
ATOM     14  H   UNL     1       1.341   1.727  -4.864  0.00  0.00    +0.166 HD
ATOM     15  C   UNL     1       1.179   1.640  -2.787  0.00  0.00    +0.046 A 
ATOM     16  C   UNL     1      -0.302   1.425  -2.546  0.00  0.00    +0.156 C 
ATOM     17  N   UNL     1      -0.504   1.539  -1.097  0.00  0.00    -0.260 N 
ATOM     18  C   UNL     1      -1.501   2.114  -0.422  0.00  0.00    +0.317 C 
ATOM     19  O   UNL     1      -2.472   2.620  -0.947  0.00  0.00    -0.252 OA
ENDROOT
BRANCH  16  20
ATOM     20  C   UNL     1      -0.709   0.054  -3.021  0.00  0.00    -0.020 A 
ATOM     21  C   UNL     1      -1.578  -0.078  -4.089  0.00  0.00    +0.006 A 
ATOM     22  C   UNL     1      -1.952  -1.335  -4.525  0.00  0.00    +0.002 A 
ATOM     23  C   UNL     1      -1.458  -2.461  -3.894  0.00  0.00    +0.020 A 
ATOM     24  C   UNL     1      -0.589  -2.330  -2.826  0.00  0.00    +0.041 A 
ATOM     25  C   UNL     1      -0.211  -1.072  -2.393  0.00  0.00    +0.025 A 
ATOM     26 CL   UNL     1       0.032  -3.744  -2.034  0.00  0.00    -0.084 Cl
ENDBRANCH  16  20
BRANCH   1  32
ATOM     27  C   UNL     1      -2.016   3.941   2.272  0.00  0.00    +0.081 A 
ATOM     28  C   UNL     1      -2.901   4.478   3.211  0.00  0.00    +0.017 A 
ATOM     29  C   UNL     1      -3.921   3.703   3.716  0.00  0.00    +0.001 A 
ATOM     30  C   UNL     1      -4.078   2.392   3.295  0.00  0.00    +0.002 A 
ATOM     31  C   UNL     1      -3.215   1.849   2.365  0.00  0.00    +0.025 A 
ATOM     32  C   UNL     1      -2.181   2.615   1.845  0.00  0.00    +0.059 A 
BRANCH  27  33
ATOM     33  C   UNL     1      -0.919   4.763   1.731  0.00  0.00    +0.341 C 
ATOM     34  O   UNL     1      -0.154   4.293   0.912  0.00  0.00    -0.245 OA
BRANCH  33  36
ATOM     35  C   UNL     1       0.338   6.787   1.570  0.00  0.00    +0.280 C 
ATOM     36  O   UNL     1      -0.764   6.036   2.145  0.00  0.00    -0.464 OA
ENDBRANCH  33  36
ENDBRANCH  27  33
ENDBRANCH   1  32
TORSDOF 4
