REMARK  Name = ZINC32528530
REMARK  8 active torsions:
REMARK  status: ('A' for Active; 'I' for Inactive)
REMARK    1  A    between atoms: C_1  and  C_2
REMARK    2  A    between atoms: C_2  and  C_3
REMARK    3  A    between atoms: C_3  and  C_5
REMARK    4  A    between atoms: C_3  and  S_21
REMARK    5  A    between atoms: C_13  and  S_17
REMARK    6  A    between atoms: S_17  and  N_20
REMARK    7  A    between atoms: S_21  and  C_22
REMARK    8  A    between atoms: C_24  and  C_32
REMARK                            x       y       z     vdW  Elec       q    Type
REMARK                         _______ _______ _______ _____ _____    ______ ____
ROOT
ATOM      1  C   UNL     1      -0.990   3.691   1.365  0.00  0.00    +0.232 C 
ATOM      2  O   UNL     1      -2.057   4.202   1.101  0.00  0.00    -0.274 OA
ATOM      3  N   UNL     1       0.061   4.462   1.707  0.00  0.00    -0.264 N 
ATOM      4  C   UNL     1      -0.077   5.840   1.757  0.00  0.00    +0.165 A 
ATOM      5  N   UNL     1      -1.140   6.569   1.509  0.00  0.00    -0.225 NA
ATOM      6  C   UNL     1      -1.132   7.917   1.599  0.00  0.00    +0.080 A 
ATOM      7  C   UNL     1      -2.199   8.814   1.361  0.00  0.00    +0.031 A 
ATOM      8  C   UNL     1      -2.021  10.166   1.498  0.00  0.00    +0.030 A 
ATOM      9  C   UNL     1      -0.797  10.702   1.873  0.00  0.00    +0.106 A 
ATOM     10  C   UNL     1       0.269   9.854   2.114  0.00  0.00    +0.045 A 
ATOM     11  C   UNL     1       0.099   8.498   1.978  0.00  0.00    +0.043 A 
ATOM     12  S   UNL     1       1.142   7.074   2.183  0.00  0.00    -0.052 S 
ATOM     13  H   UNL     1       1.029   3.998   1.946  0.00  0.00    +0.157 HD
ENDROOT
BRANCH   9  14
ATOM     14  S   UNL     1      -0.602  12.445   2.041  0.00  0.00    +0.056 S 
ATOM     15  O   UNL     1      -1.897  12.976   2.289  0.00  0.00    -0.153 OA
ATOM     16  O   UNL     1       0.487  12.648   2.930  0.00  0.00    -0.153 OA
BRANCH  14  17
ATOM     17  N   UNL     1      -0.125  13.029   0.567  0.00  0.00    -0.204 NA
ATOM     18  H   UNL     1       0.008  14.119   0.630  0.00  0.00    +0.144 HD
ATOM     19  H   UNL     1      -0.893  12.796  -0.185  0.00  0.00    +0.144 HD
ENDBRANCH  14  17
ENDBRANCH   9  14
BRANCH   1  20
ATOM     20  C   UNL     1      -0.839   2.192   1.310  0.00  0.00    +0.139 C 
BRANCH  20  22
ATOM     21  C   UNL     1       1.265   2.331  -0.030  0.00  0.00    +0.005 C 
ATOM     22  C   UNL     1      -0.168   1.795  -0.006  0.00  0.00    +0.020 C 
ENDBRANCH  20  22
BRANCH  20  23
ATOM     23  S   UNL     1      -2.471   1.417   1.414  0.00  0.00    -0.093 S 
BRANCH  23  24
ATOM     24  C   UNL     1      -1.998  -0.258   1.687  0.00  0.00    +0.099 A 
ATOM     25  C   UNL     1      -2.992  -1.225   1.900  0.00  0.00    +0.038 A 
ATOM     26  C   UNL     1      -2.641  -2.523   2.112  0.00  0.00    -0.039 A 
ATOM     27  C   UNL     1      -1.270  -2.854   2.110  0.00  0.00    +0.003 A 
ATOM     28  C   UNL     1      -0.839  -4.173   2.321  0.00  0.00    +0.010 A 
ATOM     29  C   UNL     1       0.494  -4.456   2.312  0.00  0.00    +0.001 A 
ATOM     30  C   UNL     1       1.435  -3.453   2.095  0.00  0.00    +0.002 A 
ATOM     31  C   UNL     1       1.052  -2.163   1.887  0.00  0.00    +0.028 A 
ATOM     32  C   UNL     1      -0.314  -1.833   1.889  0.00  0.00    +0.072 A 
ATOM     33  N   UNL     1      -0.719  -0.574   1.681  0.00  0.00    -0.240 NA
ATOM     34  C   UNL     1      -3.690  -3.580   2.343  0.00  0.00    +0.044 C 
ENDBRANCH  23  24
ENDBRANCH  20  23
ENDBRANCH   1  20
TORSDOF 6
