REMARK  Name = ZINC13403379
REMARK  6 active torsions:
REMARK  status: ('A' for Active; 'I' for Inactive)
REMARK    1  A    between atoms: C_4  and  N_7
REMARK    2  A    between atoms: N_7  and  N_8
REMARK    3  A    between atoms: C_9  and  C_10
REMARK    4  A    between atoms: C_12  and  C_18
REMARK    5  A    between atoms: C_13  and  N_17
REMARK    6  A    between atoms: C_15  and  N_16
REMARK                            x       y       z     vdW  Elec       q    Type
REMARK                         _______ _______ _______ _____ _____    ______ ____
ROOT
ATOM      1  C   UNL     1       1.204  -2.294  -0.619  0.00  0.00    +0.016 A 
ATOM      2  C   UNL     1       1.212  -1.231  -1.512  0.00  0.00    +0.024 A 
ATOM      3  C   UNL     1       0.054  -0.466  -1.694  0.00  0.00    +0.036 A 
ATOM      4  C   UNL     1      -1.113  -0.776  -0.965  0.00  0.00    +0.037 A 
ATOM      5  C   UNL     1      -1.114  -1.842  -0.079  0.00  0.00    +0.046 A 
ATOM      6  C   UNL     1       0.032  -2.600   0.101  0.00  0.00    +0.035 A 
ENDROOT
BRANCH   6   7
ATOM      7  N   UNL     1       0.026  -3.662   0.993  0.00  0.00    -0.357 N 
ATOM      8  H   UNL     1       0.848  -4.139   1.185  0.00  0.00    +0.142 HD
ATOM      9  H   UNL     1      -0.801  -3.928   1.425  0.00  0.00    +0.142 HD
ENDBRANCH   6   7
BRANCH   4  10
ATOM     10  N   UNL     1      -2.260  -0.017  -1.137  0.00  0.00    -0.357 N 
ATOM     11  H   UNL     1      -2.261   0.727  -1.760  0.00  0.00    +0.142 HD
ATOM     12  H   UNL     1      -3.063  -0.230  -0.636  0.00  0.00    +0.142 HD
ENDBRANCH   4  10
BRANCH   1  14
ATOM     13  N   UNL     1       3.588  -2.587  -0.666  0.00  0.00    -0.190 NA
ATOM     14  C   UNL     1       2.421  -3.102  -0.424  0.00  0.00    +0.140 C 
BRANCH  13  15
ATOM     15  N   UNL     1       3.752  -1.195  -0.670  0.00  0.00    -0.238 N 
ATOM     16  H   UNL     1       3.020  -0.620  -0.399  0.00  0.00    +0.174 HD
BRANCH  15  20
ATOM     17  C   UNL     1       7.383   0.469  -1.841  0.00  0.00    +0.000 A 
ATOM     18  C   UNL     1       6.340   1.291  -1.455  0.00  0.00    +0.002 A 
ATOM     19  C   UNL     1       5.134   0.743  -1.066  0.00  0.00    +0.025 A 
ATOM     20  C   UNL     1       4.969  -0.638  -1.062  0.00  0.00    +0.048 A 
ATOM     21  C   UNL     1       6.021  -1.461  -1.445  0.00  0.00    +0.025 A 
ATOM     22  C   UNL     1       7.223  -0.905  -1.838  0.00  0.00    +0.002 A 
ENDBRANCH  15  20
ENDBRANCH  13  15
ENDBRANCH   1  14
BRANCH   3  23
ATOM     23  C   UNL     1       0.055   0.656  -2.633  0.00  0.00    +0.260 C 
ATOM     24  O   UNL     1       1.062   0.924  -3.256  0.00  0.00    -0.296 OA
ENDBRANCH   3  23
TORSDOF 6
