REMARK  Name = ZINC32747504
REMARK  7 active torsions:
REMARK  status: ('A' for Active; 'I' for Inactive)
REMARK    1  A    between atoms: C_1  and  C_2
REMARK    2  A    between atoms: C_2  and  C_3
REMARK    3  A    between atoms: C_2  and  C_13
REMARK    4  A    between atoms: C_2  and  C_19
REMARK    5  A    between atoms: C_3  and  C_4
REMARK    6  A    between atoms: N_21  and  C_22
REMARK    7  A    between atoms: C_22  and  C_23
REMARK                            x       y       z     vdW  Elec       q    Type
REMARK                         _______ _______ _______ _____ _____    ______ ____
ROOT
ATOM      1  C   UNL     1       5.890   1.410  -4.920  0.00  0.00    +0.026 C 
ATOM      2  C   UNL     1       6.398   1.277  -3.483  0.00  0.00    +0.075 C 
ENDROOT
BRANCH   2   3
ATOM      3  C   UNL     1       6.403  -0.176  -3.084  0.00  0.00    -0.032 A 
ATOM      4  C   UNL     1       6.089  -1.149  -4.014  0.00  0.00    +0.004 A 
ATOM      5  C   UNL     1       6.098  -2.482  -3.649  0.00  0.00    +0.000 A 
ATOM      6  C   UNL     1       6.411  -2.842  -2.351  0.00  0.00    +0.000 A 
ATOM      7  C   UNL     1       6.720  -1.868  -1.420  0.00  0.00    +0.000 A 
ATOM      8  C   UNL     1       6.715  -0.535  -1.786  0.00  0.00    +0.004 A 
ENDBRANCH   2   3
BRANCH   2   9
ATOM      9  C   UNL     1       5.492   2.049  -2.558  0.00  0.00    +0.224 C 
ATOM     10  O   UNL     1       5.917   3.016  -1.961  0.00  0.00    -0.275 OA
ATOM     11  N   UNL     1       4.211   1.666  -2.394  0.00  0.00    -0.311 N 
ATOM     12  H   UNL     1       3.803   0.841  -2.996  0.00  0.00    +0.149 HD
BRANCH  11  13
ATOM     13  C   UNL     1       3.362   2.347  -1.414  0.00  0.00    +0.152 C 
BRANCH  13  14
ATOM     14  C   UNL     1       1.965   1.723  -1.427  0.00  0.00    +0.228 C 
ATOM     15  C   UNL     1       1.045   2.493  -0.470  0.00  0.00    +0.275 C 
ATOM     16  O   UNL     1      -0.247   1.877  -0.497  0.00  0.00    -0.485 OA
ATOM     17  C   UNL     1      -0.278   0.519  -0.409  0.00  0.00    +0.162 A 
ATOM     18  C   UNL     1      -1.466  -0.115  -0.073  0.00  0.00    +0.049 A 
ATOM     19  C   UNL     1      -1.514  -1.493   0.017  0.00  0.00    +0.004 A 
ATOM     20  C   UNL     1      -0.379  -2.244  -0.227  0.00  0.00    +0.004 A 
ATOM     21  C   UNL     1       0.807  -1.619  -0.562  0.00  0.00    +0.049 A 
ATOM     22  C   UNL     1       0.863  -0.236  -0.653  0.00  0.00    +0.163 A 
ATOM     23  O   UNL     1       2.039   0.365  -0.980  0.00  0.00    -0.480 OA
ENDBRANCH  13  14
ENDBRANCH  11  13
ENDBRANCH   2   9
BRANCH   2  24
ATOM     24  C   UNL     1       7.819   1.837  -3.390  0.00  0.00    +0.083 C 
BRANCH  24  25
ATOM     25  C   UNL     1       8.720   1.077  -4.329  0.00  0.00    +0.081 A 
ATOM     26  N   UNL     1       9.001   1.345  -5.574  0.00  0.00    -0.244 NA
ATOM     27  C   UNL     1       9.831   0.578  -6.310  0.00  0.00    +0.078 A 
ATOM     28  C   UNL     1      10.230   0.736  -7.656  0.00  0.00    +0.029 A 
ATOM     29  C   UNL     1      11.085  -0.149  -8.236  0.00  0.00    +0.002 A 
ATOM     30  C   UNL     1      11.597  -1.233  -7.535  0.00  0.00    +0.001 A 
ATOM     31  C   UNL     1      11.231  -1.422  -6.216  0.00  0.00    +0.017 A 
ATOM     32  C   UNL     1      10.367  -0.534  -5.622  0.00  0.00    +0.039 A 
ATOM     33  S   UNL     1       9.639  -0.361  -4.012  0.00  0.00    -0.072 S 
ENDBRANCH  24  25
ENDBRANCH   2  24
TORSDOF 6
