REMARK  Name = ZINC66249075
REMARK  7 active torsions:
REMARK  status: ('A' for Active; 'I' for Inactive)
REMARK    1  A    between atoms: C_1  and  C_2
REMARK    2  A    between atoms: C_2  and  C_3
REMARK    3  A    between atoms: C_3  and  C_5
REMARK    4  A    between atoms: C_3  and  N_6
REMARK    5  A    between atoms: C_7  and  N_11
REMARK    6  A    between atoms: N_11  and  S_12
REMARK    7  A    between atoms: S_12  and  C_15
REMARK                            x       y       z     vdW  Elec       q    Type
REMARK                         _______ _______ _______ _____ _____    ______ ____
ROOT
ATOM      1  S   UNL     1      -1.230  -3.261  -4.494  0.00  0.00    +0.073 S 
ATOM      2  O   UNL     1      -1.784  -2.500  -5.559  0.00  0.00    -0.150 OA
ATOM      3  O   UNL     1      -0.278  -4.293  -4.710  0.00  0.00    -0.150 OA
ENDROOT
BRANCH   1   4
ATOM      4  C   UNL     1      -2.586  -3.997  -3.643  0.00  0.00    +0.109 A 
ATOM      5  C   UNL     1      -2.369  -5.072  -2.800  0.00  0.00    +0.030 A 
ATOM      6  C   UNL     1      -3.429  -5.652  -2.131  0.00  0.00    +0.025 A 
ATOM      7  C   UNL     1      -4.714  -5.152  -2.305  0.00  0.00    +0.037 A 
ATOM      8  C   UNL     1      -4.927  -4.072  -3.151  0.00  0.00    -0.024 A 
ATOM      9  C   UNL     1      -3.862  -3.494  -3.813  0.00  0.00    +0.034 A 
ATOM     10  C   UNL     1      -6.320  -3.530  -3.338  0.00  0.00    +0.046 C 
ATOM     11  C   UNL     1      -7.329  -4.677  -3.263  0.00  0.00    +0.101 C 
ATOM     12  C   UNL     1      -7.052  -5.524  -2.050  0.00  0.00    +0.218 C 
ATOM     13  O   UNL     1      -7.977  -6.024  -1.445  0.00  0.00    -0.275 OA
ATOM     14  N   UNL     1      -5.791  -5.734  -1.630  0.00  0.00    -0.285 N 
ATOM     15  H   UNL     1      -5.629  -6.292  -0.854  0.00  0.00    +0.155 HD
ENDBRANCH   1   4
BRANCH   1  16
ATOM     16  N   UNL     1      -0.528  -2.179  -3.455  0.00  0.00    -0.200 N 
ATOM     17  H   UNL     1       0.377  -2.328  -3.139  0.00  0.00    +0.175 HD
BRANCH  16  19
ATOM     18  N   UNL     1      -0.853  -0.182  -2.077  0.00  0.00    -0.247 N 
ATOM     19  C   UNL     1      -1.236  -1.057  -3.034  0.00  0.00    +0.136 A 
ATOM     20  C   UNL     1      -2.442  -0.641  -3.512  0.00  0.00    +0.066 A 
ATOM     21  C   UNL     1      -2.797   0.521  -2.823  0.00  0.00    +0.136 A 
ATOM     22  N   UNL     1      -1.851   0.794  -1.961  0.00  0.00    -0.178 NA
BRANCH  18  23
ATOM     23  C   UNL     1       0.385  -0.246  -1.297  0.00  0.00    +0.106 C 
ATOM     24  C   UNL     1       0.045  -0.366   0.190  0.00  0.00    +0.032 C 
BRANCH  23  26
ATOM     25  C   UNL     1       2.550   0.904  -0.817  0.00  0.00    +0.006 C 
ATOM     26  C   UNL     1       1.203   1.025  -1.532  0.00  0.00    +0.023 C 
ENDBRANCH  23  26
ENDBRANCH  18  23
ENDBRANCH  16  19
ENDBRANCH   1  16
TORSDOF 5
