REMARK  Name = ZINC39665317
REMARK  9 active torsions:
REMARK  status: ('A' for Active; 'I' for Inactive)
REMARK    1  A    between atoms: C_1  and  C_2
REMARK    2  A    between atoms: C_2  and  C_4
REMARK    3  A    between atoms: C_2  and  O_34
REMARK    4  A    between atoms: C_4  and  N_5
REMARK    5  A    between atoms: C_6  and  C_8
REMARK    6  A    between atoms: C_19  and  C_21
REMARK    7  A    between atoms: C_26  and  S_27
REMARK    8  A    between atoms: S_27  and  C_28
REMARK    9  A    between atoms: O_34  and  C_35
REMARK                            x       y       z     vdW  Elec       q    Type
REMARK                         _______ _______ _______ _____ _____    ______ ____
ROOT
ATOM      1  C   UNL     1       1.081  -6.535   4.473  0.00  0.00    +0.100 C 
ATOM      2  C   UNL     1      -0.295  -7.237   4.522  0.00  0.00    +0.121 C 
ATOM      3  N   UNL     1      -0.297  -7.964   5.814  0.00  0.00    -0.296 N 
ATOM      4  C   UNL     1       0.367  -7.037   6.761  0.00  0.00    +0.115 C 
ATOM      5  C   UNL     1       1.512  -6.405   5.944  0.00  0.00    -0.004 C 
ATOM      6  C   UNL     1       2.813  -7.166   6.182  0.00  0.00    -0.010 C 
ATOM      7  C   UNL     1       3.250  -6.975   7.637  0.00  0.00    -0.082 C 
ATOM      8  N   UNL     1       3.439  -5.545   7.910  0.00  0.00    +0.379 N 
ATOM      9  C   UNL     1       2.162  -4.836   7.768  0.00  0.00    -0.082 C 
ATOM     10  C   UNL     1       1.678  -4.936   6.319  0.00  0.00    -0.010 C 
ATOM     11  C   UNL     1      -0.792  -9.192   6.069  0.00  0.00    +0.249 C 
ATOM     12  O   UNL     1      -0.799  -9.620   7.207  0.00  0.00    -0.270 OA
ATOM     13  H   UNL     1       3.785  -5.426   8.850  0.00  0.00    -0.086 HD
ATOM     14  H   UNL     1       4.107  -5.165   7.257  0.00  0.00    -0.086 HD
ENDROOT
BRANCH  11  15
ATOM     15  C   UNL     1      -1.325 -10.015   4.969  0.00  0.00    +0.069 A 
ATOM     16  C   UNL     1      -2.123  -9.442   3.972  0.00  0.00    +0.017 A 
ATOM     17  C   UNL     1      -2.598 -10.258   2.961  0.00  0.00    +0.020 A 
ATOM     18  C   UNL     1      -2.275 -11.604   2.962  0.00  0.00    +0.112 A 
ATOM     19  N   UNL     1      -1.522 -12.125   3.909  0.00  0.00    -0.248 NA
ATOM     20  C   UNL     1      -1.036 -11.389   4.898  0.00  0.00    +0.114 A 
BRANCH  20  21
ATOM     21  S   UNL     1      -0.028 -12.137   6.135  0.00  0.00    -0.069 S 
BRANCH  21  22
ATOM     22  C   UNL     1       0.183 -13.792   5.568  0.00  0.00    +0.014 A 
ATOM     23  C   UNL     1       1.309 -14.137   4.830  0.00  0.00    +0.015 A 
ATOM     24  C   UNL     1       1.472 -15.435   4.387  0.00  0.00    +0.001 A 
ATOM     25  C   UNL     1       0.516 -16.391   4.678  0.00  0.00    +0.000 A 
ATOM     26  C   UNL     1      -0.605 -16.052   5.413  0.00  0.00    +0.001 A 
ATOM     27  C   UNL     1      -0.772 -14.757   5.863  0.00  0.00    +0.015 A 
ENDBRANCH  21  22
ENDBRANCH  20  21
ENDBRANCH  11  15
BRANCH   1  29
ATOM     28  N   UNL     1       1.991  -4.642   3.165  0.00  0.00    -0.312 N 
ATOM     29  C   UNL     1       0.953  -5.172   3.842  0.00  0.00    +0.218 C 
ATOM     30  O   UNL     1      -0.085  -4.553   3.943  0.00  0.00    -0.275 OA
ATOM     31  H   UNL     1       2.821  -5.138   3.085  0.00  0.00    +0.149 HD
BRANCH  28  32
ATOM     32  C   UNL     1       1.866  -3.318   2.552  0.00  0.00    +0.148 C 
BRANCH  32  34
ATOM     33  C   UNL     1       3.046  -1.571   1.211  0.00  0.00    +0.053 C 
ATOM     34  C   UNL     1       3.176  -2.955   1.851  0.00  0.00    +0.187 C 
BRANCH  34  35
ATOM     35  O   UNL     1       4.239  -2.939   2.807  0.00  0.00    -0.488 OA
BRANCH  35  36
ATOM     36  C   UNL     1       5.487  -3.214   2.346  0.00  0.00    +0.121 A 
ATOM     37  C   UNL     1       6.547  -3.326   3.234  0.00  0.00    +0.045 A 
ATOM     38  C   UNL     1       7.815  -3.606   2.763  0.00  0.00    +0.004 A 
ATOM     39  C   UNL     1       8.029  -3.775   1.408  0.00  0.00    +0.000 A 
ATOM     40  C   UNL     1       6.974  -3.663   0.520  0.00  0.00    +0.004 A 
ATOM     41  C   UNL     1       5.703  -3.389   0.987  0.00  0.00    +0.045 A 
ENDBRANCH  35  36
ENDBRANCH  34  35
ENDBRANCH  32  34
ENDBRANCH  28  32
ENDBRANCH   1  29
TORSDOF 8
