REMARK  Name = ZINC39659933
REMARK  8 active torsions:
REMARK  status: ('A' for Active; 'I' for Inactive)
REMARK    1  A    between atoms: C_1  and  C_2
REMARK    2  A    between atoms: C_2  and  C_3
REMARK    3  A    between atoms: C_2  and  C_4
REMARK    4  A    between atoms: C_4  and  C_6
REMARK    5  A    between atoms: C_4  and  O_30
REMARK    6  A    between atoms: C_10  and  C_19
REMARK    7  A    between atoms: N_21  and  C_22
REMARK    8  A    between atoms: O_30  and  C_31
REMARK                            x       y       z     vdW  Elec       q    Type
REMARK                         _______ _______ _______ _____ _____    ______ ____
ROOT
ATOM      1  C   UNL     1      -2.244   0.017  -1.013  0.00  0.00    +0.257 C 
ATOM      2  O   UNL     1      -2.871  -0.655  -1.804  0.00  0.00    -0.272 OA
ATOM      3  N   UNL     1      -2.386   1.357  -1.006  0.00  0.00    -0.297 N 
ATOM      4  C   UNL     1      -1.650   2.344  -0.180  0.00  0.00    +0.121 C 
ATOM      5  C   UNL     1      -1.396   3.535  -1.130  0.00  0.00    +0.100 C 
ATOM      6  C   UNL     1      -2.491   3.422  -2.204  0.00  0.00    -0.004 C 
ATOM      7  C   UNL     1      -3.308   2.178  -1.826  0.00  0.00    +0.115 C 
ATOM      8  C   UNL     1      -1.863   3.234  -3.582  0.00  0.00    -0.010 C 
ATOM      9  C   UNL     1      -2.969   3.181  -4.639  0.00  0.00    -0.082 C 
ATOM     10  N   UNL     1      -3.747   4.426  -4.598  0.00  0.00    +0.379 N 
ATOM     11  C   UNL     1      -4.423   4.552  -3.302  0.00  0.00    -0.082 C 
ATOM     12  C   UNL     1      -3.378   4.663  -2.188  0.00  0.00    -0.010 C 
ATOM     13  H   UNL     1      -3.129   5.212  -4.732  0.00  0.00    -0.086 HD
ATOM     14  H   UNL     1      -4.436   4.414  -5.335  0.00  0.00    -0.086 HD
ENDROOT
BRANCH   5  15
ATOM     15  C   UNL     1      -1.523   4.838  -0.383  0.00  0.00    +0.218 C 
ATOM     16  O   UNL     1      -2.214   4.902   0.611  0.00  0.00    -0.275 OA
ATOM     17  N   UNL     1      -0.869   5.932  -0.821  0.00  0.00    -0.312 N 
ATOM     18  H   UNL     1      -0.316   5.881  -1.617  0.00  0.00    +0.149 HD
BRANCH  17  19
ATOM     19  C   UNL     1      -0.992   7.199  -0.095  0.00  0.00    +0.073 C 
ATOM     20  C   UNL     1      -2.245   7.938  -0.569  0.00  0.00    +0.022 C 
ATOM     21  C   UNL     1      -2.598   9.038   0.434  0.00  0.00    +0.002 C 
ATOM     22  C   UNL     1      -2.474   8.490   1.857  0.00  0.00    +0.000 C 
ATOM     23  C   UNL     1      -1.313   9.185   2.571  0.00  0.00    +0.000 C 
ATOM     24  C   UNL     1       0.013   8.614   2.063  0.00  0.00    +0.000 C 
ATOM     25  C   UNL     1       0.315   9.183   0.676  0.00  0.00    +0.002 C 
ATOM     26  C   UNL     1       0.242   8.062  -0.363  0.00  0.00    +0.022 C 
ENDBRANCH  17  19
ENDBRANCH   5  15
BRANCH   1  27
ATOM     27  C   UNL     1      -1.308  -0.647  -0.037  0.00  0.00    +0.261 C 
BRANCH  27  29
ATOM     28  C   UNL     1       0.662   0.558  -0.992  0.00  0.00    +0.011 C 
ATOM     29  C   UNL     1       0.068  -0.818  -0.686  0.00  0.00    +0.033 C 
ATOM     30  C   UNL     1       0.993  -1.572   0.271  0.00  0.00    +0.011 C 
ENDBRANCH  27  29
BRANCH  27  31
ATOM     31  O   UNL     1      -1.826  -1.929   0.325  0.00  0.00    -0.479 OA
BRANCH  31  32
ATOM     32  C   UNL     1      -1.579  -2.360   1.589  0.00  0.00    +0.122 A 
ATOM     33  C   UNL     1      -0.931  -1.530   2.492  0.00  0.00    +0.045 A 
ATOM     34  C   UNL     1      -0.681  -1.970   3.778  0.00  0.00    +0.004 A 
ATOM     35  C   UNL     1      -1.077  -3.237   4.165  0.00  0.00    +0.000 A 
ATOM     36  C   UNL     1      -1.724  -4.067   3.267  0.00  0.00    +0.004 A 
ATOM     37  C   UNL     1      -1.981  -3.629   1.982  0.00  0.00    +0.045 A 
ENDBRANCH  31  32
ENDBRANCH  27  31
ENDBRANCH   1  27
TORSDOF 6
