REMARK  Name = ZINC59058609
REMARK  6 active torsions:
REMARK  status: ('A' for Active; 'I' for Inactive)
REMARK    1  A    between atoms: C_6  and  C_7
REMARK    2  A    between atoms: C_7  and  C_12
REMARK    3  A    between atoms: C_12  and  N_13
REMARK    4  A    between atoms: C_14  and  C_16
REMARK    5  A    between atoms: C_16  and  N_17
REMARK    6  A    between atoms: C_19  and  C_25
REMARK                            x       y       z     vdW  Elec       q    Type
REMARK                         _______ _______ _______ _____ _____    ______ ____
ROOT
ATOM      1  N   UNL     1      -2.438   0.913   1.360  0.00  0.00    -0.313 N 
ATOM      2  C   UNL     1      -3.035   1.410   2.461  0.00  0.00    +0.233 C 
ATOM      3  O   UNL     1      -3.257   0.687   3.409  0.00  0.00    -0.274 OA
ATOM      4  H   UNL     1      -2.260   1.492   0.602  0.00  0.00    +0.149 HD
ENDROOT
BRANCH   1   5
ATOM      5  C   UNL     1      -2.057  -0.500   1.307  0.00  0.00    +0.115 C 
BRANCH   5   6
ATOM      6  C   UNL     1      -1.465  -0.818  -0.068  0.00  0.00    +0.011 C 
ATOM      7  C   UNL     1      -2.477  -0.466  -1.173  0.00  0.00    +0.013 C 
ATOM      8  C   UNL     1      -2.782  -1.777  -1.926  0.00  0.00    +0.001 C 
ATOM      9  C   UNL     1      -2.448  -2.890  -0.901  0.00  0.00    +0.001 C 
ATOM     10  C   UNL     1      -1.191  -2.332  -0.188  0.00  0.00    +0.013 C 
BRANCH   6  16
ATOM     11  C   UNL     1       0.441  -0.062  -1.501  0.00  0.00    +0.007 A 
ATOM     12  C   UNL     1       1.613   0.648  -1.689  0.00  0.00    +0.038 A 
ATOM     13  C   UNL     1       2.155   1.375  -0.643  0.00  0.00    +0.123 A 
ATOM     14  C   UNL     1       1.524   1.392   0.589  0.00  0.00    +0.038 A 
ATOM     15  C   UNL     1       0.353   0.682   0.774  0.00  0.00    +0.007 A 
ATOM     16  C   UNL     1      -0.188  -0.044  -0.271  0.00  0.00    -0.040 A 
ATOM     17  F   UNL     1       3.301   2.069  -0.825  0.00  0.00    -0.205 F 
ENDBRANCH   6  16
ENDBRANCH   5   6
ENDBRANCH   1   5
BRANCH   2  18
ATOM     18  C   UNL     1      -3.426   2.864   2.515  0.00  0.00    +0.220 C 
BRANCH  18  19
ATOM     19  N   UNL     1      -4.052   3.154   3.808  0.00  0.00    -0.305 N 
ATOM     20  C   UNL     1      -5.396   3.013   3.950  0.00  0.00    +0.102 A 
ATOM     21  C   UNL     1      -5.997   3.275   5.133  0.00  0.00    +0.073 A 
ATOM     22  C   UNL     1      -5.231   3.695   6.230  0.00  0.00    +0.039 A 
ATOM     23  C   UNL     1      -3.882   3.836   6.087  0.00  0.00    +0.106 A 
ATOM     24  C   UNL     1      -3.288   3.551   4.843  0.00  0.00    +0.270 A 
ATOM     25  O   UNL     1      -2.082   3.667   4.702  0.00  0.00    -0.266 OA
ATOM     26 CL   UNL     1      -2.906   4.355   7.426  0.00  0.00    -0.078 Cl
BRANCH  21  27
ATOM     27  C   UNL     1      -7.489   3.114   5.272  0.00  0.00    +0.419 C 
ATOM     28  F   UNL     1      -7.775   1.845   5.787  0.00  0.00    -0.166 F 
ATOM     29  F   UNL     1      -7.984   4.092   6.141  0.00  0.00    -0.166 F 
ATOM     30  F   UNL     1      -8.092   3.255   4.018  0.00  0.00    -0.166 F 
ENDBRANCH  21  27
ENDBRANCH  18  19
ENDBRANCH   2  18
TORSDOF 6
