REMARK  Name = ZINC59094579
REMARK  15 active torsions:
REMARK  status: ('A' for Active; 'I' for Inactive)
REMARK    1  A    between atoms: C_1  and  C_2
REMARK    2  A    between atoms: C_6  and  C_29
REMARK    3  A    between atoms: C_7  and  N_8
REMARK    4  A    between atoms: N_8  and  C_9
REMARK    5  A    between atoms: C_9  and  N_11
REMARK    6  A    between atoms: N_11  and  C_12
REMARK    7  A    between atoms: N_11  and  C_19
REMARK    8  A    between atoms: C_12  and  C_13
REMARK    9  A    between atoms: C_16  and  C_18
REMARK   10  A    between atoms: C_21  and  C_27
REMARK   11  A    between atoms: C_21  and  C_28
REMARK   12  A    between atoms: C_23  and  C_25
REMARK   13  A    between atoms: C_23  and  C_26
REMARK   14  A    between atoms: C_29  and  C_30
REMARK   15  A    between atoms: C_29  and  C_31
REMARK                            x       y       z     vdW  Elec       q    Type
REMARK                         _______ _______ _______ _____ _____    ______ ____
ROOT
ATOM      1  N   UNL     1      -1.270   1.428   1.892  0.00  0.00    -0.302 N 
ENDROOT
BRANCH   1   2
ATOM      2  C   UNL     1      -1.480   0.920   3.253  0.00  0.00    +0.073 C 
ATOM      3  C   UNL     1      -2.040  -0.502   3.177  0.00  0.00    +0.009 C 
ATOM      4  C   UNL     1      -2.253  -1.051   4.588  0.00  0.00    -0.072 C 
ATOM      5  N   UNL     1      -1.046  -0.969   5.396  0.00  0.00    +0.386 N 
ATOM      6  C   UNL     1      -0.308   0.284   5.384  0.00  0.00    -0.072 C 
ATOM      7  C   UNL     1      -0.140   0.869   3.985  0.00  0.00    +0.009 C 
ATOM      8  C   UNL     1      -0.942   1.324   6.311  0.00  0.00    -0.010 C 
ATOM      9  C   UNL     1       1.109  -0.005   5.933  0.00  0.00    -0.010 C 
ATOM     10  C   UNL     1      -2.620  -2.546   4.447  0.00  0.00    -0.010 C 
ATOM     11  C   UNL     1      -3.439  -0.354   5.252  0.00  0.00    -0.010 C 
ATOM     12  H   UNL     1      -1.292  -1.188   6.365  0.00  0.00    -0.084 HD
ATOM     13  H   UNL     1      -0.412  -1.718   5.104  0.00  0.00    -0.084 HD
ENDBRANCH   1   2
BRANCH   1  14
ATOM     14  C   UNL     1      -0.706   0.638   0.957  0.00  0.00    +0.138 C 
ATOM     15  S   UNL     1      -0.392   1.255  -0.609  0.00  0.00    -0.018 S 
BRANCH  14  16
ATOM     16  N   UNL     1      -0.389  -0.637   1.255  0.00  0.00    -0.296 N 
ATOM     17  H   UNL     1      -0.967  -1.361   0.965  0.00  0.00    +0.154 HD
BRANCH  16  24
ATOM     18  C   UNL     1      -0.159  -3.193   2.485  0.00  0.00    +0.045 C 
ATOM     19  C   UNL     1       0.927  -2.153   2.598  0.00  0.00    -0.029 A 
ATOM     20  C   UNL     1       2.078  -2.430   3.309  0.00  0.00    +0.005 A 
ATOM     21  C   UNL     1       3.074  -1.476   3.413  0.00  0.00    +0.001 A 
ATOM     22  C   UNL     1       2.921  -0.243   2.805  0.00  0.00    +0.006 A 
ATOM     23  C   UNL     1       1.773   0.039   2.092  0.00  0.00    -0.023 A 
ATOM     24  C   UNL     1       0.773  -0.918   1.981  0.00  0.00    +0.039 A 
BRANCH  23  25
ATOM     25  C   UNL     1       1.608   1.383   1.430  0.00  0.00    +0.015 C 
ATOM     26  C   UNL     1       2.383   2.439   2.219  0.00  0.00    +0.012 C 
ATOM     27  C   UNL     1       2.147   1.317  -0.000  0.00  0.00    +0.012 C 
ENDBRANCH  23  25
ENDBRANCH  16  24
ENDBRANCH  14  16
ENDBRANCH   1  14
BRANCH   1  28
ATOM     28  C   UNL     1      -1.673   2.795   1.550  0.00  0.00    +0.181 C 
BRANCH  28  29
ATOM     29  C   UNL     1      -3.097   2.790   1.057  0.00  0.00    +0.122 A 
ATOM     30  C   UNL     1      -4.194   2.944   1.820  0.00  0.00    +0.046 A 
ATOM     31  C   UNL     1      -5.309   2.873   0.954  0.00  0.00    +0.045 A 
ATOM     32  C   UNL     1      -4.827   2.681  -0.287  0.00  0.00    +0.102 A 
ATOM     33  O   UNL     1      -3.486   2.637  -0.219  0.00  0.00    -0.463 OA
ATOM     34  C   UNL     1      -5.650   2.544  -1.542  0.00  0.00    +0.086 C 
ENDBRANCH  28  29
ENDBRANCH   1  28
TORSDOF 7
