REMARK  Name = ZINC03640736
REMARK  5 active torsions:
REMARK  status: ('A' for Active; 'I' for Inactive)
REMARK    1  A    between atoms: C_4  and  C_7
REMARK    2  A    between atoms: C_7  and  S_8
REMARK    3  A    between atoms: S_8  and  C_9
REMARK    4  A    between atoms: C_22  and  C_25
REMARK    5  A    between atoms: C_27  and  O_32
REMARK                            x       y       z     vdW  Elec       q    Type
REMARK                         _______ _______ _______ _____ _____    ______ ____
ROOT
ATOM      1  C   UNL     1      -3.982   0.623   1.973  0.00  0.00    +0.213 A 
ATOM      2  N   UNL     1      -2.654   0.686   1.981  0.00  0.00    -0.184 NA
ATOM      3  C   UNL     1      -2.041   1.522   1.161  0.00  0.00    +0.248 A 
ATOM      4  C   UNL     1      -2.824   2.321   0.296  0.00  0.00    +0.156 A 
ATOM      5  N   UNL     1      -4.143   2.211   0.340  0.00  0.00    -0.141 NA
ATOM      6  N   UNL     1      -4.699   1.385   1.157  0.00  0.00    -0.122 NA
ATOM      7  C   UNL     1      -2.160   3.254  -0.637  0.00  0.00    +0.028 A 
ATOM      8  C   UNL     1      -2.574   4.574  -0.766  0.00  0.00    +0.012 A 
ATOM      9  C   UNL     1      -1.935   5.410  -1.661  0.00  0.00    +0.001 A 
ATOM     10  C   UNL     1      -0.886   4.939  -2.432  0.00  0.00    +0.002 A 
ATOM     11  C   UNL     1      -0.459   3.630  -2.310  0.00  0.00    +0.024 A 
ATOM     12  C   UNL     1      -1.084   2.783  -1.412  0.00  0.00    +0.039 A 
ATOM     13  N   UNL     1      -0.663   1.461  -1.244  0.00  0.00    -0.305 N 
ATOM     14  C   UNL     1      -0.013   1.086   0.008  0.00  0.00    +0.295 C 
ATOM     15  O   UNL     1      -0.691   1.626   1.137  0.00  0.00    -0.449 OA
ATOM     16  H   UNL     1      -0.799   0.806  -1.946  0.00  0.00    +0.150 HD
ENDROOT
BRANCH  14  17
ATOM     17  C   UNL     1       1.405   1.596  -0.003  0.00  0.00    +0.029 A 
ATOM     18  C   UNL     1       1.714   2.790   0.619  0.00  0.00    +0.055 A 
ATOM     19  C   UNL     1       3.020   3.257   0.613  0.00  0.00    +0.117 A 
ATOM     20  C   UNL     1       4.012   2.528  -0.027  0.00  0.00    +0.046 A 
ATOM     21  C   UNL     1       3.699   1.337  -0.651  0.00  0.00    +0.019 A 
ATOM     22  C   UNL     1       2.396   0.871  -0.640  0.00  0.00    +0.026 A 
ATOM     23 BR   UNL     1       1.969  -0.760  -1.497  0.00  0.00    -0.050 Br
BRANCH  19  24
ATOM     24  O   UNL     1       3.327   4.429   1.229  0.00  0.00    -0.507 OA
ATOM     25  H   UNL     1       3.253   5.205   0.657  0.00  0.00    +0.292 HD
ENDBRANCH  19  24
ENDBRANCH  14  17
BRANCH   1  26
ATOM     26  S   UNL     1      -4.803  -0.491   3.064  0.00  0.00    -0.080 S 
BRANCH  26  27
ATOM     27  C   UNL     1      -6.525  -0.150   2.623  0.00  0.00    +0.112 C 
BRANCH  27  31
ATOM     28  C   UNL     1      -9.111  -2.600   4.981  0.00  0.00    +0.000 A 
ATOM     29  C   UNL     1      -8.739  -1.349   5.437  0.00  0.00    +0.000 A 
ATOM     30  C   UNL     1      -7.902  -0.557   4.674  0.00  0.00    +0.004 A 
ATOM     31  C   UNL     1      -7.438  -1.015   3.455  0.00  0.00    -0.037 A 
ATOM     32  C   UNL     1      -7.815  -2.263   2.997  0.00  0.00    +0.004 A 
ATOM     33  C   UNL     1      -8.647  -3.058   3.762  0.00  0.00    +0.000 A 
ENDBRANCH  27  31
ENDBRANCH  26  27
ENDBRANCH   1  26
TORSDOF 5
