REMARK  Name = ZINC32559928
REMARK  7 active torsions:
REMARK  status: ('A' for Active; 'I' for Inactive)
REMARK    1  A    between atoms: C_1  and  C_2
REMARK    2  A    between atoms: C_2  and  C_24
REMARK    3  A    between atoms: C_7  and  C_11
REMARK    4  A    between atoms: N_13  and  N_14
REMARK    5  A    between atoms: C_15  and  C_16
REMARK    6  A    between atoms: C_19  and  O_23
REMARK    7  A    between atoms: C_21  and  O_22
REMARK                            x       y       z     vdW  Elec       q    Type
REMARK                         _______ _______ _______ _____ _____    ______ ____
ROOT
ATOM      1  C   UNL     1       2.552   3.728  -0.684  0.00  0.00    +0.242 C 
ATOM      2  O   UNL     1       3.159   3.691   0.366  0.00  0.00    -0.273 OA
ATOM      3  N   UNL     1       1.455   4.502  -0.801  0.00  0.00    -0.206 N 
ATOM      4  H   UNL     1       0.905   4.535  -1.753  0.00  0.00    +0.177 HD
ENDROOT
BRANCH   1  10
ATOM      5  C   UNL     1       5.709   3.316  -4.094  0.00  0.00    +0.016 C 
ATOM      6  C   UNL     1       4.298   2.749  -3.922  0.00  0.00    -0.010 C 
ATOM      7  C   UNL     1       4.341   1.433  -3.086  0.00  0.00    +0.000 C 
ATOM      8  C   UNL     1       2.897   0.856  -3.200  0.00  0.00    +0.006 C 
ATOM      9  C   UNL     1       2.023   1.840  -2.389  0.00  0.00    +0.021 C 
ATOM     10  C   UNL     1       3.026   2.909  -1.857  0.00  0.00    +0.070 C 
ATOM     11  C   UNL     1       4.302   2.025  -1.632  0.00  0.00    +0.025 C 
ATOM     12  C   UNL     1       3.440   3.703  -3.104  0.00  0.00    -0.056 C 
ATOM     13  C   UNL     1       3.123   4.939  -3.400  0.00  0.00    +0.009 C 
ATOM     14  C   UNL     1       3.656   2.492  -5.286  0.00  0.00    +0.016 C 
ENDBRANCH   1  10
BRANCH   3  15
ATOM     15  N   UNL     1       1.015   5.263   0.289  0.00  0.00    -0.188 NA
ATOM     16  C   UNL     1      -0.110   5.908   0.219  0.00  0.00    +0.142 C 
BRANCH  16  17
ATOM     17  C   UNL     1      -1.137   5.494  -0.753  0.00  0.00    +0.036 A 
ATOM     18  C   UNL     1      -1.166   4.179  -1.225  0.00  0.00    +0.016 A 
ATOM     19  C   UNL     1      -2.131   3.794  -2.129  0.00  0.00    +0.046 A 
ATOM     20  C   UNL     1      -3.071   4.713  -2.583  0.00  0.00    +0.120 A 
ATOM     21  C   UNL     1      -3.047   6.021  -2.124  0.00  0.00    +0.091 A 
ATOM     22  C   UNL     1      -2.086   6.418  -1.211  0.00  0.00    +0.129 A 
BRANCH  22  23
ATOM     23  O   UNL     1      -2.062   7.699  -0.761  0.00  0.00    -0.506 OA
ATOM     24  H   UNL     1      -2.807   8.424  -1.122  0.00  0.00    +0.292 HD
ENDBRANCH  22  23
BRANCH  20  25
ATOM     25  O   UNL     1      -4.016   4.327  -3.479  0.00  0.00    -0.507 OA
ATOM     26  H   UNL     1      -4.761   5.052  -3.839  0.00  0.00    +0.292 HD
ENDBRANCH  20  25
ENDBRANCH  16  17
ENDBRANCH   3  15
TORSDOF 5
