REMARK  Name = ZINC35487053
REMARK  9 active torsions:
REMARK  status: ('A' for Active; 'I' for Inactive)
REMARK    1  A    between atoms: C_1  and  N_2
REMARK    2  A    between atoms: N_2  and  C_3
REMARK    3  A    between atoms: N_2  and  C_4
REMARK    4  A    between atoms: C_4  and  C_5
REMARK    5  A    between atoms: C_5  and  C_6
REMARK    6  A    between atoms: C_6  and  N_7
REMARK    7  A    between atoms: C_8  and  C_24
REMARK    8  A    between atoms: C_28  and  O_30
REMARK    9  A    between atoms: O_30  and  C_31
REMARK                            x       y       z     vdW  Elec       q    Type
REMARK                         _______ _______ _______ _____ _____    ______ ____
ROOT
ATOM      1  N   UNL     1      -4.687   0.387  -4.061  0.00  0.00    -0.284 N 
ATOM      2  C   UNL     1      -5.283   1.731  -3.977  0.00  0.00    +0.145 C 
ATOM      3  C   UNL     1      -5.642   2.105  -5.377  0.00  0.00    +0.072 A 
ATOM      4  C   UNL     1      -6.272   3.312  -5.923  0.00  0.00    +0.199 A 
ATOM      5  O   UNL     1      -6.457   4.323  -5.269  0.00  0.00    -0.287 OA
ATOM      6  C   UNL     1      -6.664   3.184  -7.350  0.00  0.00    +0.066 A 
ATOM      7  C   UNL     1      -7.449   4.164  -7.957  0.00  0.00    +0.035 A 
ATOM      8  C   UNL     1      -7.808   4.026  -9.280  0.00  0.00    +0.042 A 
ATOM      9  C   UNL     1      -7.389   2.916 -10.002  0.00  0.00    +0.023 A 
ATOM     10  C   UNL     1      -6.613   1.944  -9.414  0.00  0.00    +0.048 A 
ATOM     11  C   UNL     1      -6.234   2.061  -8.077  0.00  0.00    +0.140 A 
ATOM     12  O   UNL     1      -5.463   1.096  -7.526  0.00  0.00    -0.450 OA
ATOM     13  C   UNL     1      -5.279   1.070  -6.191  0.00  0.00    +0.199 A 
ATOM     14  C   UNL     1      -4.685   0.012  -5.356  0.00  0.00    +0.283 C 
ATOM     15  O   UNL     1      -4.257  -1.046  -5.773  0.00  0.00    -0.267 OA
ATOM     16 CL   UNL     1      -8.784   5.241 -10.045  0.00  0.00    -0.084 Cl
ENDROOT
BRANCH   2  17
ATOM     17  C   UNL     1      -4.284   2.709  -3.416  0.00  0.00    -0.019 A 
ATOM     18  C   UNL     1      -2.958   2.642  -3.805  0.00  0.00    +0.006 A 
ATOM     19  C   UNL     1      -2.039   3.538  -3.292  0.00  0.00    +0.004 A 
ATOM     20  C   UNL     1      -2.442   4.503  -2.389  0.00  0.00    +0.046 A 
ATOM     21  C   UNL     1      -3.771   4.572  -1.996  0.00  0.00    +0.129 A 
ATOM     22  C   UNL     1      -4.693   3.674  -2.517  0.00  0.00    +0.052 A 
BRANCH  21  23
ATOM     23  O   UNL     1      -4.170   5.519  -1.108  0.00  0.00    -0.456 OA
BRANCH  23  24
ATOM     24  C   UNL     1      -5.479   5.543  -0.745  0.00  0.00    +0.128 A 
ATOM     25  C   UNL     1      -5.911   4.803   0.346  0.00  0.00    +0.046 A 
ATOM     26  C   UNL     1      -7.243   4.829   0.713  0.00  0.00    +0.004 A 
ATOM     27  C   UNL     1      -8.145   5.590  -0.008  0.00  0.00    +0.000 A 
ATOM     28  C   UNL     1      -7.717   6.327  -1.096  0.00  0.00    +0.004 A 
ATOM     29  C   UNL     1      -6.385   6.311  -1.463  0.00  0.00    +0.046 A 
ENDBRANCH  23  24
ENDBRANCH  21  23
ENDBRANCH   2  17
BRANCH   1  30
ATOM     30  C   UNL     1      -4.180  -0.401  -2.935  0.00  0.00    +0.107 C 
BRANCH  30  31
ATOM     31  C   UNL     1      -2.700  -0.081  -2.714  0.00  0.00    +0.000 C 
BRANCH  31  32
ATOM     32  C   UNL     1      -2.171  -0.904  -1.538  0.00  0.00    -0.078 C 
BRANCH  32  34
ATOM     33  C   UNL     1      -0.609   0.806  -0.912  0.00  0.00    -0.097 C 
ATOM     34  N   UNL     1      -0.750  -0.596  -1.325  0.00  0.00    +0.376 N 
ATOM     35  C   UNL     1      -0.211  -1.472  -0.277  0.00  0.00    -0.097 C 
ATOM     36  H   UNL     1      -0.241  -0.747  -2.184  0.00  0.00    -0.083 HD
ENDBRANCH  32  34
ENDBRANCH  31  32
ENDBRANCH  30  31
ENDBRANCH   1  30
TORSDOF 7
