REMARK  Name = ZINC38891789
REMARK  10 active torsions:
REMARK  status: ('A' for Active; 'I' for Inactive)
REMARK    1  A    between atoms: C_1  and  C_2
REMARK    2  A    between atoms: C_5  and  C_8
REMARK    3  A    between atoms: C_10  and  C_13
REMARK    4  A    between atoms: C_13  and  N_14
REMARK    5  A    between atoms: C_18  and  C_21
REMARK    6  A    between atoms: N_23  and  C_24
REMARK    7  A    between atoms: C_24  and  C_26
REMARK    8  A    between atoms: C_24  and  C_27
REMARK    9  A    between atoms: C_30  and  N_33
REMARK   10  A    between atoms: C_37  and  C_40
REMARK                            x       y       z     vdW  Elec       q    Type
REMARK                         _______ _______ _______ _____ _____    ______ ____
ROOT
ATOM      1  N   UNL     1      -1.248  -7.931   1.917  0.00  0.00    +0.386 N 
ATOM      2  C   UNL     1      -1.893  -8.417   0.690  0.00  0.00    -0.078 C 
ATOM      3  C   UNL     1      -3.356  -8.757   0.979  0.00  0.00    -0.018 C 
ATOM      4  C   UNL     1      -3.420  -9.844   2.056  0.00  0.00    +0.009 C 
ATOM      5  C   UNL     1      -2.680  -9.355   3.305  0.00  0.00    +0.058 C 
ATOM      6  C   UNL     1      -1.241  -8.993   2.930  0.00  0.00    -0.065 C 
ATOM      7  H   UNL     1      -1.757  -7.135   2.269  0.00  0.00    -0.081 HD
ENDROOT
BRANCH   5   8
ATOM      8  C   UNL     1      -2.671 -10.447   4.344  0.00  0.00    +0.215 C 
ATOM      9  O   UNL     1      -1.617 -10.890   4.748  0.00  0.00    -0.276 OA
ATOM     10  N   UNL     1      -3.834 -10.930   4.823  0.00  0.00    -0.309 N 
ATOM     11  H   UNL     1      -4.677 -10.576   4.500  0.00  0.00    +0.149 HD
BRANCH  10  12
ATOM     12  C   UNL     1      -3.825 -11.991   5.833  0.00  0.00    +0.100 C 
ATOM     13  C   UNL     1      -3.679 -11.371   7.224  0.00  0.00    +0.033 C 
BRANCH  12  14
ATOM     14  C   UNL     1      -5.117 -12.764   5.761  0.00  0.00    -0.027 A 
ATOM     15  C   UNL     1      -6.309 -12.097   5.545  0.00  0.00    +0.007 A 
ATOM     16  C   UNL     1      -7.495 -12.802   5.479  0.00  0.00    +0.023 A 
ATOM     17  C   UNL     1      -7.489 -14.183   5.629  0.00  0.00    +0.030 A 
ATOM     18  C   UNL     1      -6.290 -14.850   5.845  0.00  0.00    +0.023 A 
ATOM     19  C   UNL     1      -5.107 -14.139   5.905  0.00  0.00    +0.007 A 
BRANCH  17  20
ATOM     20  N   UNL     1      -8.686 -14.899   5.562  0.00  0.00    -0.330 N 
ATOM     21  C   UNL     1      -8.683 -16.368   5.599  0.00  0.00    +0.105 C 
ATOM     22  C   UNL     1      -9.622 -16.836   6.715  0.00  0.00    +0.019 C 
ATOM     23  C   UNL     1     -11.005 -16.215   6.506  0.00  0.00    +0.006 C 
ATOM     24  C   UNL     1     -10.897 -14.690   6.573  0.00  0.00    +0.003 C 
ATOM     25  C   UNL     1      -9.973 -14.198   5.461  0.00  0.00    +0.108 C 
ATOM     26  C   UNL     1     -12.286 -14.072   6.397  0.00  0.00    +0.009 C 
ENDBRANCH  17  20
ENDBRANCH  12  14
ENDBRANCH  10  12
ENDBRANCH   5   8
BRANCH   1  27
ATOM     27  C   UNL     1       0.134  -7.534   1.617  0.00  0.00    +0.022 C 
BRANCH  27  30
ATOM     28  C   UNL     1       0.105  -4.328  -0.084  0.00  0.00    +0.202 A 
ATOM     29  N   UNL     1       0.108  -5.105   1.013  0.00  0.00    -0.193 NA
ATOM     30  C   UNL     1       0.125  -6.362   0.670  0.00  0.00    +0.211 A 
ATOM     31  O   UNL     1       0.135  -6.436  -0.667  0.00  0.00    -0.340 OA
ATOM     32  N   UNL     1       0.117  -5.098  -1.143  0.00  0.00    -0.056 NA
BRANCH  28  37
ATOM     33  C   UNL     1       0.032   1.431  -0.120  0.00  0.00    +0.044 C 
ATOM     34  C   UNL     1       0.051  -0.075  -0.111  0.00  0.00    -0.050 A 
ATOM     35  C   UNL     1       0.062  -0.772  -1.306  0.00  0.00    +0.004 A 
ATOM     36  C   UNL     1       0.080  -2.152  -1.303  0.00  0.00    +0.012 A 
ATOM     37  C   UNL     1       0.087  -2.844  -0.093  0.00  0.00    +0.022 A 
ATOM     38  C   UNL     1       0.075  -2.137   1.107  0.00  0.00    +0.012 A 
ATOM     39  C   UNL     1       0.063  -0.757   1.093  0.00  0.00    +0.004 A 
ENDBRANCH  28  37
ENDBRANCH  27  30
ENDBRANCH   1  27
TORSDOF 7
