REMARK  Name = ZINC02852780
REMARK  10 active torsions:
REMARK  status: ('A' for Active; 'I' for Inactive)
REMARK    1  A    between atoms: C_1  and  C_2
REMARK    2  A    between atoms: C_5  and  S_8
REMARK    3  A    between atoms: S_8  and  N_11
REMARK    4  A    between atoms: N_11  and  C_12
REMARK    5  A    between atoms: N_11  and  C_24
REMARK    6  A    between atoms: C_12  and  C_13
REMARK    7  A    between atoms: N_15  and  C_16
REMARK    8  A    between atoms: C_27  and  C_30
REMARK    9  A    between atoms: C_30  and  C_31
REMARK   10  A    between atoms: C_30  and  C_32
REMARK                            x       y       z     vdW  Elec       q    Type
REMARK                         _______ _______ _______ _____ _____    ______ ____
ROOT
ATOM      1  N   UNL     1       0.546  -1.232  -0.179  0.00  0.00    -0.194 N 
ENDROOT
BRANCH   1   2
ATOM      2  C   UNL     1      -0.088  -0.002   0.004  0.00  0.00    +0.052 A 
ATOM      3  C   UNL     1      -1.169   0.102   0.869  0.00  0.00    +0.025 A 
ATOM      4  C   UNL     1      -1.794   1.321   1.048  0.00  0.00    +0.006 A 
ATOM      5  C   UNL     1      -1.345   2.437   0.367  0.00  0.00    -0.045 A 
ATOM      6  C   UNL     1      -0.268   2.337  -0.496  0.00  0.00    +0.006 A 
ATOM      7  C   UNL     1       0.361   1.121  -0.679  0.00  0.00    +0.025 A 
BRANCH   5   8
ATOM      8  C   UNL     1      -2.029   3.765   0.564  0.00  0.00    +0.013 C 
ATOM      9  C   UNL     1      -1.023   4.781   1.108  0.00  0.00    +0.012 C 
ATOM     10  C   UNL     1      -2.580   4.259  -0.775  0.00  0.00    +0.012 C 
ENDBRANCH   5   8
ENDBRANCH   1   2
BRANCH   1  11
ATOM     11  S   UNL     1       2.136  -1.416   0.248  0.00  0.00    +0.075 S 
ATOM     12  O   UNL     1       2.605  -2.577  -0.424  0.00  0.00    -0.150 OA
ATOM     13  O   UNL     1       2.749  -0.144   0.089  0.00  0.00    -0.150 OA
BRANCH  11  18
ATOM     14  C   UNL     1       2.266  -2.667   6.149  0.00  0.00    +0.044 C 
ATOM     15  C   UNL     1       2.234  -2.355   4.675  0.00  0.00    -0.050 A 
ATOM     16  C   UNL     1       2.149  -3.381   3.752  0.00  0.00    +0.005 A 
ATOM     17  C   UNL     1       2.120  -3.094   2.401  0.00  0.00    +0.029 A 
ATOM     18  C   UNL     1       2.174  -1.781   1.971  0.00  0.00    +0.109 A 
ATOM     19  C   UNL     1       2.263  -0.755   2.893  0.00  0.00    +0.029 A 
ATOM     20  C   UNL     1       2.288  -1.042   4.245  0.00  0.00    +0.005 A 
ENDBRANCH  11  18
ENDBRANCH   1  11
BRANCH   1  21
ATOM     21  C   UNL     1      -0.194  -2.361  -0.748  0.00  0.00    +0.227 C 
BRANCH  21  22
ATOM     22  C   UNL     1      -0.154  -2.280  -2.253  0.00  0.00    +0.236 C 
ATOM     23  O   UNL     1       0.435  -1.370  -2.796  0.00  0.00    -0.274 OA
ATOM     24  N   UNL     1      -0.773  -3.220  -2.995  0.00  0.00    -0.280 N 
ATOM     25  H   UNL     1      -1.283  -3.922  -2.561  0.00  0.00    +0.155 HD
BRANCH  24  26
ATOM     26  C   UNL     1      -0.680  -3.183  -4.393  0.00  0.00    +0.105 A 
ATOM     27  C   UNL     1      -1.752  -3.598  -5.174  0.00  0.00    +0.147 A 
ATOM     28  C   UNL     1      -1.657  -3.556  -6.553  0.00  0.00    +0.040 A 
ATOM     29  C   UNL     1      -0.495  -3.110  -7.155  0.00  0.00    +0.006 A 
ATOM     30  C   UNL     1       0.575  -2.700  -6.382  0.00  0.00    +0.040 A 
ATOM     31  C   UNL     1       0.487  -2.736  -5.002  0.00  0.00    +0.147 A 
ATOM     32  F   UNL     1       1.533  -2.336  -4.246  0.00  0.00    -0.203 F 
ATOM     33  F   UNL     1      -2.886  -4.040  -4.587  0.00  0.00    -0.203 F 
ENDBRANCH  24  26
ENDBRANCH  21  22
ENDBRANCH   1  21
TORSDOF 7
