REMARK  Name = ZINC64502366
REMARK  6 active torsions:
REMARK  status: ('A' for Active; 'I' for Inactive)
REMARK    1  A    between atoms: C_1  and  N_2
REMARK    2  A    between atoms: C_10  and  N_14
REMARK    3  A    between atoms: C_18  and  C_21
REMARK    4  A    between atoms: N_23  and  C_24
REMARK    5  A    between atoms: C_24  and  C_25
REMARK    6  A    between atoms: C_25  and  C_26
REMARK                            x       y       z     vdW  Elec       q    Type
REMARK                         _______ _______ _______ _____ _____    ______ ____
ROOT
ATOM      1  N   UNL     1       1.498  -2.603   1.249  0.00  0.00    -0.276 NA
ATOM      2  C   UNL     1       2.236  -2.124   0.073  0.00  0.00    +0.086 C 
ATOM      3  C   UNL     1       3.722  -2.457   0.232  0.00  0.00    +0.016 C 
ATOM      4  C   UNL     1       3.887  -3.972   0.380  0.00  0.00    +0.015 C 
ATOM      5  C   UNL     1       3.069  -4.453   1.582  0.00  0.00    +0.089 C 
ATOM      6  C   UNL     1       1.603  -4.062   1.384  0.00  0.00    +0.099 C 
ENDROOT
BRANCH   1  16
ATOM      7  C   UNL     1      -0.018   1.461   0.010  0.00  0.00    +0.140 C 
ATOM      8  N   UNL     1       0.002  -0.004   0.002  0.00  0.00    -0.255 N 
ATOM      9  C   UNL     1       0.006  -0.686  -1.215  0.00  0.00    +0.148 A 
ATOM     10  C   UNL     1      -0.274  -2.056  -1.233  0.00  0.00    +0.069 A 
ATOM     11  C   UNL     1      -0.280  -2.739  -2.437  0.00  0.00    +0.028 A 
ATOM     12  C   UNL     1       0.001  -2.024  -3.596  0.00  0.00    +0.022 A 
ATOM     13  C   UNL     1       0.273  -0.674  -3.507  0.00  0.00    +0.113 A 
ATOM     14  N   UNL     1       0.269  -0.049  -2.344  0.00  0.00    -0.238 NA
ATOM     15  N   UNL     1      -0.537  -2.711  -0.024  0.00  0.00    -0.319 N 
ATOM     16  C   UNL     1       0.092  -2.180   1.196  0.00  0.00    +0.230 C 
ATOM     17  C   UNL     1       0.022  -0.675   1.169  0.00  0.00    +0.256 C 
ATOM     18  O   UNL     1      -0.021  -0.059   2.213  0.00  0.00    -0.272 OA
ATOM     19  H   UNL     1      -1.115  -3.490   0.009  0.00  0.00    +0.148 HD
ENDBRANCH   1  16
BRANCH   5  20
ATOM     20  C   UNL     1       3.180  -5.951   1.699  0.00  0.00    +0.217 C 
ATOM     21  O   UNL     1       2.184  -6.640   1.635  0.00  0.00    -0.275 OA
ATOM     22  N   UNL     1       4.386  -6.526   1.876  0.00  0.00    -0.315 N 
ATOM     23  H   UNL     1       5.183  -5.975   1.928  0.00  0.00    +0.149 HD
BRANCH  22  24
ATOM     24  C   UNL     1       4.494  -7.982   1.990  0.00  0.00    +0.108 C 
BRANCH  24  25
ATOM     25  C   UNL     1       5.961  -8.371   2.184  0.00  0.00    +0.052 C 
BRANCH  25  26
ATOM     26  C   UNL     1       6.072  -9.870   2.301  0.00  0.00    -0.040 C 
ATOM     27  C   UNL     1       6.351 -10.745   1.308  0.00  0.00    +0.000 A 
ATOM     28  C   UNL     1       6.624 -10.570  -0.123  0.00  0.00    +0.030 A 
ATOM     29  C   UNL     1       6.875 -11.662  -0.881  0.00  0.00    +0.042 A 
ATOM     30  C   UNL     1       6.880 -12.954  -0.335  0.00  0.00    +0.022 A 
ATOM     31  C   UNL     1       6.638 -13.194   0.972  0.00  0.00    +0.027 A 
ATOM     32  C   UNL     1       6.363 -12.118   1.861  0.00  0.00    +0.043 A 
ATOM     33  N   UNL     1       6.101 -12.093   3.145  0.00  0.00    -0.380 N 
ATOM     34  C   UNL     1       5.900 -10.699   3.554  0.00  0.00    +0.144 C 
ATOM     35 CL   UNL     1       7.199 -11.460  -2.575  0.00  0.00    -0.084 Cl
ATOM     36  H   UNL     1       6.052 -12.867   3.728  0.00  0.00    +0.160 HD
ENDBRANCH  25  26
ENDBRANCH  24  25
ENDBRANCH  22  24
ENDBRANCH   5  20
TORSDOF 5
