REMARK  Name = ZINC02415860
REMARK  6 active torsions:
REMARK  status: ('A' for Active; 'I' for Inactive)
REMARK    1  A    between atoms: C_1  and  C_2
REMARK    2  A    between atoms: C_6  and  S_8
REMARK    3  A    between atoms: S_8  and  C_11
REMARK    4  A    between atoms: N_22  and  N_25
REMARK    5  A    between atoms: C_23  and  N_24
REMARK    6  A    between atoms: C_26  and  C_27
REMARK                            x       y       z     vdW  Elec       q    Type
REMARK                         _______ _______ _______ _____ _____    ______ ____
ROOT
ATOM      1  C   UNL     1       1.745  -3.214   3.150  0.00  0.00    +0.162 A 
ATOM      2  C   UNL     1       2.554  -4.315   2.775  0.00  0.00    +0.137 A 
ATOM      3  C   UNL     1       3.872  -4.071   3.376  0.00  0.00    +0.184 A 
ATOM      4  N   UNL     1       4.841  -4.939   3.194  0.00  0.00    -0.224 NA
ATOM      5  C   UNL     1       4.621  -6.040   2.463  0.00  0.00    +0.092 A 
ATOM      6  C   UNL     1       5.653  -6.976   2.264  0.00  0.00    +0.030 A 
ATOM      7  C   UNL     1       5.422  -8.091   1.521  0.00  0.00    +0.002 A 
ATOM      8  C   UNL     1       4.172  -8.326   0.950  0.00  0.00    +0.002 A 
ATOM      9  C   UNL     1       3.150  -7.445   1.119  0.00  0.00    +0.030 A 
ATOM     10  C   UNL     1       3.350  -6.279   1.882  0.00  0.00    +0.090 A 
ATOM     11  N   UNL     1       2.351  -5.406   2.055  0.00  0.00    -0.240 NA
ATOM     12  N   UNL     1       3.771  -2.872   4.053  0.00  0.00    -0.197 N 
ATOM     13  C   UNL     1       2.498  -2.377   3.902  0.00  0.00    +0.148 A 
ENDROOT
BRANCH   1  14
ATOM     14  S   UNL     1       0.057  -2.973   2.709  0.00  0.00    +0.030 S 
ATOM     15  O   UNL     1      -0.500  -2.110   3.691  0.00  0.00    -0.164 OA
ATOM     16  O   UNL     1      -0.479  -4.260   2.433  0.00  0.00    -0.164 OA
BRANCH  14  22
ATOM     17  C   UNL     1      -0.018   1.503   0.010  0.00  0.00    +0.044 C 
ATOM     18  C   UNL     1       0.002  -0.004   0.002  0.00  0.00    -0.049 A 
ATOM     19  C   UNL     1       0.006  -0.689  -1.199  0.00  0.00    +0.003 A 
ATOM     20  C   UNL     1       0.025  -2.071  -1.207  0.00  0.00    +0.002 A 
ATOM     21  C   UNL     1       0.040  -2.768  -0.013  0.00  0.00    +0.027 A 
ATOM     22  C   UNL     1       0.037  -2.084   1.188  0.00  0.00    +0.094 A 
ATOM     23  C   UNL     1       0.023  -0.702   1.195  0.00  0.00    +0.030 A 
ENDBRANCH  14  22
ENDBRANCH   1  14
BRANCH  13  24
ATOM     24  N   UNL     1       2.047  -1.187   4.445  0.00  0.00    -0.341 N 
ATOM     25  H   UNL     1       1.132  -0.902   4.297  0.00  0.00    +0.144 HD
ATOM     26  H   UNL     1       2.646  -0.637   4.975  0.00  0.00    +0.144 HD
ENDBRANCH  13  24
BRANCH  12  27
ATOM     27  N   UNL     1       4.802  -2.258   4.776  0.00  0.00    -0.168 NA
ATOM     28  C   UNL     1       5.601  -1.420   4.183  0.00  0.00    +0.179 C 
BRANCH  28  29
ATOM     29  C   UNL     1       6.680  -0.776   4.939  0.00  0.00    +0.147 A 
ATOM     30  C   UNL     1       7.581   0.121   4.444  0.00  0.00    +0.051 A 
ATOM     31  C   UNL     1       8.428   0.475   5.510  0.00  0.00    +0.042 A 
ATOM     32  C   UNL     1       8.011  -0.213   6.593  0.00  0.00    +0.196 A 
ATOM     33  O   UNL     1       6.952  -0.964   6.246  0.00  0.00    -0.462 OA
ENDBRANCH  28  29
ENDBRANCH  12  27
TORSDOF 5
