REMARK  Name = ZINC13425302
REMARK  4 active torsions:
REMARK  status: ('A' for Active; 'I' for Inactive)
REMARK    1  A    between atoms: C_1  and  C_2
REMARK    2  A    between atoms: C_15  and  C_17
REMARK    3  A    between atoms: C_21  and  C_32
REMARK    4  A    between atoms: C_24  and  C_28
REMARK                            x       y       z     vdW  Elec       q    Type
REMARK                         _______ _______ _______ _____ _____    ______ ____
ROOT
ATOM      1  C   UNL     1       4.734  -1.360  -1.237  0.00  0.00    +0.110 C 
ATOM      2  C   UNL     1       4.343  -1.099  -2.509  0.00  0.00    +0.072 C 
ATOM      3  C   UNL     1       5.348  -1.679  -3.399  0.00  0.00    +0.114 C 
ATOM      4  N   UNL     1       5.403  -1.695  -4.700  0.00  0.00    -0.365 N 
ATOM      5  C   UNL     1       6.517  -2.388  -5.359  0.00  0.00    +0.113 C 
ATOM      6  C   UNL     1       7.783  -2.302  -4.506  0.00  0.00    +0.062 C 
ATOM      7  C   UNL     1       7.516  -2.906  -3.119  0.00  0.00    +0.201 C 
ATOM      8  N   UNL     1       6.317  -2.252  -2.584  0.00  0.00    -0.226 N 
ATOM      9  N   UNL     1       5.926  -2.065  -1.263  0.00  0.00    -0.258 N 
ATOM     10  H   UNL     1       6.410  -2.380  -0.483  0.00  0.00    +0.170 HD
ATOM     11  H   UNL     1       4.717  -1.255  -5.227  0.00  0.00    +0.161 HD
ENDROOT
BRANCH   1  23
ATOM     12  C   UNL     1       0.715  -3.765   1.879  0.00  0.00    +0.008 C 
ATOM     13  C   UNL     1       2.204  -3.914   2.199  0.00  0.00    -0.008 C 
ATOM     14  C   UNL     1       2.977  -4.210   0.909  0.00  0.00    +0.022 C 
ATOM     15  C   UNL     1       2.768  -3.069  -0.090  0.00  0.00    +0.109 C 
ATOM     16  N   UNL     1       3.120  -1.794   0.553  0.00  0.00    -0.293 N 
ATOM     17  C   UNL     1       2.482  -1.464   1.832  0.00  0.00    +0.080 C 
ATOM     18  C   UNL     1       2.727  -2.616   2.813  0.00  0.00    +0.012 C 
ATOM     19  C   UNL     1       2.012  -2.316   4.129  0.00  0.00    +0.005 C 
ATOM     20  C   UNL     1       2.583  -1.024   4.723  0.00  0.00    +0.000 C 
ATOM     21  C   UNL     1       2.377   0.133   3.744  0.00  0.00    +0.002 C 
ATOM     22  C   UNL     1       3.071  -0.178   2.411  0.00  0.00    +0.023 C 
ATOM     23  C   UNL     1       4.005  -0.952  -0.016  0.00  0.00    +0.262 C 
ATOM     24  O   UNL     1       4.205   0.142   0.473  0.00  0.00    -0.269 OA
ENDBRANCH   1  23
BRANCH   5  25
ATOM     25  C   UNL     1       6.777  -1.749  -6.699  0.00  0.00    -0.025 A 
ATOM     26  C   UNL     1       6.717  -0.374  -6.832  0.00  0.00    +0.005 A 
ATOM     27  C   UNL     1       6.956   0.212  -8.061  0.00  0.00    +0.000 A 
ATOM     28  C   UNL     1       7.255  -0.577  -9.157  0.00  0.00    +0.000 A 
ATOM     29  C   UNL     1       7.315  -1.951  -9.023  0.00  0.00    +0.000 A 
ATOM     30  C   UNL     1       7.081  -2.537  -7.793  0.00  0.00    +0.005 A 
ENDBRANCH   5  25
BRANCH   7  31
ATOM     31  C   UNL     1       8.709  -2.645  -2.197  0.00  0.00    +0.410 C 
ATOM     32  F   UNL     1       8.906  -1.266  -2.070  0.00  0.00    -0.169 F 
ATOM     33  F   UNL     1       8.456  -3.199  -0.938  0.00  0.00    -0.169 F 
ATOM     34  F   UNL     1       9.856  -3.231  -2.743  0.00  0.00    -0.169 F 
ENDBRANCH   7  31
TORSDOF 3
