REMARK  Name = ZINC25453713
REMARK  6 active torsions:
REMARK  status: ('A' for Active; 'I' for Inactive)
REMARK    1  A    between atoms: C_1  and  C_2
REMARK    2  A    between atoms: C_13  and  C_15
REMARK    3  A    between atoms: C_15  and  C_16
REMARK    4  A    between atoms: C_25  and  C_31
REMARK    5  A    between atoms: C_31  and  O_33
REMARK    6  A    between atoms: O_33  and  C_34
REMARK                            x       y       z     vdW  Elec       q    Type
REMARK                         _______ _______ _______ _____ _____    ______ ____
ROOT
ATOM      1  C   UNL     1       1.395   2.047  -0.000  0.00  0.00    +0.218 C 
ATOM      2  O   UNL     1       2.328   1.272  -0.013  0.00  0.00    -0.276 OA
ATOM      3  N   UNL     1       1.623   3.376   0.005  0.00  0.00    -0.297 N 
ATOM      4  C   UNL     1       0.508   4.334   0.014  0.00  0.00    +0.114 C 
ATOM      5  C   UNL     1       0.550   5.131   1.329  0.00  0.00    +0.072 C 
ATOM      6  C   UNL     1       1.969   5.579   1.587  0.00  0.00    +0.023 A 
ATOM      7  C   UNL     1       3.054   5.033   0.999  0.00  0.00    -0.002 A 
ATOM      8  C   UNL     1       4.216   5.726   1.517  0.00  0.00    +0.005 A 
ATOM      9  C   UNL     1       5.583   5.591   1.277  0.00  0.00    +0.025 A 
ATOM     10  C   UNL     1       6.429   6.457   1.977  0.00  0.00    +0.060 A 
ATOM     11  C   UNL     1       5.926   7.409   2.871  0.00  0.00    +0.017 A 
ATOM     12  C   UNL     1       4.585   7.548   3.113  0.00  0.00    +0.027 A 
ATOM     13  C   UNL     1       3.717   6.696   2.427  0.00  0.00    +0.047 A 
ATOM     14  N   UNL     1       2.361   6.578   2.442  0.00  0.00    -0.358 N 
ATOM     15  H   UNL     1       1.607   7.143   3.010  0.00  0.00    +0.166 HD
ATOM     16  C   UNL     1       2.998   3.908  -0.006  0.00  0.00    +0.145 C 
ENDROOT
BRANCH  10  17
ATOM     17  C   UNL     1       7.886   6.366   1.767  0.00  0.00    +0.339 C 
ATOM     18  O   UNL     1       8.338   5.545   0.994  0.00  0.00    -0.245 OA
BRANCH  17  19
ATOM     19  O   UNL     1       8.716   7.193   2.433  0.00  0.00    -0.464 OA
ATOM     20  C   UNL     1      10.138   7.046   2.178  0.00  0.00    +0.280 C 
ENDBRANCH  17  19
ENDBRANCH  10  17
BRANCH   1  21
ATOM     21  C   UNL     1      -0.019   1.526   0.010  0.00  0.00    +0.123 C 
BRANCH  21  34
ATOM     22  C   UNL     1       2.478  -1.463   2.536  0.00  0.00    +0.109 C 
ATOM     23  C   UNL     1       1.865  -0.961   1.254  0.00  0.00    +0.217 C 
ATOM     24  O   UNL     1       2.510  -0.977   0.227  0.00  0.00    -0.276 OA
ATOM     25  N   UNL     1       0.601  -0.494   1.249  0.00  0.00    -0.270 N 
ATOM     26  C   UNL     1      -0.144  -0.475   2.424  0.00  0.00    +0.079 C 
ATOM     27  C   UNL     1      -1.471  -0.640   2.371  0.00  0.00    +0.023 C 
ATOM     28  C   UNL     1      -2.125  -0.809   1.059  0.00  0.00    -0.019 A 
ATOM     29  C   UNL     1      -3.438  -1.270   0.972  0.00  0.00    +0.008 A 
ATOM     30  C   UNL     1      -4.014  -1.459  -0.269  0.00  0.00    +0.001 A 
ATOM     31  C   UNL     1      -3.293  -1.191  -1.419  0.00  0.00    +0.000 A 
ATOM     32  C   UNL     1      -1.992  -0.725  -1.338  0.00  0.00    +0.006 A 
ATOM     33  C   UNL     1      -1.408  -0.527  -0.106  0.00  0.00    -0.019 A 
ATOM     34  C   UNL     1       0.002  -0.004   0.002  0.00  0.00    +0.120 C 
ENDBRANCH  21  34
ENDBRANCH   1  21
TORSDOF 4
