REMARK  Name = ZINC31046913
REMARK  10 active torsions:
REMARK  status: ('A' for Active; 'I' for Inactive)
REMARK    1  A    between atoms: C_5  and  C_7
REMARK    2  A    between atoms: C_7  and  S_8
REMARK    3  A    between atoms: S_8  and  C_9
REMARK    4  A    between atoms: C_9  and  C_10
REMARK    5  A    between atoms: C_10  and  C_11
REMARK    6  A    between atoms: C_11  and  N_12
REMARK    7  A    between atoms: C_13  and  C_15
REMARK    8  A    between atoms: N_20  and  C_22
REMARK    9  A    between atoms: C_22  and  C_23
REMARK   10  A    between atoms: C_25  and  C_28
REMARK                            x       y       z     vdW  Elec       q    Type
REMARK                         _______ _______ _______ _____ _____    ______ ____
ROOT
ATOM      1  C   UNL     1      -4.429  -4.420   0.021  0.00  0.00    +0.058 C 
ATOM      2  C   UNL     1      -5.145  -3.931   1.283  0.00  0.00    +0.009 C 
ATOM      3  C   UNL     1      -6.560  -4.514   1.316  0.00  0.00    -0.018 C 
ATOM      4  C   UNL     1      -6.479  -6.042   1.270  0.00  0.00    -0.078 C 
ATOM      5  N   UNL     1      -5.786  -6.460   0.044  0.00  0.00    +0.386 N 
ATOM      6  C   UNL     1      -4.409  -5.951   0.012  0.00  0.00    -0.065 C 
ATOM      7  H   UNL     1      -6.325  -6.024  -0.810  0.00  0.00    -0.081 HD
ENDROOT
BRANCH   1   9
ATOM      8  N   UNL     1      -2.787  -2.571   0.015  0.00  0.00    -0.315 N 
ATOM      9  C   UNL     1      -3.015  -3.899   0.010  0.00  0.00    +0.214 C 
ATOM     10  O   UNL     1      -2.083  -4.674  -0.003  0.00  0.00    -0.276 OA
ATOM     11  H   UNL     1      -3.633  -1.867   0.027  0.00  0.00    +0.149 HD
BRANCH   8  12
ATOM     12  C   UNL     1      -1.413  -2.063   0.004  0.00  0.00    +0.105 C 
BRANCH  12  13
ATOM     13  C   UNL     1      -1.433  -0.534   0.013  0.00  0.00    +0.029 C 
BRANCH  13  14
ATOM     14  C   UNL     1       0.002  -0.004   0.002  0.00  0.00    +0.071 C 
BRANCH  14  15
ATOM     15  S   UNL     1      -0.022   1.810   0.012  0.00  0.00    -0.156 S 
BRANCH  15  16
ATOM     16  C   UNL     1       1.731   2.272  -0.002  0.00  0.00    +0.107 C 
BRANCH  16  21
ATOM     17  C   UNL     1       2.013   5.848  -1.183  0.00  0.00    +0.000 A 
ATOM     18  C   UNL     1       2.081   6.531   0.017  0.00  0.00    +0.003 A 
ATOM     19  C   UNL     1       2.036   5.838   1.211  0.00  0.00    +0.038 A 
ATOM     20  C   UNL     1       1.923   4.458   1.206  0.00  0.00    +0.127 A 
ATOM     21  C   UNL     1       1.855   3.774   0.005  0.00  0.00    -0.002 A 
ATOM     22  C   UNL     1       1.906   4.469  -1.189  0.00  0.00    +0.007 A 
ATOM     23  F   UNL     1       1.879   3.779   2.374  0.00  0.00    -0.205 F 
ENDBRANCH  16  21
ENDBRANCH  15  16
ENDBRANCH  14  15
ENDBRANCH  13  14
ENDBRANCH  12  13
ENDBRANCH   8  12
ENDBRANCH   1   9
BRANCH   5  24
ATOM     24  C   UNL     1      -5.811  -7.921  -0.103  0.00  0.00    +0.022 C 
BRANCH  24  25
ATOM     25  C   UNL     1      -7.231  -8.381  -0.312  0.00  0.00    +0.211 A 
ATOM     26  N   UNL     1      -7.845  -8.511  -1.461  0.00  0.00    -0.193 NA
ATOM     27  C   UNL     1      -9.089  -8.947  -1.161  0.00  0.00    +0.202 A 
ATOM     28  N   UNL     1      -9.159  -9.049   0.141  0.00  0.00    -0.056 NA
ATOM     29  O   UNL     1      -8.102  -8.727   0.641  0.00  0.00    -0.340 OA
BRANCH  27  30
ATOM     30  C   UNL     1     -10.174  -9.251  -2.128  0.00  0.00    +0.023 A 
ATOM     31  C   UNL     1      -9.956  -9.091  -3.495  0.00  0.00    +0.013 A 
ATOM     32  C   UNL     1     -10.966  -9.381  -4.390  0.00  0.00    +0.021 A 
ATOM     33  C   UNL     1     -12.197  -9.817  -3.931  0.00  0.00    +0.041 A 
ATOM     34  C   UNL     1     -12.419  -9.971  -2.573  0.00  0.00    +0.021 A 
ATOM     35  C   UNL     1     -11.414  -9.691  -1.671  0.00  0.00    +0.013 A 
ATOM     36 CL   UNL     1     -13.465 -10.172  -5.062  0.00  0.00    -0.084 Cl
ENDBRANCH  27  30
ENDBRANCH  24  25
ENDBRANCH   5  24
TORSDOF 10
