REMARK  Name = ZINC37317259
REMARK  4 active torsions:
REMARK  status: ('A' for Active; 'I' for Inactive)
REMARK    1  A    between atoms: C_1  and  C_2
REMARK    2  A    between atoms: C_2  and  C_4
REMARK    3  A    between atoms: C_2  and  N_13
REMARK    4  A    between atoms: N_13  and  C_14
REMARK                            x       y       z     vdW  Elec       q    Type
REMARK                         _______ _______ _______ _____ _____    ______ ____
ROOT
ATOM      1  N   UNL     1       0.688  -0.476  -1.203  0.00  0.00    -0.337 N 
ATOM      2  H   UNL     1       1.632  -0.695  -1.170  0.00  0.00    +0.147 HD
ENDROOT
BRANCH   1   3
ATOM      3  C   UNL     1      -0.018  -0.613  -2.400  0.00  0.00    +0.030 A 
ATOM      4  C   UNL     1      -1.377  -0.292  -2.444  0.00  0.00    +0.024 A 
ATOM      5  C   UNL     1      -2.082  -0.419  -3.603  0.00  0.00    +0.013 A 
ATOM      6  C   UNL     1      -1.443  -0.875  -4.762  0.00  0.00    +0.020 A 
ATOM      7  C   UNL     1      -1.885  -1.120  -6.131  0.00  0.00    +0.142 A 
ATOM      8  N   UNL     1      -0.860  -1.547  -6.811  0.00  0.00    -0.181 NA
ATOM      9  N   UNL     1       0.270  -1.610  -5.988  0.00  0.00    -0.277 N 
ATOM     10  H   UNL     1       1.153  -1.898  -6.266  0.00  0.00    +0.189 HD
ATOM     11  C   UNL     1      -0.073  -1.200  -4.726  0.00  0.00    +0.067 A 
ATOM     12  C   UNL     1       0.634  -1.059  -3.535  0.00  0.00    +0.050 A 
ENDBRANCH   1   3
BRANCH   1  14
ATOM     13  C   UNL     1      -0.019   1.526   0.010  0.00  0.00    +0.033 C 
ATOM     14  C   UNL     1       0.002  -0.004   0.002  0.00  0.00    +0.098 C 
BRANCH  14  15
ATOM     15  C   UNL     1       0.731  -0.503   1.223  0.00  0.00    -0.027 A 
ATOM     16  C   UNL     1       2.114  -0.515   1.249  0.00  0.00    +0.009 A 
ATOM     17  C   UNL     1       2.785  -0.967   2.366  0.00  0.00    +0.046 A 
ATOM     18  C   UNL     1       2.076  -1.416   3.477  0.00  0.00    +0.124 A 
ATOM     19  C   UNL     1       0.688  -1.407   3.436  0.00  0.00    -0.002 A 
ATOM     20  C   UNL     1       0.019  -0.946   2.324  0.00  0.00    +0.012 A 
ATOM     21  C   UNL     1       0.201  -1.966   4.758  0.00  0.00    +0.080 C 
ATOM     22  C   UNL     1       1.482  -2.627   5.318  0.00  0.00    +0.234 C 
ATOM     23  O   UNL     1       2.531  -1.886   4.671  0.00  0.00    -0.491 OA
ENDBRANCH  14  15
ENDBRANCH   1  14
TORSDOF 3
