REMARK  Name = ZINC01078841
REMARK  10 active torsions:
REMARK  status: ('A' for Active; 'I' for Inactive)
REMARK    1  A    between atoms: C_1  and  C_2
REMARK    2  A    between atoms: C_3  and  C_19
REMARK    3  A    between atoms: C_4  and  C_10
REMARK    4  A    between atoms: C_15  and  O_16
REMARK    5  A    between atoms: O_16  and  C_17
REMARK    6  A    between atoms: N_21  and  C_22
REMARK    7  A    between atoms: C_25  and  O_30
REMARK    8  A    between atoms: C_27  and  O_28
REMARK    9  A    between atoms: O_28  and  C_29
REMARK   10  A    between atoms: O_30  and  C_31
REMARK                            x       y       z     vdW  Elec       q    Type
REMARK                         _______ _______ _______ _____ _____    ______ ____
ROOT
ATOM      1  C   UNL     1       8.142   1.548   0.343  0.00  0.00    +0.061 C 
ATOM      2  C   UNL     1       8.335   3.032   0.169  0.00  0.00    +0.017 C 
ATOM      3  C   UNL     1       7.254   3.832   0.048  0.00  0.00    +0.056 C 
ATOM      4  C   UNL     1       7.493   5.318  -0.132  0.00  0.00    +0.143 C 
ATOM      5  N   UNL     1       8.894   5.771  -0.147  0.00  0.00    -0.315 N 
ATOM      6  C   UNL     1       9.868   4.849  -0.014  0.00  0.00    +0.135 C 
ATOM      7  S   UNL     1      11.501   5.361  -0.038  0.00  0.00    -0.019 S 
ATOM      8  N   UNL     1       9.600   3.546   0.136  0.00  0.00    -0.300 N 
ATOM      9  H   UNL     1       9.110   6.711  -0.254  0.00  0.00    +0.149 HD
ATOM     10  H   UNL     1      10.345   2.933   0.227  0.00  0.00    +0.154 HD
ENDROOT
BRANCH   4  11
ATOM     11  C   UNL     1       6.849   5.738  -1.428  0.00  0.00    +0.020 A 
ATOM     12  C   UNL     1       7.587   5.746  -2.596  0.00  0.00    +0.024 A 
ATOM     13  C   UNL     1       6.996   6.133  -3.785  0.00  0.00    +0.018 A 
ATOM     14  C   UNL     1       5.666   6.513  -3.808  0.00  0.00    +0.019 A 
ATOM     15  C   UNL     1       4.925   6.506  -2.643  0.00  0.00    +0.047 A 
ATOM     16  C   UNL     1       5.513   6.113  -1.450  0.00  0.00    +0.125 A 
ATOM     17 BR   UNL     1       8.009   6.143  -5.382  0.00  0.00    -0.050 Br
BRANCH  16  18
ATOM     18  O   UNL     1       4.784   6.101  -0.302  0.00  0.00    -0.495 OA
ATOM     19  C   UNL     1       3.392   6.401  -0.416  0.00  0.00    +0.277 C 
ENDBRANCH  16  18
ENDBRANCH   4  11
BRANCH   3  20
ATOM     20  C   UNL     1       5.942   3.300   0.081  0.00  0.00    +0.248 C 
ATOM     21  O   UNL     1       5.248   3.452   1.070  0.00  0.00    -0.270 OA
ATOM     22  N   UNL     1       5.461   2.626  -0.982  0.00  0.00    -0.279 N 
ATOM     23  H   UNL     1       5.984   2.568  -1.797  0.00  0.00    +0.155 HD
BRANCH  22  24
ATOM     24  C   UNL     1       4.203   2.009  -0.911  0.00  0.00    +0.076 A 
ATOM     25  C   UNL     1       3.641   1.718   0.324  0.00  0.00    +0.030 A 
ATOM     26  C   UNL     1       2.403   1.111   0.394  0.00  0.00    +0.047 A 
ATOM     27  C   UNL     1       1.718   0.789  -0.769  0.00  0.00    +0.124 A 
ATOM     28  C   UNL     1       2.278   1.072  -2.006  0.00  0.00    +0.093 A 
ATOM     29  C   UNL     1       3.518   1.686  -2.080  0.00  0.00    +0.145 A 
BRANCH  29  30
ATOM     30  O   UNL     1       4.066   1.969  -3.291  0.00  0.00    -0.493 OA
ATOM     31  C   UNL     1       3.264   1.706  -4.444  0.00  0.00    +0.277 C 
ENDBRANCH  29  30
BRANCH  27  32
ATOM     32  O   UNL     1       0.499   0.190  -0.696  0.00  0.00    -0.495 OA
ATOM     33  C   UNL     1      -0.015  -0.078   0.610  0.00  0.00    +0.277 C 
ENDBRANCH  27  32
ENDBRANCH  22  24
ENDBRANCH   3  20
TORSDOF 6
