REMARK  Name = ZINC18198858
REMARK  7 active torsions:
REMARK  status: ('A' for Active; 'I' for Inactive)
REMARK    1  A    between atoms: C_1  and  C_2
REMARK    2  A    between atoms: C_5  and  C_9
REMARK    3  A    between atoms: C_7  and  C_8
REMARK    4  A    between atoms: C_12  and  C_38
REMARK    5  A    between atoms: N_14  and  C_30
REMARK    6  A    between atoms: C_22  and  C_25
REMARK    7  A    between atoms: C_35  and  C_36
REMARK                            x       y       z     vdW  Elec       q    Type
REMARK                         _______ _______ _______ _____ _____    ______ ____
ROOT
ATOM      1  C   UNL     1       5.597   8.164  -0.068  0.00  0.00    +0.089 C 
ATOM      2  C   UNL     1       6.154   7.891  -1.436  0.00  0.00    +0.027 A 
ATOM      3  C   UNL     1       7.472   7.876  -1.872  0.00  0.00    +0.066 A 
ATOM      4  N   UNL     1       7.481   7.593  -3.153  0.00  0.00    -0.170 NA
ATOM      5  N   UNL     1       6.154   7.416  -3.580  0.00  0.00    -0.217 N 
ATOM      6  C   UNL     1       5.353   7.602  -2.509  0.00  0.00    +0.131 A 
ATOM      7  N   UNL     1       3.971   7.539  -2.386  0.00  0.00    -0.302 N 
ATOM      8  C   UNL     1       3.428   7.470  -1.128  0.00  0.00    +0.017 C 
ATOM      9  C   UNL     1       4.145   7.738  -0.015  0.00  0.00    +0.024 C 
ATOM     10  C   UNL     1       3.563   7.634   1.261  0.00  0.00    +0.162 C 
ATOM     11  O   UNL     1       4.233   7.889   2.242  0.00  0.00    -0.292 OA
ATOM     12  C   UNL     1       2.131   7.214   1.440  0.00  0.00    +0.088 C 
ATOM     13  C   UNL     1       1.726   6.314   0.267  0.00  0.00    +0.039 C 
ATOM     14  C   UNL     1       1.970   7.081  -1.033  0.00  0.00    +0.060 C 
ATOM     15  C   UNL     1       8.686   8.140  -1.019  0.00  0.00    +0.068 C 
ATOM     16  H   UNL     1       3.403   7.543  -3.172  0.00  0.00    +0.153 HD
ENDROOT
BRANCH   1  21
ATOM     17  C   UNL     1       5.983  13.816   1.074  0.00  0.00    +0.044 C 
ATOM     18  C   UNL     1       5.883  12.342   0.776  0.00  0.00    -0.048 A 
ATOM     19  C   UNL     1       5.143  11.905  -0.307  0.00  0.00    +0.004 A 
ATOM     20  C   UNL     1       5.051  10.553  -0.580  0.00  0.00    +0.005 A 
ATOM     21  C   UNL     1       5.698   9.638   0.230  0.00  0.00    -0.035 A 
ATOM     22  C   UNL     1       6.432  10.075   1.316  0.00  0.00    +0.008 A 
ATOM     23  C   UNL     1       6.529  11.428   1.586  0.00  0.00    -0.047 A 
ATOM     24  C   UNL     1       7.334  11.904   2.767  0.00  0.00    +0.044 C 
ENDBRANCH   1  21
BRANCH   5  25
ATOM     25  C   UNL     1       5.740   7.106  -4.877  0.00  0.00    +0.082 A 
ATOM     26  C   UNL     1       5.443   5.794  -5.219  0.00  0.00    +0.029 A 
ATOM     27  C   UNL     1       5.029   5.490  -6.500  0.00  0.00    +0.002 A 
ATOM     28  C   UNL     1       4.915   6.487  -7.455  0.00  0.00    +0.001 A 
ATOM     29  C   UNL     1       5.211   7.795  -7.135  0.00  0.00    +0.017 A 
ATOM     30  C   UNL     1       5.626   8.118  -5.841  0.00  0.00    +0.089 A 
BRANCH  30  31
ATOM     31  C   UNL     1       5.944   9.515  -5.492  0.00  0.00    +0.389 C 
ATOM     32  O   UNL     1       6.211   9.808  -4.343  0.00  0.00    -0.241 OA
ATOM     33  O   UNL     1       5.939  10.466  -6.447  0.00  0.00    -0.241 OA
ENDBRANCH  30  31
ENDBRANCH   5  25
BRANCH  13  34
ATOM     34  C   UNL     1       0.266   5.958   0.380  0.00  0.00    -0.006 A 
ATOM     35  C   UNL     1      -0.308   4.735   0.493  0.00  0.00    +0.011 A 
ATOM     36  C   UNL     1      -1.685   4.647   0.585  0.00  0.00    +0.008 A 
ATOM     37  C   UNL     1      -2.420   5.785   0.553  0.00  0.00    +0.045 A 
ATOM     38  S   UNL     1      -1.156   7.037   0.402  0.00  0.00    -0.101 S 
ENDBRANCH  13  34
TORSDOF 4
