REMARK  Name = ZINC35747731
REMARK  15 active torsions:
REMARK  status: ('A' for Active; 'I' for Inactive)
REMARK    1  A    between atoms: C_1  and  C_2
REMARK    2  A    between atoms: C_5  and  C_38
REMARK    3  A    between atoms: C_6  and  C_8
REMARK    4  A    between atoms: C_17  and  C_19
REMARK    5  A    between atoms: C_19  and  N_20
REMARK    6  A    between atoms: N_20  and  C_21
REMARK    7  A    between atoms: N_20  and  C_34
REMARK    8  A    between atoms: C_21  and  C_22
REMARK    9  A    between atoms: C_22  and  C_24
REMARK   10  A    between atoms: C_22  and  O_33
REMARK   11  A    between atoms: C_24  and  O_25
REMARK   12  A    between atoms: O_25  and  C_26
REMARK   13  A    between atoms: C_34  and  C_35
REMARK   14  A    between atoms: C_35  and  C_36
REMARK   15  A    between atoms: C_35  and  C_37
REMARK                            x       y       z     vdW  Elec       q    Type
REMARK                         _______ _______ _______ _____ _____    ______ ____
ROOT
ATOM      1  C   UNL     1       4.272  -7.124   4.203  0.00  0.00    -0.003 C 
ENDROOT
BRANCH   1  11
ATOM      2  C   UNL     1       4.580 -12.443   2.178  0.00  0.00    +0.004 A 
ATOM      3  C   UNL     1       3.850 -13.320   2.910  0.00  0.00    +0.056 A 
ATOM      4  S   UNL     1       3.135 -12.299   4.183  0.00  0.00    -0.076 S 
ATOM      5  C   UNL     1       3.825 -10.735   3.709  0.00  0.00    +0.116 A 
ATOM      6  C   UNL     1       4.598 -11.041   2.578  0.00  0.00    +0.080 A 
ATOM      7  C   UNL     1       5.287  -9.938   1.980  0.00  0.00    +0.260 A 
ATOM      8  O   UNL     1       5.980 -10.103   0.991  0.00  0.00    -0.267 OA
ATOM      9  N   UNL     1       5.156  -8.714   2.526  0.00  0.00    -0.312 N 
ATOM     10  H   UNL     1       5.620  -7.963   2.124  0.00  0.00    +0.170 HD
ATOM     11  C   UNL     1       4.388  -8.511   3.627  0.00  0.00    +0.094 A 
ATOM     12  N   UNL     1       3.740  -9.496   4.189  0.00  0.00    -0.229 NA
BRANCH   2  18
ATOM     13  C   UNL     1       4.690 -14.370  -2.426  0.00  0.00    +0.044 C 
ATOM     14  C   UNL     1       5.407 -13.829  -1.216  0.00  0.00    -0.050 A 
ATOM     15  C   UNL     1       6.789 -13.760  -1.206  0.00  0.00    +0.003 A 
ATOM     16  C   UNL     1       7.455 -13.265  -0.100  0.00  0.00    +0.004 A 
ATOM     17  C   UNL     1       6.743 -12.836   1.002  0.00  0.00    -0.043 A 
ATOM     18  C   UNL     1       5.351 -12.902   0.998  0.00  0.00    -0.013 A 
ATOM     19  C   UNL     1       4.685 -13.397  -0.123  0.00  0.00    +0.012 A 
ATOM     20  C   UNL     1       7.470 -12.298   2.208  0.00  0.00    +0.044 C 
ENDBRANCH   2  18
ENDBRANCH   1  11
BRANCH   1  21
ATOM     21  N   UNL     1       3.507  -7.177   5.456  0.00  0.00    +0.386 N 
ATOM     22  H   UNL     1       2.628  -7.645   5.294  0.00  0.00    -0.081 HD
BRANCH  21  23
ATOM     23  C   UNL     1       4.276  -7.914   6.468  0.00  0.00    -0.043 C 
BRANCH  23  24
ATOM     24  C   UNL     1       3.409  -8.128   7.711  0.00  0.00    +0.135 C 
BRANCH  24  25
ATOM     25  O   UNL     1       3.195  -6.875   8.364  0.00  0.00    -0.390 OA
ATOM     26  H   UNL     1       4.007  -6.439   8.654  0.00  0.00    +0.210 HD
ENDBRANCH  24  25
BRANCH  24  27
ATOM     27  C   UNL     1       4.119  -9.087   8.668  0.00  0.00    +0.258 C 
BRANCH  27  28
ATOM     28  O   UNL     1       3.260  -9.378   9.773  0.00  0.00    -0.489 OA
BRANCH  28  29
ATOM     29  C   UNL     1       3.743 -10.222  10.723  0.00  0.00    +0.121 A 
ATOM     30  C   UNL     1       5.018 -10.754  10.597  0.00  0.00    +0.047 A 
ATOM     31  C   UNL     1       5.506 -11.612  11.564  0.00  0.00    +0.023 A 
ATOM     32  C   UNL     1       4.724 -11.941  12.657  0.00  0.00    +0.041 A 
ATOM     33  C   UNL     1       3.452 -11.412  12.784  0.00  0.00    +0.023 A 
ATOM     34  C   UNL     1       2.963 -10.548  11.823  0.00  0.00    +0.047 A 
ATOM     35 CL   UNL     1       5.340 -13.019  13.870  0.00  0.00    -0.084 Cl
ENDBRANCH  28  29
ENDBRANCH  27  28
ENDBRANCH  24  27
ENDBRANCH  23  24
ENDBRANCH  21  23
BRANCH  21  36
ATOM     36  C   UNL     1       3.253  -5.811   5.933  0.00  0.00    -0.075 C 
BRANCH  36  37
ATOM     37  C   UNL     1       2.406  -5.060   4.903  0.00  0.00    -0.034 C 
ATOM     38  C   UNL     1       1.083  -5.799   4.694  0.00  0.00    +0.005 C 
ATOM     39  C   UNL     1       2.125  -3.644   5.408  0.00  0.00    +0.005 C 
ENDBRANCH  36  37
ENDBRANCH  21  36
ENDBRANCH   1  21
TORSDOF 11
