REMARK  Name = ZINC18177390
REMARK  5 active torsions:
REMARK  status: ('A' for Active; 'I' for Inactive)
REMARK    1  A    between atoms: C_1  and  S_2
REMARK    2  A    between atoms: S_2  and  C_3
REMARK    3  A    between atoms: C_6  and  C_9
REMARK    4  A    between atoms: N_17  and  C_20
REMARK    5  A    between atoms: N_28  and  C_29
REMARK                            x       y       z     vdW  Elec       q    Type
REMARK                         _______ _______ _______ _____ _____    ______ ____
ROOT
ATOM      1  C   UNL     1      -5.834  -1.544   0.050  0.00  0.00    +0.157 C 
ATOM      2  C   UNL     1      -6.288  -1.970  -1.341  0.00  0.00    +0.145 C 
ATOM      3  C   UNL     1      -7.378  -3.013  -0.884  0.00  0.00    +0.249 C 
ATOM      4  C   UNL     1      -8.169  -3.152  -2.091  0.00  0.00    +0.259 C 
ATOM      5  O   UNL     1      -8.738  -4.147  -2.486  0.00  0.00    -0.272 OA
ATOM      6  N   UNL     1      -8.136  -1.920  -2.690  0.00  0.00    -0.208 N 
ATOM      7  C   UNL     1      -7.178  -1.086  -2.157  0.00  0.00    +0.235 C 
ATOM      8  O   UNL     1      -7.074   0.113  -2.307  0.00  0.00    -0.274 OA
ATOM      9  O   UNL     1      -6.710  -3.764   0.041  0.00  0.00    -0.257 OA
ATOM     10  N   UNL     1      -6.048  -2.765   0.880  0.00  0.00    -0.244 N 
ENDROOT
BRANCH   6  11
ATOM     11  C   UNL     1      -8.980  -1.548  -3.747  0.00  0.00    +0.044 A 
ATOM     12  C   UNL     1      -8.879  -0.280  -4.303  0.00  0.00    +0.027 A 
ATOM     13  C   UNL     1      -9.711   0.085  -5.343  0.00  0.00    +0.040 A 
ATOM     14  C   UNL     1     -10.646  -0.813  -5.831  0.00  0.00    +0.124 A 
ATOM     15  C   UNL     1     -10.749  -2.078  -5.277  0.00  0.00    +0.040 A 
ATOM     16  C   UNL     1      -9.914  -2.449  -4.240  0.00  0.00    +0.027 A 
ATOM     17  F   UNL     1     -11.460  -0.455  -6.848  0.00  0.00    -0.205 F 
ENDBRANCH   6  11
BRANCH   1  21
ATOM     18  C   UNL     1      -1.702  -0.454   0.016  0.00  0.00    +0.008 A 
ATOM     19  C   UNL     1      -2.682   0.531   0.025  0.00  0.00    +0.015 A 
ATOM     20  C   UNL     1      -4.016   0.176   0.036  0.00  0.00    +0.007 A 
ATOM     21  C   UNL     1      -4.377  -1.159   0.038  0.00  0.00    -0.022 A 
ATOM     22  C   UNL     1      -3.404  -2.143   0.029  0.00  0.00    +0.007 A 
ATOM     23  C   UNL     1      -2.068  -1.794   0.012  0.00  0.00    +0.015 A 
BRANCH  18  25
ATOM     24  C   UNL     1      -0.022   1.810   0.012  0.00  0.00    +0.090 C 
ATOM     25  S   UNL     1       0.002  -0.004   0.002  0.00  0.00    -0.129 S 
ENDBRANCH  18  25
ENDBRANCH   1  21
BRANCH  10  26
ATOM     26  C   UNL     1      -5.673  -2.925   2.216  0.00  0.00    +0.065 A 
ATOM     27  C   UNL     1      -5.043  -1.888   2.891  0.00  0.00    +0.028 A 
ATOM     28  C   UNL     1      -4.673  -2.049   4.212  0.00  0.00    +0.002 A 
ATOM     29  C   UNL     1      -4.929  -3.243   4.862  0.00  0.00    +0.000 A 
ATOM     30  C   UNL     1      -5.556  -4.278   4.192  0.00  0.00    +0.002 A 
ATOM     31  C   UNL     1      -5.934  -4.120   2.873  0.00  0.00    +0.028 A 
ENDBRANCH  10  26
TORSDOF 4
