REMARK  Name = ZINC02482015
REMARK  6 active torsions:
REMARK  status: ('A' for Active; 'I' for Inactive)
REMARK    1  A    between atoms: C_1  and  C_2
REMARK    2  A    between atoms: C_2  and  O_3
REMARK    3  A    between atoms: O_3  and  C_4
REMARK    4  A    between atoms: C_4  and  C_6
REMARK    5  A    between atoms: C_7  and  C_24
REMARK    6  A    between atoms: C_12  and  C_14
REMARK                            x       y       z     vdW  Elec       q    Type
REMARK                         _______ _______ _______ _____ _____    ______ ____
ROOT
ATOM      1  C   UNL     1       0.213  -4.710  -1.539  0.00  0.00    +0.078 C 
ATOM      2  C   UNL     1       1.000  -5.357  -2.425  0.00  0.00    +0.019 C 
ATOM      3  N   UNL     1       2.344  -5.471  -2.221  0.00  0.00    -0.300 N 
ATOM      4  C   UNL     1       2.979  -4.966  -1.156  0.00  0.00    +0.135 C 
ATOM      5  S   UNL     1       4.673  -5.182  -1.023  0.00  0.00    -0.019 S 
ATOM      6  N   UNL     1       2.330  -4.294  -0.185  0.00  0.00    -0.315 N 
ATOM      7  C   UNL     1       0.873  -4.115  -0.311  0.00  0.00    +0.143 C 
ATOM      8  C   UNL     1       0.383  -5.963  -3.659  0.00  0.00    +0.061 C 
ATOM      9  H   UNL     1       2.969  -6.003  -2.954  0.00  0.00    +0.154 HD
ATOM     10  H   UNL     1       2.861  -3.883   0.685  0.00  0.00    +0.149 HD
ENDROOT
BRANCH   7  11
ATOM     11  C   UNL     1       0.584  -2.636  -0.298  0.00  0.00    -0.001 A 
ATOM     12  C   UNL     1       1.521  -1.745  -0.788  0.00  0.00    +0.056 A 
ATOM     13  C   UNL     1       1.258  -0.386  -0.776  0.00  0.00    +0.167 A 
ATOM     14  C   UNL     1       0.046   0.082  -0.271  0.00  0.00    +0.168 A 
ATOM     15  C   UNL     1      -0.888  -0.816   0.218  0.00  0.00    +0.070 A 
ATOM     16  C   UNL     1      -0.619  -2.173   0.204  0.00  0.00    +0.050 A 
ATOM     17 CL   UNL     1      -1.792  -3.296   0.817  0.00  0.00    -0.083 Cl
ATOM     18  O   UNL     1       0.029   1.443  -0.370  0.00  0.00    -0.453 OA
ATOM     19  C   UNL     1       1.402   1.832  -0.562  0.00  0.00    +0.466 C 
ATOM     20  O   UNL     1       1.998   0.683  -1.192  0.00  0.00    -0.453 OA
ENDBRANCH   7  11
BRANCH   1  21
ATOM     21  C   UNL     1      -1.180  -4.591  -1.750  0.00  0.00    +0.339 C 
ATOM     22  O   UNL     1      -1.639  -3.568  -2.222  0.00  0.00    -0.245 OA
BRANCH  21  23
ATOM     23  O   UNL     1      -2.001  -5.612  -1.426  0.00  0.00    -0.462 OA
BRANCH  23  25
ATOM     24  C   UNL     1      -4.127  -6.762  -1.435  0.00  0.00    +0.048 C 
ATOM     25  C   UNL     1      -3.382  -5.467  -1.765  0.00  0.00    +0.229 C 
ENDBRANCH  23  25
ENDBRANCH  21  23
ENDBRANCH   1  21
TORSDOF 4
