REMARK  Name = ZINC59094151
REMARK  12 active torsions:
REMARK  status: ('A' for Active; 'I' for Inactive)
REMARK    1  A    between atoms: C_1  and  C_2
REMARK    2  A    between atoms: C_2  and  C_31
REMARK    3  A    between atoms: C_4  and  N_10
REMARK    4  A    between atoms: C_6  and  C_8
REMARK    5  A    between atoms: C_6  and  C_9
REMARK    6  A    between atoms: N_10  and  C_11
REMARK    7  A    between atoms: N_10  and  C_19
REMARK    8  A    between atoms: C_11  and  C_12
REMARK    9  A    between atoms: C_19  and  N_21
REMARK   10  A    between atoms: N_21  and  C_22
REMARK   11  A    between atoms: C_26  and  O_28
REMARK   12  A    between atoms: O_28  and  C_29
REMARK                            x       y       z     vdW  Elec       q    Type
REMARK                         _______ _______ _______ _____ _____    ______ ____
ROOT
ATOM      1  N   UNL     1       2.847  -0.680  -2.674  0.00  0.00    -0.305 N 
ENDROOT
BRANCH   1   5
ATOM      2  C   UNL     1       1.330   2.440   0.039  0.00  0.00    -0.010 C 
ATOM      3  C   UNL     1       1.061   0.947   0.252  0.00  0.00    -0.072 C 
ATOM      4  C   UNL     1       1.230   0.199  -1.067  0.00  0.00    +0.009 C 
ATOM      5  C   UNL     1       2.712   0.069  -1.419  0.00  0.00    +0.073 C 
ATOM      6  C   UNL     1       3.403  -0.702  -0.294  0.00  0.00    +0.009 C 
ATOM      7  C   UNL     1       3.250   0.039   1.030  0.00  0.00    -0.072 C 
ATOM      8  N   UNL     1       1.878   0.411   1.326  0.00  0.00    +0.386 N 
ATOM      9  C   UNL     1       3.731  -0.914   2.150  0.00  0.00    -0.010 C 
ATOM     10  C   UNL     1       4.176   1.260   1.051  0.00  0.00    -0.010 C 
ATOM     11  C   UNL     1      -0.421   0.809   0.674  0.00  0.00    -0.010 C 
ATOM     12  H   UNL     1       1.888   1.092   2.092  0.00  0.00    -0.084 HD
ATOM     13  H   UNL     1       1.400  -0.409   1.713  0.00  0.00    -0.084 HD
ENDBRANCH   1   5
BRANCH   1  14
ATOM     14  C   UNL     1       2.391  -1.946  -2.756  0.00  0.00    +0.138 C 
ATOM     15  S   UNL     1       1.580  -2.651  -1.424  0.00  0.00    -0.018 S 
BRANCH  14  16
ATOM     16  N   UNL     1       2.574  -2.656  -3.887  0.00  0.00    -0.297 N 
ATOM     17  H   UNL     1       3.219  -3.381  -3.905  0.00  0.00    +0.154 HD
BRANCH  16  18
ATOM     18  C   UNL     1       1.834  -2.348  -5.034  0.00  0.00    +0.036 A 
ATOM     19  C   UNL     1       0.914  -1.307  -5.009  0.00  0.00    +0.025 A 
ATOM     20  C   UNL     1       0.184  -1.002  -6.142  0.00  0.00    +0.025 A 
ATOM     21  C   UNL     1       0.366  -1.733  -7.302  0.00  0.00    +0.083 A 
ATOM     22  C   UNL     1       1.284  -2.775  -7.331  0.00  0.00    +0.140 A 
ATOM     23  C   UNL     1       2.022  -3.079  -6.199  0.00  0.00    +0.070 A 
ATOM     24 CL   UNL     1      -0.554  -1.347  -8.722  0.00  0.00    -0.080 Cl
BRANCH  22  25
ATOM     25  O   UNL     1       1.461  -3.492  -8.472  0.00  0.00    -0.494 OA
ATOM     26  C   UNL     1       2.422  -4.550  -8.430  0.00  0.00    +0.277 C 
ENDBRANCH  22  25
ENDBRANCH  16  18
ENDBRANCH  14  16
ENDBRANCH   1  14
BRANCH   1  27
ATOM     27  C   UNL     1       3.478  -0.052  -3.837  0.00  0.00    +0.145 C 
BRANCH  27  28
ATOM     28  C   UNL     1       4.976  -0.155  -3.713  0.00  0.00    +0.005 A 
ATOM     29  C   UNL     1       5.704   0.909  -3.214  0.00  0.00    +0.008 A 
ATOM     30  C   UNL     1       7.078   0.814  -3.100  0.00  0.00    +0.000 A 
ATOM     31  C   UNL     1       7.727  -0.345  -3.485  0.00  0.00    +0.003 A 
ATOM     32  C   UNL     1       7.002  -1.410  -3.984  0.00  0.00    +0.038 A 
ATOM     33  C   UNL     1       5.624  -1.318  -4.094  0.00  0.00    +0.128 A 
ATOM     34  F   UNL     1       4.914  -2.361  -4.577  0.00  0.00    -0.205 F 
ENDBRANCH  27  28
ENDBRANCH   1  27
TORSDOF 7
