REMARK  Name = ZINC12539254
REMARK  7 active torsions:
REMARK  status: ('A' for Active; 'I' for Inactive)
REMARK    1  A    between atoms: C_1  and  C_2
REMARK    2  A    between atoms: C_3  and  C_26
REMARK    3  A    between atoms: C_7  and  N_25
REMARK    4  A    between atoms: C_9  and  S_11
REMARK    5  A    between atoms: S_11  and  C_12
REMARK    6  A    between atoms: C_12  and  C_13
REMARK    7  A    between atoms: C_13  and  N_14
REMARK                            x       y       z     vdW  Elec       q    Type
REMARK                         _______ _______ _______ _____ _____    ______ ____
ROOT
ATOM      1  C   UNL     1       1.556  -1.784  -0.620  0.00  0.00    +0.045 C 
ATOM      2  C   UNL     1       1.120  -0.344  -0.552  0.00  0.00    -0.028 A 
ATOM      3  C   UNL     1      -0.184  -0.031  -0.524  0.00  0.00    -0.008 A 
ATOM      4  S   UNL     1      -0.183   1.750  -0.445  0.00  0.00    -0.073 S 
ATOM      5  C   UNL     1       1.569   2.027  -0.451  0.00  0.00    +0.115 A 
ATOM      6  C   UNL     1       2.107   0.723  -0.515  0.00  0.00    +0.050 A 
ATOM      7  C   UNL     1       3.527   0.646  -0.534  0.00  0.00    +0.129 A 
ATOM      8  N   UNL     1       4.236   1.762  -0.491  0.00  0.00    -0.207 NA
ATOM      9  C   UNL     1       3.665   2.959  -0.432  0.00  0.00    +0.191 A 
ATOM     10  N   UNL     1       2.345   3.091  -0.412  0.00  0.00    -0.215 NA
ATOM     11  C   UNL     1      -1.367  -0.963  -0.553  0.00  0.00    +0.052 C 
ENDROOT
BRANCH   7  12
ATOM     12  N   UNL     1       4.160  -0.582  -0.595  0.00  0.00    -0.343 N 
ATOM     13  H   UNL     1       3.689  -1.353  -0.948  0.00  0.00    +0.144 HD
ATOM     14  H   UNL     1       5.074  -0.672  -0.285  0.00  0.00    +0.144 HD
ENDBRANCH   7  12
BRANCH   9  15
ATOM     15  S   UNL     1       4.679   4.399  -0.378  0.00  0.00    -0.084 S 
BRANCH  15  16
ATOM     16  C   UNL     1       6.317   3.631  -0.430  0.00  0.00    +0.097 C 
BRANCH  16  17
ATOM     17  C   UNL     1       7.392   4.720  -0.393  0.00  0.00    +0.128 C 
BRANCH  17  18
ATOM     18  N   UNL     1       8.718   4.099  -0.434  0.00  0.00    -0.233 N 
ATOM     19  C   UNL     1       9.421   3.732   0.652  0.00  0.00    +0.254 C 
ATOM     20  O   UNL     1       9.063   3.860   1.805  0.00  0.00    -0.270 OA
ATOM     21  C   UNL     1      10.702   3.143   0.207  0.00  0.00    +0.049 A 
ATOM     22  C   UNL     1      11.798   2.603   0.862  0.00  0.00    +0.014 A 
ATOM     23  C   UNL     1      12.872   2.128   0.126  0.00  0.00    +0.001 A 
ATOM     24  C   UNL     1      12.857   2.189  -1.255  0.00  0.00    +0.001 A 
ATOM     25  C   UNL     1      11.768   2.727  -1.923  0.00  0.00    +0.014 A 
ATOM     26  C   UNL     1      10.687   3.205  -1.200  0.00  0.00    +0.049 A 
ATOM     27  C   UNL     1       9.396   3.825  -1.564  0.00  0.00    +0.254 C 
ATOM     28  O   UNL     1       9.010   4.051  -2.693  0.00  0.00    -0.270 OA
ENDBRANCH  17  18
ENDBRANCH  16  17
ENDBRANCH  15  16
ENDBRANCH   9  15
TORSDOF 5
