REMARK  Name = ZINC59599416
REMARK  11 active torsions:
REMARK  status: ('A' for Active; 'I' for Inactive)
REMARK    1  A    between atoms: C_1  and  C_2
REMARK    2  A    between atoms: C_2  and  O_3
REMARK    3  A    between atoms: O_3  and  C_4
REMARK    4  A    between atoms: C_6  and  C_22
REMARK    5  A    between atoms: C_9  and  O_10
REMARK    6  A    between atoms: O_10  and  C_11
REMARK    7  A    between atoms: C_12  and  N_21
REMARK    8  A    between atoms: N_13  and  C_20
REMARK    9  A    between atoms: N_16  and  C_19
REMARK   10  A    between atoms: C_23  and  C_24
REMARK   11  A    between atoms: C_23  and  C_26
REMARK                            x       y       z     vdW  Elec       q    Type
REMARK                         _______ _______ _______ _____ _____    ______ ____
ROOT
ATOM      1  C   UNL     1       1.376  -2.430  -1.690  0.00  0.00    +0.163 A 
ATOM      2  C   UNL     1       0.600  -3.030  -0.718  0.00  0.00    +0.057 A 
ATOM      3  C   UNL     1       0.304  -4.396  -0.808  0.00  0.00    -0.020 A 
ATOM      4  C   UNL     1       0.797  -5.146  -1.884  0.00  0.00    +0.012 A 
ATOM      5  C   UNL     1       1.570  -4.538  -2.848  0.00  0.00    +0.050 A 
ATOM      6  C   UNL     1       1.859  -3.182  -2.761  0.00  0.00    +0.170 A 
ENDROOT
BRANCH   3   7
ATOM      7  C   UNL     1      -0.519  -5.040   0.222  0.00  0.00    +0.027 C 
ATOM      8  C   UNL     1      -1.334  -6.079  -0.110  0.00  0.00    +0.059 C 
BRANCH   8   9
ATOM      9  C   UNL     1      -2.023  -6.848   0.952  0.00  0.00    -0.008 A 
ATOM     10  C   UNL     1      -1.282  -7.595   1.868  0.00  0.00    +0.010 A 
ATOM     11  C   UNL     1      -1.929  -8.309   2.855  0.00  0.00    +0.016 A 
ATOM     12  C   UNL     1      -3.311  -8.286   2.938  0.00  0.00    +0.018 A 
ATOM     13  C   UNL     1      -4.051  -7.546   2.031  0.00  0.00    +0.016 A 
ATOM     14  C   UNL     1      -3.415  -6.823   1.044  0.00  0.00    +0.010 A 
ATOM     15 BR   UNL     1      -4.191  -9.268   4.293  0.00  0.00    -0.050 Br
ENDBRANCH   8   9
BRANCH   8  16
ATOM     16  C   UNL     1      -1.525  -6.428  -1.485  0.00  0.00    +0.100 C 
ATOM     17  N   UNL     1      -1.677  -6.706  -2.576  0.00  0.00    -0.191 NA
ENDBRANCH   8  16
ENDBRANCH   3   7
BRANCH   1  18
ATOM     18  O   UNL     1       1.666  -1.104  -1.605  0.00  0.00    -0.489 OA
BRANCH  18  20
ATOM     19  C   UNL     1       1.567   1.072  -0.559  0.00  0.00    +0.048 C 
ATOM     20  C   UNL     1       1.139  -0.395  -0.482  0.00  0.00    +0.226 C 
ENDBRANCH  18  20
ENDBRANCH   1  18
BRANCH   6  21
ATOM     21  O   UNL     1       2.616  -2.588  -3.718  0.00  0.00    -0.443 OA
BRANCH  21  22
ATOM     22  C   UNL     1       3.140  -3.376  -4.700  0.00  0.00    +0.230 A 
ATOM     23  C   UNL     1       2.716  -3.245  -5.995  0.00  0.00    +0.149 A 
ATOM     24  N   UNL     1       3.260  -4.052  -6.967  0.00  0.00    -0.282 N 
ATOM     25  C   UNL     1       4.199  -4.961  -6.651  0.00  0.00    +0.333 A 
ATOM     26  O   UNL     1       4.669  -5.665  -7.523  0.00  0.00    -0.246 OA
ATOM     27  N   UNL     1       4.628  -5.103  -5.383  0.00  0.00    -0.261 N 
ATOM     28  C   UNL     1       4.127  -4.330  -4.399  0.00  0.00    +0.301 A 
ATOM     29  O   UNL     1       4.525  -4.462  -3.254  0.00  0.00    -0.263 OA
ATOM     30  C   UNL     1       5.653  -6.102  -5.071  0.00  0.00    +0.157 C 
ATOM     31  C   UNL     1       2.812  -3.920  -8.356  0.00  0.00    +0.155 C 
BRANCH  23  32
ATOM     32  N   UNL     1       1.755  -2.318  -6.320  0.00  0.00    -0.341 N 
ATOM     33  H   UNL     1       1.311  -1.813  -5.620  0.00  0.00    +0.144 HD
ATOM     34  H   UNL     1       1.520  -2.168  -7.249  0.00  0.00    +0.144 HD
ENDBRANCH  23  32
ENDBRANCH  21  22
ENDBRANCH   6  21
TORSDOF 8
