REMARK  Name = ZINC50309902
REMARK  8 active torsions:
REMARK  status: ('A' for Active; 'I' for Inactive)
REMARK    1  A    between atoms: C_1  and  C_2
REMARK    2  A    between atoms: C_2  and  C_4
REMARK    3  A    between atoms: C_2  and  N_7
REMARK    4  A    between atoms: C_8  and  C_10
REMARK    5  A    between atoms: C_11  and  N_19
REMARK    6  A    between atoms: C_12  and  C_16
REMARK    7  A    between atoms: C_16  and  C_17
REMARK    8  A    between atoms: C_16  and  C_18
REMARK                            x       y       z     vdW  Elec       q    Type
REMARK                         _______ _______ _______ _____ _____    ______ ____
ROOT
ATOM      1  C   UNL     1       0.696  -1.084  -3.572  0.00  0.00    +0.168 A 
ATOM      2  C   UNL     1       0.118  -1.266  -4.854  0.00  0.00    +0.078 A 
ATOM      3  C   UNL     1       1.128  -1.714  -5.646  0.00  0.00    +0.060 A 
ATOM      4  N   UNL     1       2.240  -1.789  -4.869  0.00  0.00    -0.279 N 
ATOM      5  H   UNL     1       3.113  -2.080  -5.176  0.00  0.00    +0.189 HD
ATOM      6  N   UNL     1       1.970  -1.414  -3.671  0.00  0.00    -0.167 NA
ENDROOT
BRANCH   1   8
ATOM      7  N   UNL     1       0.688  -0.476  -1.203  0.00  0.00    -0.307 N 
ATOM      8  C   UNL     1       0.006  -0.608  -2.358  0.00  0.00    +0.266 C 
ATOM      9  O   UNL     1      -1.178  -0.335  -2.400  0.00  0.00    -0.268 OA
ATOM     10  H   UNL     1       1.632  -0.695  -1.170  0.00  0.00    +0.149 HD
BRANCH   7  12
ATOM     11  C   UNL     1      -0.019   1.526   0.010  0.00  0.00    +0.028 C 
ATOM     12  C   UNL     1       0.002  -0.004   0.002  0.00  0.00    +0.073 C 
BRANCH  12  13
ATOM     13  C   UNL     1       0.742  -0.511   1.242  0.00  0.00    +0.009 C 
ATOM     14  C   UNL     1       0.038  -1.559   2.105  0.00  0.00    +0.005 C 
ATOM     15  C   UNL     1       0.178  -0.122   2.610  0.00  0.00    +0.005 C 
ENDBRANCH  12  13
ENDBRANCH   7  12
ENDBRANCH   1   8
BRANCH   3  16
ATOM     16  C   UNL     1       1.032  -2.061  -7.110  0.00  0.00    +0.033 C 
ATOM     17  C   UNL     1       1.988  -1.172  -7.908  0.00  0.00    +0.014 C 
ATOM     18  C   UNL     1       1.413  -3.529  -7.311  0.00  0.00    +0.014 C 
ENDBRANCH   3  16
BRANCH   2  19
ATOM     19  N   UNL     1      -1.215  -1.035  -5.226  0.00  0.00    -0.355 N 
ATOM     20  H   UNL     1      -1.852  -0.713  -4.570  0.00  0.00    +0.142 HD
ATOM     21  H   UNL     1      -1.498  -1.197  -6.139  0.00  0.00    +0.142 HD
ENDBRANCH   2  19
TORSDOF 5
