REMARK  Name = ZINC01245173
REMARK  8 active torsions:
REMARK  status: ('A' for Active; 'I' for Inactive)
REMARK    1  A    between atoms: C_1  and  N_2
REMARK    2  A    between atoms: N_2  and  C_3
REMARK    3  A    between atoms: N_2  and  C_4
REMARK    4  A    between atoms: C_7  and  C_10
REMARK    5  A    between atoms: C_15  and  C_32
REMARK    6  A    between atoms: C_25  and  C_27
REMARK    7  A    between atoms: C_27  and  C_28
REMARK    8  A    between atoms: C_28  and  C_29
REMARK                            x       y       z     vdW  Elec       q    Type
REMARK                         _______ _______ _______ _____ _____    ______ ____
ROOT
ATOM      1  C   UNL     1       0.372   7.251  -3.804  0.00  0.00    +0.032 C 
ATOM      2  C   UNL     1      -1.053   6.800  -3.486  0.00  0.00    +0.059 C 
ATOM      3  C   UNL     1      -1.154   6.405  -2.021  0.00  0.00    +0.017 C 
ATOM      4  C   UNL     1      -0.108   5.838  -1.400  0.00  0.00    +0.037 C 
ATOM      5  C   UNL     1      -0.083   5.354   0.032  0.00  0.00    +0.147 C 
ATOM      6  N   UNL     1      -1.218   5.779   0.823  0.00  0.00    -0.258 N 
ATOM      7  C   UNL     1      -2.509   5.350   0.515  0.00  0.00    +0.058 A 
ATOM      8  C   UNL     1      -3.218   4.524   1.374  0.00  0.00    +0.025 A 
ATOM      9  C   UNL     1      -4.478   4.083   1.010  0.00  0.00    +0.002 A 
ATOM     10  C   UNL     1      -5.029   4.459  -0.202  0.00  0.00    +0.002 A 
ATOM     11  C   UNL     1      -4.332   5.298  -1.054  0.00  0.00    +0.025 A 
ATOM     12  C   UNL     1      -3.081   5.757  -0.680  0.00  0.00    +0.053 A 
ATOM     13  N   UNL     1      -2.359   6.663  -1.451  0.00  0.00    -0.316 N 
ATOM     14  C   UNL     1      -1.025   6.600   1.873  0.00  0.00    +0.221 C 
ATOM     15  O   UNL     1       0.094   6.978   2.150  0.00  0.00    -0.275 OA
ATOM     16  C   UNL     1       1.115   5.650  -2.087  0.00  0.00    +0.163 C 
ATOM     17  O   UNL     1       2.040   5.124  -1.500  0.00  0.00    -0.292 OA
ATOM     18  C   UNL     1       1.310   6.075  -3.511  0.00  0.00    +0.088 C 
ATOM     19  H   UNL     1      -2.832   7.647  -1.585  0.00  0.00    +0.152 HD
ENDROOT
BRANCH   1  23
ATOM     20  C   UNL     1       0.660   8.341  -7.927  0.00  0.00    +0.029 A 
ATOM     21  C   UNL     1       0.938   9.276  -6.939  0.00  0.00    +0.023 A 
ATOM     22  C   UNL     1       0.844   8.921  -5.607  0.00  0.00    +0.006 A 
ATOM     23  C   UNL     1       0.473   7.635  -5.258  0.00  0.00    -0.043 A 
ATOM     24  C   UNL     1       0.202   6.700  -6.239  0.00  0.00    +0.006 A 
ATOM     25  C   UNL     1       0.288   7.050  -7.572  0.00  0.00    +0.023 A 
BRANCH  20  27
ATOM     26  C   UNL     1       1.269  10.016  -9.649  0.00  0.00    +0.129 C 
ATOM     27  N   UNL     1       0.753   8.697  -9.274  0.00  0.00    -0.336 N 
ATOM     28  C   UNL     1       0.336   7.751 -10.313  0.00  0.00    +0.129 C 
ENDBRANCH  20  27
ENDBRANCH   1  23
BRANCH   5  29
ATOM     29  C   UNL     1      -0.037   3.848   0.028  0.00  0.00    -0.022 A 
ATOM     30  C   UNL     1      -1.116   3.126  -0.448  0.00  0.00    +0.006 A 
ATOM     31  C   UNL     1      -1.075   1.744  -0.452  0.00  0.00    +0.000 A 
ATOM     32  C   UNL     1       0.045   1.085   0.020  0.00  0.00    +0.000 A 
ATOM     33  C   UNL     1       1.121   1.807   0.500  0.00  0.00    +0.000 A 
ATOM     34  C   UNL     1       1.082   3.189   0.499  0.00  0.00    +0.006 A 
ENDBRANCH   5  29
BRANCH  14  35
ATOM     35  C   UNL     1      -2.199   7.049   2.705  0.00  0.00    +0.107 C 
BRANCH  35  36
ATOM     36  C   UNL     1      -1.708   7.968   3.825  0.00  0.00    +0.134 C 
BRANCH  36  37
ATOM     37  C   UNL     1      -2.882   8.417   4.657  0.00  0.00    +0.356 C 
ATOM     38  O   UNL     1      -3.997   8.041   4.382  0.00  0.00    -0.246 OA
ATOM     39  O   UNL     1      -2.689   9.236   5.704  0.00  0.00    -0.246 OA
ENDBRANCH  36  37
ENDBRANCH  35  36
ENDBRANCH  14  35
TORSDOF 6
