REMARK  Name = ZINC20115353
REMARK  4 active torsions:
REMARK  status: ('A' for Active; 'I' for Inactive)
REMARK    1  A    between atoms: C_4  and  C_7
REMARK    2  A    between atoms: C_7  and  N_8
REMARK    3  A    between atoms: C_11  and  C_12
REMARK    4  A    between atoms: C_21  and  C_22
REMARK                            x       y       z     vdW  Elec       q    Type
REMARK                         _______ _______ _______ _____ _____    ______ ____
ROOT
ATOM      1  N   UNL     1       0.852   6.741   0.272  0.00  0.00    +0.388 N 
ATOM      2  C   UNL     1       0.465   5.906  -0.873  0.00  0.00    -0.038 C 
ATOM      3  C   UNL     1      -1.039   5.849  -0.966  0.00  0.00    -0.014 C 
ATOM      4  C   UNL     1      -1.649   4.755  -1.489  0.00  0.00    +0.051 C 
ATOM      5  C   UNL     1      -1.813   6.946  -0.509  0.00  0.00    +0.182 C 
ATOM      6  O   UNL     1      -3.032   6.912  -0.585  0.00  0.00    -0.287 OA
ATOM      7  C   UNL     1      -1.163   8.079   0.042  0.00  0.00    -0.014 C 
ATOM      8  C   UNL     1      -1.892   9.133   0.490  0.00  0.00    +0.051 C 
ATOM      9  C   UNL     1       0.342   8.111   0.123  0.00  0.00    -0.038 C 
ATOM     10  H   UNL     1       0.397   6.308   1.174  0.00  0.00    -0.080 HD
ENDROOT
BRANCH   4  11
ATOM     11  C   UNL     1      -0.874   3.725  -2.074  0.00  0.00    +0.130 A 
ATOM     12  C   UNL     1      -1.346   2.509  -2.525  0.00  0.00    +0.050 A 
ATOM     13  C   UNL     1      -0.236   1.809  -3.021  0.00  0.00    +0.057 A 
ATOM     14  C   UNL     1       0.844   2.610  -2.867  0.00  0.00    +0.171 A 
ATOM     15  O   UNL     1       0.457   3.761  -2.297  0.00  0.00    -0.449 OA
ATOM     16 BR   UNL     1       2.614   2.176  -3.372  0.00  0.00    -0.008 Br
ENDBRANCH   4  11
BRANCH   8  17
ATOM     17  C   UNL     1      -3.297   9.021   0.610  0.00  0.00    +0.130 A 
ATOM     18  C   UNL     1      -4.223   9.985   0.262  0.00  0.00    +0.050 A 
ATOM     19  C   UNL     1      -5.486   9.447   0.547  0.00  0.00    +0.057 A 
ATOM     20  C   UNL     1      -5.288   8.208   1.056  0.00  0.00    +0.171 A 
ATOM     21  O   UNL     1      -3.971   7.956   1.092  0.00  0.00    -0.449 OA
ATOM     22 BR   UNL     1      -6.648   7.023   1.622  0.00  0.00    -0.008 Br
ENDBRANCH   8  17
BRANCH   1  23
ATOM     23  C   UNL     1       2.310   6.740   0.455  0.00  0.00    -0.042 C 
BRANCH  23  27
ATOM     24  C   UNL     1       3.280   8.601   4.175  0.00  0.00    +0.000 A 
ATOM     25  C   UNL     1       3.052   7.238   4.123  0.00  0.00    +0.000 A 
ATOM     26  C   UNL     1       2.739   6.636   2.918  0.00  0.00    +0.002 A 
ATOM     27  C   UNL     1       2.652   7.396   1.767  0.00  0.00    -0.064 A 
ATOM     28  C   UNL     1       2.885   8.758   1.819  0.00  0.00    +0.002 A 
ATOM     29  C   UNL     1       3.194   9.361   3.024  0.00  0.00    +0.000 A 
ENDBRANCH  23  27
ENDBRANCH   1  23
TORSDOF 4
