REMARK  Name = ZINC25532431
REMARK  13 active torsions:
REMARK  status: ('A' for Active; 'I' for Inactive)
REMARK    1  A    between atoms: C_1  and  C_2
REMARK    2  A    between atoms: C_7  and  C_19
REMARK    3  A    between atoms: C_11  and  C_12
REMARK    4  A    between atoms: C_12  and  O_14
REMARK    5  A    between atoms: O_14  and  C_15
REMARK    6  A    between atoms: C_15  and  C_16
REMARK    7  A    between atoms: C_16  and  O_17
REMARK    8  A    between atoms: O_17  and  C_18
REMARK    9  A    between atoms: C_19  and  N_20
REMARK   10  A    between atoms: N_20  and  C_21
REMARK   11  A    between atoms: N_20  and  C_22
REMARK   12  A    between atoms: C_22  and  C_23
REMARK   13  A    between atoms: C_28  and  C_29
REMARK                            x       y       z     vdW  Elec       q    Type
REMARK                         _______ _______ _______ _____ _____    ______ ____
ROOT
ATOM      1  C   UNL     1      -1.545   3.175   5.886  0.00  0.00    +0.046 C 
ATOM      2  C   UNL     1      -1.828   3.533   4.449  0.00  0.00    -0.015 A 
ATOM      3  C   UNL     1      -1.278   2.771   3.417  0.00  0.00    +0.076 A 
ATOM      4  C   UNL     1      -0.398   1.583   3.497  0.00  0.00    +0.282 A 
ATOM      5  O   UNL     1      -0.052   1.133   4.575  0.00  0.00    -0.265 OA
ATOM      6  N   UNL     1       0.006   1.009   2.347  0.00  0.00    -0.197 NA
ATOM      7  C   UNL     1      -0.369   1.504   1.142  0.00  0.00    +0.095 A 
ATOM      8  N   UNL     1      -1.144   2.549   1.036  0.00  0.00    -0.339 N 
ATOM      9  C   UNL     1      -1.602   3.187   2.105  0.00  0.00    +0.092 A 
ATOM     10  S   UNL     1      -2.644   4.599   2.370  0.00  0.00    -0.064 S 
ATOM     11  C   UNL     1      -2.623   4.603   4.155  0.00  0.00    +0.102 A 
ATOM     12  H   UNL     1      -1.432   2.921   0.041  0.00  0.00    +0.167 HD
ENDROOT
BRANCH  11  13
ATOM     13  C   UNL     1      -3.293   5.525   5.074  0.00  0.00    +0.346 C 
ATOM     14  O   UNL     1      -3.171   5.380   6.276  0.00  0.00    -0.244 OA
BRANCH  13  15
ATOM     15  O   UNL     1      -4.045   6.534   4.589  0.00  0.00    -0.458 OA
BRANCH  15  16
ATOM     16  C   UNL     1      -4.680   7.409   5.559  0.00  0.00    +0.260 C 
BRANCH  16  17
ATOM     17  C   UNL     1      -5.484   8.484   4.826  0.00  0.00    +0.200 C 
BRANCH  17  18
ATOM     18  O   UNL     1      -6.559   7.871   4.111  0.00  0.00    -0.380 OA
ATOM     19  C   UNL     1      -7.377   8.793   3.388  0.00  0.00    +0.194 C 
ENDBRANCH  17  18
ENDBRANCH  16  17
ENDBRANCH  15  16
ENDBRANCH  13  15
ENDBRANCH  11  13
BRANCH   7  20
ATOM     20  C   UNL     1       0.119   0.824  -0.112  0.00  0.00    -0.003 C 
BRANCH  20  21
ATOM     21  N   UNL     1      -0.415   1.524  -1.288  0.00  0.00    +0.385 N 
ATOM     22  C   UNL     1       0.139   2.881  -1.388  0.00  0.00    -0.095 C 
ATOM     23  H   UNL     1      -1.504   1.612  -1.164  0.00  0.00    -0.081 HD
BRANCH  21  24
ATOM     24  C   UNL     1      -0.161   0.760  -2.516  0.00  0.00    -0.042 C 
BRANCH  24  25
ATOM     25  C   UNL     1      -1.036   1.285  -3.625  0.00  0.00    -0.052 A 
ATOM     26  C   UNL     1      -0.505   2.127  -4.584  0.00  0.00    +0.002 A 
ATOM     27  C   UNL     1      -1.306   2.605  -5.604  0.00  0.00    +0.000 A 
ATOM     28  C   UNL     1      -2.641   2.249  -5.659  0.00  0.00    +0.001 A 
ATOM     29  C   UNL     1      -3.173   1.412  -4.696  0.00  0.00    +0.012 A 
ATOM     30  C   UNL     1      -2.370   0.930  -3.679  0.00  0.00    +0.056 A 
BRANCH  30  31
ATOM     31  C   UNL     1      -2.950   0.017  -2.630  0.00  0.00    +0.418 C 
ATOM     32  F   UNL     1      -4.307  -0.196  -2.895  0.00  0.00    -0.166 F 
ATOM     33  F   UNL     1      -2.273  -1.207  -2.650  0.00  0.00    -0.166 F 
ATOM     34  F   UNL     1      -2.809   0.607  -1.369  0.00  0.00    -0.166 F 
ENDBRANCH  30  31
ENDBRANCH  24  25
ENDBRANCH  21  24
ENDBRANCH  20  21
ENDBRANCH   7  20
TORSDOF 10
