REMARK  Name = ZINC21230275
REMARK  12 active torsions:
REMARK  status: ('A' for Active; 'I' for Inactive)
REMARK    1  A    between atoms: C_1  and  C_2
REMARK    2  A    between atoms: C_4  and  C_35
REMARK    3  A    between atoms: C_6  and  N_8
REMARK    4  A    between atoms: C_12  and  C_13
REMARK    5  A    between atoms: C_16  and  O_19
REMARK    6  A    between atoms: O_19  and  C_20
REMARK    7  A    between atoms: C_22  and  S_23
REMARK    8  A    between atoms: S_23  and  C_24
REMARK    9  A    between atoms: C_24  and  C_26
REMARK   10  A    between atoms: C_24  and  C_29
REMARK   11  A    between atoms: C_26  and  C_27
REMARK   12  A    between atoms: C_26  and  C_28
REMARK                            x       y       z     vdW  Elec       q    Type
REMARK                         _______ _______ _______ _____ _____    ______ ____
ROOT
ATOM      1  N   UNL     1       1.546   2.131   0.054  0.00  0.00    -0.214 N 
ATOM      2  C   UNL     1       0.479   1.302   0.099  0.00  0.00    +0.275 C 
ATOM      3  O   UNL     1       0.491   0.085   0.111  0.00  0.00    -0.268 OA
ATOM      4  C   UNL     1      -0.702   2.184   0.126  0.00  0.00    +0.129 C 
ATOM      5  C   UNL     1      -2.013   1.802   0.169  0.00  0.00    +0.041 C 
ATOM      6  N   UNL     1      -0.217   3.462   0.102  0.00  0.00    -0.220 NA
ATOM      7  C   UNL     1       1.089   3.426   0.057  0.00  0.00    +0.169 C 
ENDROOT
BRANCH   1  13
ATOM      8  C   UNL     1       5.819   1.911  -2.371  0.00  0.00    +0.044 C 
ATOM      9  C   UNL     1       4.984   1.616  -1.152  0.00  0.00    -0.048 A 
ATOM     10  C   UNL     1       5.544   0.956  -0.074  0.00  0.00    +0.006 A 
ATOM     11  C   UNL     1       4.780   0.684   1.046  0.00  0.00    -0.048 A 
ATOM     12  C   UNL     1       3.455   1.072   1.091  0.00  0.00    +0.027 A 
ATOM     13  C   UNL     1       2.890   1.735   0.011  0.00  0.00    +0.044 A 
ATOM     14  C   UNL     1       3.658   2.001  -1.115  0.00  0.00    +0.027 A 
ATOM     15  C   UNL     1       5.394  -0.036   2.219  0.00  0.00    +0.044 C 
ENDBRANCH   1  13
BRANCH   5  16
ATOM     16  C   UNL     1      -3.074   2.809   0.069  0.00  0.00    -0.023 A 
ATOM     17  C   UNL     1      -4.415   2.411  -0.023  0.00  0.00    +0.011 A 
ATOM     18  C   UNL     1      -5.406   3.361  -0.111  0.00  0.00    +0.046 A 
ATOM     19  C   UNL     1      -5.080   4.713  -0.121  0.00  0.00    +0.120 A 
ATOM     20  C   UNL     1      -3.751   5.113  -0.035  0.00  0.00    +0.046 A 
ATOM     21  C   UNL     1      -2.751   4.172   0.059  0.00  0.00    +0.011 A 
BRANCH  19  22
ATOM     22  O   UNL     1      -6.062   5.645  -0.213  0.00  0.00    -0.495 OA
ATOM     23  C   UNL     1      -7.405   5.166  -0.298  0.00  0.00    +0.277 C 
ENDBRANCH  19  22
ENDBRANCH   5  16
BRANCH   7  24
ATOM     24  S   UNL     1       2.125   4.850   0.006  0.00  0.00    -0.077 S 
BRANCH  24  25
ATOM     25  C   UNL     1       0.881   6.151   0.206  0.00  0.00    +0.143 C 
BRANCH  25  26
ATOM     26  C   UNL     1       0.328   6.105   1.607  0.00  0.00    +0.234 C 
ATOM     27  O   UNL     1       0.991   5.633   2.506  0.00  0.00    -0.274 OA
ATOM     28  N   UNL     1      -0.904   6.589   1.861  0.00  0.00    -0.239 N 
ATOM     29  C   UNL     1      -1.399   6.549   3.114  0.00  0.00    +0.303 C 
ATOM     30  O   UNL     1      -0.734   6.075   4.015  0.00  0.00    -0.253 OA
ATOM     31  N   UNL     1      -2.631   7.033   3.368  0.00  0.00    -0.313 N 
ATOM     32  H   UNL     1      -1.505   7.018   1.046  0.00  0.00    +0.159 HD
ATOM     33  H   UNL     1      -3.034   7.000   4.391  0.00  0.00    +0.146 HD
ATOM     34  H   UNL     1      -3.232   7.461   2.553  0.00  0.00    +0.146 HD
ENDBRANCH  25  26
BRANCH  25  35
ATOM     35  C   UNL     1       1.526   7.515  -0.043  0.00  0.00    +0.005 C 
ATOM     36  C   UNL     1       1.988   7.603  -1.499  0.00  0.00    +0.009 C 
ATOM     37  C   UNL     1       0.505   8.620   0.235  0.00  0.00    +0.009 C 
ENDBRANCH  25  35
ENDBRANCH  24  25
ENDBRANCH   7  24
TORSDOF 7
