REMARK  Name = ZINC36541009
REMARK  10 active torsions:
REMARK  status: ('A' for Active; 'I' for Inactive)
REMARK    1  A    between atoms: C_1  and  C_2
REMARK    2  A    between atoms: C_5  and  C_8
REMARK    3  A    between atoms: C_8  and  C_10
REMARK    4  A    between atoms: C_8  and  N_17
REMARK    5  A    between atoms: N_12  and  C_13
REMARK    6  A    between atoms: C_13  and  C_14
REMARK    7  A    between atoms: C_13  and  C_15
REMARK    8  A    between atoms: C_13  and  C_16
REMARK    9  A    between atoms: N_17  and  C_18
REMARK   10  A    between atoms: C_25  and  C_27
REMARK                            x       y       z     vdW  Elec       q    Type
REMARK                         _______ _______ _______ _____ _____    ______ ____
ROOT
ATOM      1  C   UNL     1       0.440  -3.550   0.269  0.00  0.00    +0.197 C 
ENDROOT
BRANCH   1   6
ATOM      2  C   UNL     1       0.298   1.289   3.425  0.00  0.00    +0.044 C 
ATOM      3  C   UNL     1       0.335   0.027   2.602  0.00  0.00    -0.050 A 
ATOM      4  C   UNL     1       0.872  -1.130   3.134  0.00  0.00    +0.004 A 
ATOM      5  C   UNL     1       0.906  -2.288   2.380  0.00  0.00    +0.006 A 
ATOM      6  C   UNL     1       0.402  -2.288   1.092  0.00  0.00    -0.018 A 
ATOM      7  C   UNL     1      -0.136  -1.132   0.560  0.00  0.00    +0.006 A 
ATOM      8  C   UNL     1      -0.173   0.025   1.316  0.00  0.00    +0.004 A 
ENDBRANCH   1   6
BRANCH   1   9
ATOM      9  C   UNL     1      -0.966  -4.035   0.028  0.00  0.00    +0.239 C 
ATOM     10  O   UNL     1      -1.342  -5.075   0.526  0.00  0.00    -0.273 OA
ATOM     11  N   UNL     1      -1.806  -3.314  -0.740  0.00  0.00    -0.309 N 
ATOM     12  H   UNL     1      -1.529  -2.449  -1.081  0.00  0.00    +0.149 HD
BRANCH  11  13
ATOM     13  C   UNL     1      -3.136  -3.836  -1.061  0.00  0.00    +0.026 C 
ATOM     14  C   UNL     1      -3.921  -4.061   0.232  0.00  0.00    +0.031 C 
ATOM     15  C   UNL     1      -3.881  -2.829  -1.941  0.00  0.00    +0.031 C 
ATOM     16  C   UNL     1      -2.997  -5.162  -1.811  0.00  0.00    +0.031 C 
ENDBRANCH  11  13
ENDBRANCH   1   9
BRANCH   1  17
ATOM     17  N   UNL     1       1.196  -4.580   0.987  0.00  0.00    -0.254 N 
ATOM     18  C   UNL     1       0.719  -5.081   2.144  0.00  0.00    +0.224 C 
ATOM     19  O   UNL     1      -0.391  -4.776   2.526  0.00  0.00    -0.275 OA
BRANCH  17  20
ATOM     20  C   UNL     1       2.412  -5.042   0.472  0.00  0.00    +0.056 A 
ATOM     21  C   UNL     1       3.611  -4.593   1.009  0.00  0.00    +0.025 A 
ATOM     22  C   UNL     1       4.810  -5.051   0.499  0.00  0.00    +0.002 A 
ATOM     23  C   UNL     1       4.817  -5.957  -0.546  0.00  0.00    +0.002 A 
ATOM     24  C   UNL     1       3.626  -6.407  -1.084  0.00  0.00    +0.022 A 
ATOM     25  C   UNL     1       2.422  -5.957  -0.574  0.00  0.00    +0.062 A 
ATOM     26 CL   UNL     1       0.926  -6.528  -1.244  0.00  0.00    -0.082 Cl
ENDBRANCH  17  20
BRANCH  18  27
ATOM     27  C   UNL     1       1.566  -6.020   2.964  0.00  0.00    +0.076 C 
ATOM     28  C   UNL     1       1.720  -7.348   2.221  0.00  0.00    +0.013 C 
ATOM     29  C   UNL     1       2.580  -8.302   3.053  0.00  0.00    +0.001 C 
ATOM     30  C   UNL     1       1.906  -8.548   4.404  0.00  0.00    +0.000 C 
ATOM     31  C   UNL     1       1.752  -7.220   5.147  0.00  0.00    +0.001 C 
ATOM     32  C   UNL     1       0.893  -6.266   4.315  0.00  0.00    +0.013 C 
ENDBRANCH  18  27
ENDBRANCH   1  17
TORSDOF 6
