REMARK  Name = ZINC09428350
REMARK  7 active torsions:
REMARK  status: ('A' for Active; 'I' for Inactive)
REMARK    1  A    between atoms: C_1  and  C_2
REMARK    2  A    between atoms: C_7  and  N_8
REMARK    3  A    between atoms: C_9  and  C_20
REMARK    4  A    between atoms: C_21  and  C_22
REMARK    5  A    between atoms: C_25  and  O_30
REMARK    6  A    between atoms: C_26  and  O_28
REMARK    7  A    between atoms: O_28  and  C_29
REMARK                            x       y       z     vdW  Elec       q    Type
REMARK                         _______ _______ _______ _____ _____    ______ ____
ROOT
ATOM      1  N   UNL     1       2.341   1.473  -0.012  0.00  0.00    -0.261 N 
ATOM      2  C   UNL     1       1.092   2.046   0.003  0.00  0.00    +0.141 A 
ATOM      3  N   UNL     1      -0.016   1.342   0.009  0.00  0.00    -0.229 NA
ATOM      4  C   UNL     1       0.002  -0.004   0.002  0.00  0.00    +0.079 A 
ATOM      5  C   UNL     1      -1.181  -0.750   0.010  0.00  0.00    +0.029 A 
ATOM      6  C   UNL     1      -1.124  -2.115   0.002  0.00  0.00    +0.017 A 
ATOM      7  C   UNL     1       0.097  -2.779  -0.013  0.00  0.00    +0.019 A 
ATOM      8  C   UNL     1       1.280  -2.072  -0.021  0.00  0.00    +0.030 A 
ATOM      9  C   UNL     1       1.245  -0.679  -0.013  0.00  0.00    +0.066 A 
ATOM     10  C   UNL     1       2.475   0.127  -0.021  0.00  0.00    +0.267 A 
ATOM     11  O   UNL     1       3.573  -0.398  -0.034  0.00  0.00    -0.267 OA
ATOM     12 BR   UNL     1       0.135  -4.670  -0.023  0.00  0.00    -0.050 Br
ENDROOT
BRANCH   1  19
ATOM     13  C   UNL     1       3.458   2.241   2.490  0.00  0.00    +0.046 C 
ATOM     14  C   UNL     1       4.058   2.684   1.180  0.00  0.00    -0.026 A 
ATOM     15  C   UNL     1       5.182   3.487   1.171  0.00  0.00    +0.005 A 
ATOM     16  C   UNL     1       5.732   3.894  -0.030  0.00  0.00    +0.000 A 
ATOM     17  C   UNL     1       5.160   3.499  -1.226  0.00  0.00    +0.002 A 
ATOM     18  C   UNL     1       4.039   2.693  -1.224  0.00  0.00    +0.026 A 
ATOM     19  C   UNL     1       3.480   2.287  -0.018  0.00  0.00    +0.054 A 
ENDBRANCH   1  19
BRANCH   2  20
ATOM     20  C   UNL     1       0.993   3.506   0.011  0.00  0.00    +0.047 C 
ATOM     21  C   UNL     1      -0.218   4.100   0.025  0.00  0.00    +0.011 C 
BRANCH  21  22
ATOM     22  C   UNL     1      -0.318   5.567   0.034  0.00  0.00    -0.021 A 
ATOM     23  C   UNL     1       0.842   6.349   0.027  0.00  0.00    +0.012 A 
ATOM     24  C   UNL     1       0.746   7.724   0.034  0.00  0.00    +0.050 A 
ATOM     25  C   UNL     1      -0.500   8.336   0.048  0.00  0.00    +0.158 A 
ATOM     26  C   UNL     1      -1.660   7.564   0.056  0.00  0.00    +0.162 A 
ATOM     27  C   UNL     1      -1.573   6.185   0.043  0.00  0.00    +0.057 A 
BRANCH  26  28
ATOM     28  O   UNL     1      -2.879   8.168   0.070  0.00  0.00    -0.491 OA
ATOM     29  C   UNL     1      -4.026   7.315   0.077  0.00  0.00    +0.277 C 
ENDBRANCH  26  28
BRANCH  25  30
ATOM     30  O   UNL     1      -0.589   9.692   0.055  0.00  0.00    -0.503 OA
ATOM     31  H   UNL     1      -0.622  10.088  -0.826  0.00  0.00    +0.292 HD
ENDBRANCH  25  30
ENDBRANCH  21  22
ENDBRANCH   2  20
TORSDOF 5
