REMARK  Name = ZINC47136785
REMARK  3 active torsions:
REMARK  status: ('A' for Active; 'I' for Inactive)
REMARK    1  A    between atoms: C_1  and  C_2
REMARK    2  A    between atoms: C_7  and  C_22
REMARK    3  A    between atoms: C_10  and  C_12
REMARK                            x       y       z     vdW  Elec       q    Type
REMARK                         _______ _______ _______ _____ _____    ______ ____
ROOT
ATOM      1  C   UNL     1      -0.021   1.530   0.011  0.00  0.00    +0.015 C 
ATOM      2  C   UNL     1       0.001   0.000   0.004  0.00  0.00    +0.013 C 
ATOM      3  C   UNL     1       0.693  -0.645  -1.214  0.00  0.00    +0.011 C 
ATOM      4  C   UNL     1       1.221  -2.017  -0.738  0.00  0.00    +0.005 C 
ATOM      5  C   UNL     1       0.574  -2.169   0.679  0.00  0.00    +0.001 C 
ATOM      6  C   UNL     1       0.731  -0.702   1.220  0.00  0.00    +0.003 C 
ATOM      7  C   UNL     1      -0.325  -0.503   2.335  0.00  0.00    +0.168 C 
ATOM      8  O   UNL     1      -1.599  -0.382   1.678  0.00  0.00    -0.363 OA
ATOM      9  C   UNL     1      -1.372  -0.705   0.277  0.00  0.00    +0.151 C 
ATOM     10  C   UNL     1      -0.945  -2.246   0.308  0.00  0.00    +0.049 C 
ATOM     11  C   UNL     1       2.160  -0.252   1.531  0.00  0.00    +0.014 C 
ENDROOT
BRANCH   9  12
ATOM     12  C   UNL     1      -2.491  -0.348  -0.666  0.00  0.00    +0.251 C 
ATOM     13  O   UNL     1      -2.239   0.047  -1.785  0.00  0.00    -0.272 OA
ATOM     14  N   UNL     1      -3.773  -0.467  -0.267  0.00  0.00    -0.268 N 
ATOM     15  C   UNL     1      -4.805  -0.037  -1.100  0.00  0.00    +0.125 A 
ATOM     16  C   UNL     1      -6.117  -0.064  -0.640  0.00  0.00    +0.045 A 
ATOM     17  C   UNL     1      -7.132   0.366  -1.477  0.00  0.00    +0.019 A 
ATOM     18  C   UNL     1      -6.799   0.810  -2.750  0.00  0.00    +0.032 A 
ATOM     19  C   UNL     1      -5.474   0.809  -3.140  0.00  0.00    +0.127 A 
ATOM     20  N   UNL     1      -4.527   0.399  -2.318  0.00  0.00    -0.239 NA
ATOM     21  I   UNL     1      -8.289   1.472  -4.064  0.00  0.00    -0.042 I 
ATOM     22  H   UNL     1      -3.977  -0.851   0.600  0.00  0.00    +0.156 HD
ENDBRANCH   9  12
TORSDOF 1
