REMARK  Name = ZINC16450058
REMARK  10 active torsions:
REMARK  status: ('A' for Active; 'I' for Inactive)
REMARK    1  A    between atoms: C_5  and  C_7
REMARK    2  A    between atoms: C_7  and  O_8
REMARK    3  A    between atoms: O_8  and  C_9
REMARK    4  A    between atoms: C_13  and  C_15
REMARK    5  A    between atoms: C_15  and  N_50
REMARK    6  A    between atoms: C_16  and  C_17
REMARK    7  A    between atoms: C_16  and  N_50
REMARK    8  A    between atoms: C_17  and  N_18
REMARK    9  A    between atoms: N_18  and  C_19
REMARK   10  A    between atoms: C_22  and  N_26
REMARK                            x       y       z     vdW  Elec       q    Type
REMARK                         _______ _______ _______ _____ _____    ______ ____
ROOT
ATOM      1  N   UNL     1      -1.974   0.732  -6.424  0.00  0.00    +0.383 N 
ATOM      2  H   UNL     1      -2.670   0.630  -5.676  0.00  0.00    -0.085 HD
ATOM      3  H   UNL     1      -1.509  -0.169  -6.585  0.00  0.00    -0.085 HD
ENDROOT
BRANCH   1   4
ATOM      4  C   UNL     1      -0.969   1.733  -6.020  0.00  0.00    -0.047 C 
BRANCH   4   9
ATOM      5  C   UNL     1      -0.194   1.208  -2.359  0.00  0.00    +0.121 A 
ATOM      6  C   UNL     1       0.948   0.423  -2.431  0.00  0.00    +0.045 A 
ATOM      7  C   UNL     1       1.464   0.067  -3.661  0.00  0.00    +0.004 A 
ATOM      8  C   UNL     1       0.844   0.491  -4.822  0.00  0.00    +0.002 A 
ATOM      9  C   UNL     1      -0.295   1.273  -4.753  0.00  0.00    -0.061 A 
ATOM     10  C   UNL     1      -0.818   1.628  -3.525  0.00  0.00    +0.047 A 
BRANCH   5  11
ATOM     11  O   UNL     1      -0.704   1.559  -1.150  0.00  0.00    -0.487 OA
BRANCH  11  12
ATOM     12  C   UNL     1      -0.013   1.086   0.008  0.00  0.00    +0.266 C 
BRANCH  12  17
ATOM     13  C   UNL     1      -2.500   2.799   2.273  0.00  0.00    +0.000 A 
ATOM     14  C   UNL     1      -2.012   2.465   3.523  0.00  0.00    +0.001 A 
ATOM     15  C   UNL     1      -0.877   1.685   3.636  0.00  0.00    +0.020 A 
ATOM     16  C   UNL     1      -0.229   1.237   2.498  0.00  0.00    +0.047 A 
ATOM     17  C   UNL     1      -0.718   1.572   1.248  0.00  0.00    +0.008 A 
ATOM     18  C   UNL     1      -1.851   2.357   1.136  0.00  0.00    +0.008 A 
ATOM     19 CL   UNL     1       1.197   0.258   2.639  0.00  0.00    -0.083 Cl
ENDBRANCH  12  17
ENDBRANCH  11  12
ENDBRANCH   5  11
ENDBRANCH   4   9
ENDBRANCH   1   4
BRANCH   1  20
ATOM     20  C   UNL     1      -2.651   1.158  -7.664  0.00  0.00    -0.063 C 
BRANCH  20  21
ATOM     21  C   UNL     1      -3.686   0.102  -8.058  0.00  0.00    +0.082 C 
BRANCH  21  22
ATOM     22  N   UNL     1      -4.363   0.517  -9.289  0.00  0.00    -0.345 N 
ATOM     23  H   UNL     1      -4.122   1.353  -9.716  0.00  0.00    +0.146 HD
BRANCH  22  24
ATOM     24  C   UNL     1      -5.356  -0.292  -9.847  0.00  0.00    +0.046 A 
ATOM     25  C   UNL     1      -5.702  -1.491  -9.236  0.00  0.00    +0.026 A 
ATOM     26  C   UNL     1      -6.685  -2.288  -9.790  0.00  0.00    +0.034 A 
ATOM     27  C   UNL     1      -7.323  -1.895 -10.952  0.00  0.00    +0.128 A 
ATOM     28  C   UNL     1      -6.982  -0.703 -11.563  0.00  0.00    +0.054 A 
ATOM     29  C   UNL     1      -6.004   0.103 -11.011  0.00  0.00    +0.064 A 
ATOM     30 CL   UNL     1      -5.581   1.603 -11.775  0.00  0.00    -0.082 Cl
BRANCH  27  31
ATOM     31  N   UNL     1      -8.376  -2.753 -11.542  0.00  0.00    +0.056 N 
ATOM     32  O   UNL     1      -8.678  -3.803 -11.005  0.00  0.00    -0.126 OA
ATOM     33  O   UNL     1      -8.939  -2.408 -12.566  0.00  0.00    -0.126 OA
ENDBRANCH  27  31
ENDBRANCH  22  24
ENDBRANCH  21  22
ENDBRANCH  20  21
ENDBRANCH   1  20
TORSDOF 10
