REMARK  Name = ZINC27669620
REMARK  13 active torsions:
REMARK  status: ('A' for Active; 'I' for Inactive)
REMARK    1  A    between atoms: C_1  and  C_2
REMARK    2  A    between atoms: C_2  and  C_4
REMARK    3  A    between atoms: C_2  and  N_24
REMARK    4  A    between atoms: N_6  and  C_7
REMARK    5  A    between atoms: C_7  and  C_8
REMARK    6  A    between atoms: C_8  and  C_10
REMARK    7  A    between atoms: C_8  and  N_18
REMARK    8  A    between atoms: C_13  and  O_16
REMARK    9  A    between atoms: O_16  and  C_17
REMARK   10  A    between atoms: C_25  and  C_27
REMARK   11  A    between atoms: C_28  and  C_29
REMARK   12  A    between atoms: C_32  and  O_35
REMARK   13  A    between atoms: O_35  and  C_36
REMARK                            x       y       z     vdW  Elec       q    Type
REMARK                         _______ _______ _______ _____ _____    ______ ____
ROOT
ATOM      1  C   UNL     1       4.711   1.159  -0.844  0.00  0.00    +0.233 C 
ATOM      2  O   UNL     1       4.420   0.120  -1.398  0.00  0.00    -0.274 OA
ATOM      3  N   UNL     1       5.990   1.585  -0.839  0.00  0.00    -0.315 N 
ATOM      4  H   UNL     1       6.254   2.527  -0.336  0.00  0.00    +0.149 HD
ENDROOT
BRANCH   1   6
ATOM      5  C   UNL     1       3.980   2.115   1.324  0.00  0.00    +0.038 C 
ATOM      6  C   UNL     1       3.643   1.974  -0.162  0.00  0.00    +0.156 C 
BRANCH   6   7
ATOM      7  N   UNL     1       2.349   1.303  -0.308  0.00  0.00    -0.301 N 
ATOM      8  C   UNL     1       1.208   2.019  -0.249  0.00  0.00    +0.237 C 
ATOM      9  O   UNL     1       1.254   3.223  -0.075  0.00  0.00    -0.271 OA
ATOM     10  H   UNL     1       2.308   0.215  -0.465  0.00  0.00    +0.150 HD
BRANCH   8  11
ATOM     11  C   UNL     1      -0.084   1.349  -0.395  0.00  0.00    +0.068 C 
ATOM     12  C   UNL     1      -1.226   2.067  -0.343  0.00  0.00    +0.013 C 
BRANCH  12  13
ATOM     13  C   UNL     1      -2.524   1.395  -0.495  0.00  0.00    -0.025 A 
ATOM     14  C   UNL     1      -2.578   0.011  -0.701  0.00  0.00    +0.011 A 
ATOM     15  C   UNL     1      -3.797  -0.615  -0.838  0.00  0.00    +0.046 A 
ATOM     16  C   UNL     1      -4.972   0.127  -0.783  0.00  0.00    +0.120 A 
ATOM     17  C   UNL     1      -4.923   1.502  -0.584  0.00  0.00    +0.046 A 
ATOM     18  C   UNL     1      -3.709   2.136  -0.441  0.00  0.00    +0.011 A 
BRANCH  16  19
ATOM     19  O   UNL     1      -6.170  -0.494  -0.924  0.00  0.00    -0.495 OA
ATOM     20  C   UNL     1      -6.149  -1.909  -1.125  0.00  0.00    +0.277 C 
ENDBRANCH  16  19
ENDBRANCH  12  13
ENDBRANCH   8  11
ENDBRANCH   6   7
ENDBRANCH   1   6
BRANCH   3  21
ATOM     21  C   UNL     1       7.029   0.793  -1.502  0.00  0.00    +0.093 C 
BRANCH  21  22
ATOM     22  C   UNL     1       8.352   1.560  -1.472  0.00  0.00    -0.020 C 
BRANCH  22  23
ATOM     23  N   UNL     1       9.409   0.735  -2.072  0.00  0.00    +0.385 N 
ATOM     24  C   UNL     1       9.537  -0.549  -1.371  0.00  0.00    -0.078 C 
ATOM     25  C   UNL     1      10.542  -1.437  -2.109  0.00  0.00    -0.019 C 
ATOM     26  C   UNL     1      11.898  -0.728  -2.165  0.00  0.00    -0.004 C 
ATOM     27  C   UNL     1      11.728   0.628  -2.857  0.00  0.00    -0.019 C 
ATOM     28  C   UNL     1      10.689   1.456  -2.097  0.00  0.00    -0.078 C 
ATOM     29  H   UNL     1       9.124   0.522  -3.113  0.00  0.00    -0.081 HD
ENDBRANCH  22  23
BRANCH  22  30
ATOM     30  C   UNL     1       8.209   2.840  -2.255  0.00  0.00    -0.059 A 
ATOM     31  C   UNL     1       8.297   2.819  -3.635  0.00  0.00    +0.005 A 
ATOM     32  C   UNL     1       8.160   3.990  -4.354  0.00  0.00    +0.046 A 
ATOM     33  C   UNL     1       7.946   5.189  -3.691  0.00  0.00    +0.120 A 
ATOM     34  C   UNL     1       7.863   5.208  -2.306  0.00  0.00    +0.046 A 
ATOM     35  C   UNL     1       7.995   4.034  -1.591  0.00  0.00    +0.005 A 
BRANCH  33  36
ATOM     36  O   UNL     1       7.817   6.344  -4.396  0.00  0.00    -0.495 OA
ATOM     37  C   UNL     1       7.913   6.249  -5.819  0.00  0.00    +0.277 C 
ENDBRANCH  33  36
ENDBRANCH  22  30
ENDBRANCH  21  22
ENDBRANCH   3  21
TORSDOF 10
