REMARK  Name = ZINC09270515
REMARK  17 active torsions:
REMARK  status: ('A' for Active; 'I' for Inactive)
REMARK    1  A    between atoms: C_1  and  C_2
REMARK    2  A    between atoms: C_2  and  N_73
REMARK    3  A    between atoms: C_3  and  C_4
REMARK    4  A    between atoms: C_3  and  N_73
REMARK    5  A    between atoms: C_5  and  C_6
REMARK    6  A    between atoms: C_5  and  N_73
REMARK    7  A    between atoms: C_6  and  N_7
REMARK    8  A    between atoms: C_8  and  C_26
REMARK    9  A    between atoms: C_11  and  C_12
REMARK   10  A    between atoms: C_11  and  O_21
REMARK   11  A    between atoms: C_15  and  O_18
REMARK   12  A    between atoms: O_18  and  C_19
REMARK   13  A    between atoms: C_19  and  C_20
REMARK   14  A    between atoms: C_29  and  C_32
REMARK   15  A    between atoms: C_32  and  C_33
REMARK   16  A    between atoms: C_32  and  C_34
REMARK   17  A    between atoms: C_32  and  C_35
REMARK                            x       y       z     vdW  Elec       q    Type
REMARK                         _______ _______ _______ _____ _____    ______ ____
ROOT
ATOM      1  N   UNL     1      -2.545   5.318   3.324  0.00  0.00    -0.285 N 
ATOM      2  C   UNL     1      -1.985   6.189   4.362  0.00  0.00    +0.144 C 
ATOM      3  C   UNL     1      -3.157   6.758   5.127  0.00  0.00    +0.071 C 
ATOM      4  C   UNL     1      -3.104   7.631   6.197  0.00  0.00    +0.133 C 
ATOM      5  C   UNL     1      -4.309   6.222   4.534  0.00  0.00    +0.249 C 
ATOM      6  O   UNL     1      -5.457   6.446   4.873  0.00  0.00    -0.282 OA
ATOM      7  C   UNL     1      -3.886   5.337   3.415  0.00  0.00    +0.288 C 
ATOM      8  O   UNL     1      -4.641   4.720   2.692  0.00  0.00    -0.266 OA
ENDROOT
BRANCH   4   9
ATOM      9  C   UNL     1      -4.346   8.186   6.756  0.00  0.00    +0.017 A 
ATOM     10  C   UNL     1      -5.310   8.744   5.908  0.00  0.00    +0.015 A 
ATOM     11  C   UNL     1      -6.473   9.257   6.435  0.00  0.00    +0.046 A 
ATOM     12  C   UNL     1      -6.687   9.230   7.809  0.00  0.00    +0.121 A 
ATOM     13  C   UNL     1      -5.730   8.682   8.657  0.00  0.00    +0.046 A 
ATOM     14  C   UNL     1      -4.566   8.162   8.139  0.00  0.00    +0.015 A 
BRANCH  12  15
ATOM     15  O   UNL     1      -7.833   9.742   8.325  0.00  0.00    -0.492 OA
BRANCH  15  16
ATOM     16  C   UNL     1      -8.773  10.290   7.399  0.00  0.00    +0.225 C 
ATOM     17  C   UNL     1      -9.993  10.814   8.160  0.00  0.00    +0.048 C 
ENDBRANCH  15  16
ENDBRANCH  12  15
ENDBRANCH   4   9
BRANCH   2  18
ATOM     18  C   UNL     1      -1.192   7.302   3.728  0.00  0.00    -0.022 A 
ATOM     19  C   UNL     1      -1.656   7.913   2.578  0.00  0.00    +0.006 A 
ATOM     20  C   UNL     1      -0.931   8.938   1.999  0.00  0.00    +0.004 A 
ATOM     21  C   UNL     1       0.263   9.345   2.565  0.00  0.00    -0.042 A 
ATOM     22  C   UNL     1       0.729   8.731   3.712  0.00  0.00    +0.004 A 
ATOM     23  C   UNL     1       0.002   7.709   4.293  0.00  0.00    +0.006 A 
BRANCH  21  24
ATOM     24  C   UNL     1       1.055  10.460   1.931  0.00  0.00    -0.013 C 
ATOM     25  C   UNL     1       2.439   9.941   1.536  0.00  0.00    +0.015 C 
ATOM     26  C   UNL     1       0.324  10.961   0.685  0.00  0.00    +0.015 C 
ATOM     27  C   UNL     1       1.208  11.609   2.930  0.00  0.00    +0.015 C 
ENDBRANCH  21  24
ENDBRANCH   2  18
BRANCH   4  28
ATOM     28  O   UNL     1      -1.911   7.975   6.729  0.00  0.00    -0.506 OA
ATOM     29  H   UNL     1      -2.056   8.609   7.489  0.00  0.00    +0.292 HD
ENDBRANCH   4  28
BRANCH   1  30
ATOM     30  C   UNL     1      -1.770   4.555   2.343  0.00  0.00    +0.090 C 
BRANCH  30  31
ATOM     31  C   UNL     1      -1.447   3.172   2.911  0.00  0.00    -0.060 C 
BRANCH  31  32
ATOM     32  N   UNL     1      -0.684   2.408   1.902  0.00  0.00    +0.380 N 
ATOM     33  H   UNL     1      -1.191   2.434   1.010  0.00  0.00    -0.082 HD
BRANCH  32  35
ATOM     34  C   UNL     1      -1.864   0.274   2.070  0.00  0.00    -0.017 C 
ATOM     35  C   UNL     1      -0.544   1.001   2.333  0.00  0.00    -0.082 C 
ENDBRANCH  32  35
BRANCH  32  36
ATOM     36  C   UNL     1       0.651   3.014   1.714  0.00  0.00    -0.082 C 
ATOM     37  C   UNL     1       1.226   2.528   0.382  0.00  0.00    -0.017 C 
ENDBRANCH  32  36
ENDBRANCH  31  32
ENDBRANCH  30  31
ENDBRANCH   1  30
TORSDOF 11
