REMARK  Name = ZINC19820042
REMARK  1 active torsions:
REMARK  status: ('A' for Active; 'I' for Inactive)
REMARK    1  A    between atoms: C_3  and  C_8
REMARK                            x       y       z     vdW  Elec       q    Type
REMARK                         _______ _______ _______ _____ _____    ______ ____
ROOT
ATOM      1  C   UNL     1       3.674   2.182  -0.021  0.00  0.00    +0.092 C 
ATOM      2  C   UNL     1       4.438   1.853  -1.269  0.00  0.00    +0.069 A 
ATOM      3  C   UNL     1       5.621   1.184  -1.210  0.00  0.00    +0.112 A 
ATOM      4  N   UNL     1       6.287   0.894  -2.371  0.00  0.00    -0.315 N 
ATOM      5  H   UNL     1       7.130   0.416  -2.340  0.00  0.00    +0.170 HD
ATOM      6  C   UNL     1       5.766   1.276  -3.570  0.00  0.00    +0.200 A 
ATOM      7  N   UNL     1       4.624   1.926  -3.641  0.00  0.00    -0.177 NA
ATOM      8  C   UNL     1       3.934   2.234  -2.531  0.00  0.00    +0.280 A 
ATOM      9  O   UNL     1       2.876   2.840  -2.614  0.00  0.00    -0.265 OA
ATOM     10  N   UNL     1       6.443   0.977  -4.723  0.00  0.00    -0.297 N 
ATOM     11  C   UNL     1       7.655   0.143  -4.695  0.00  0.00    +0.136 C 
ATOM     12  C   UNL     1       7.498  -0.972  -5.736  0.00  0.00    +0.179 C 
ATOM     13  O   UNL     1       7.154  -0.393  -6.997  0.00  0.00    -0.377 OA
ATOM     14  C   UNL     1       5.904   0.301  -7.001  0.00  0.00    +0.179 C 
ATOM     15  C   UNL     1       5.976   1.476  -6.026  0.00  0.00    +0.136 C 
ATOM     16  N   UNL     1       6.143   0.807   0.006  0.00  0.00    -0.304 N 
ATOM     17  C   UNL     1       5.721   1.407   1.162  0.00  0.00    +0.017 C 
ATOM     18  C   UNL     1       4.550   2.075   1.201  0.00  0.00    +0.024 C 
ATOM     19  C   UNL     1       4.109   2.690   2.386  0.00  0.00    +0.162 C 
ATOM     20  O   UNL     1       3.057   3.297   2.386  0.00  0.00    -0.292 OA
ATOM     21  C   UNL     1       4.914   2.609   3.654  0.00  0.00    +0.080 C 
ATOM     22  C   UNL     1       5.735   1.315   3.642  0.00  0.00    +0.014 C 
ATOM     23  C   UNL     1       6.600   1.305   2.384  0.00  0.00    +0.051 C 
ATOM     24  H   UNL     1       6.816   0.110   0.044  0.00  0.00    +0.153 HD
ENDROOT
BRANCH   1  27
ATOM     25  C   UNL     1       0.159   0.829   0.255  0.00  0.00    +0.001 A 
ATOM     26  C   UNL     1       1.221   1.706   0.130  0.00  0.00    +0.004 A 
ATOM     27  C   UNL     1       2.517   1.226   0.116  0.00  0.00    -0.034 A 
ATOM     28  C   UNL     1       2.752  -0.132   0.228  0.00  0.00    +0.019 A 
ATOM     29  C   UNL     1       1.690  -1.009   0.354  0.00  0.00    +0.018 A 
ATOM     30  C   UNL     1       0.394  -0.528   0.367  0.00  0.00    +0.015 A 
ATOM     31 BR   UNL     1       2.011  -2.867   0.507  0.00  0.00    -0.050 Br
ENDBRANCH   1  27
TORSDOF 1
