REMARK  Name = ZINC54641329
REMARK  8 active torsions:
REMARK  status: ('A' for Active; 'I' for Inactive)
REMARK    1  A    between atoms: C_1  and  C_2
REMARK    2  A    between atoms: C_3  and  C_27
REMARK    3  A    between atoms: C_4  and  C_12
REMARK    4  A    between atoms: C_15  and  O_18
REMARK    5  A    between atoms: O_18  and  C_19
REMARK    6  A    between atoms: C_19  and  C_20
REMARK    7  A    between atoms: C_27  and  O_29
REMARK    8  A    between atoms: O_29  and  C_30
REMARK                            x       y       z     vdW  Elec       q    Type
REMARK                         _______ _______ _______ _____ _____    ______ ____
ROOT
ATOM      1  C   UNL     1      -0.018   1.503   0.010  0.00  0.00    +0.061 C 
ATOM      2  C   UNL     1       0.002  -0.004   0.002  0.00  0.00    +0.020 C 
ATOM      3  C   UNL     1      -1.164  -0.668   0.004  0.00  0.00    +0.082 C 
ATOM      4  C   UNL     1      -1.253  -2.171   0.008  0.00  0.00    +0.179 C 
ATOM      5  N   UNL     1       0.061  -2.737  -0.283  0.00  0.00    -0.221 N 
ATOM      6  C   UNL     1       1.207  -2.012  -0.280  0.00  0.00    +0.218 A 
ATOM      7  N   UNL     1       2.193  -2.817  -0.570  0.00  0.00    -0.201 NA
ATOM      8  C   UNL     1       1.720  -4.051  -0.766  0.00  0.00    +0.247 A 
ATOM      9  N   UNL     1       0.420  -4.046  -0.602  0.00  0.00    -0.156 NA
ATOM     10  N   UNL     1       1.212  -0.651  -0.013  0.00  0.00    -0.287 N 
ATOM     11  H   UNL     1       2.040  -0.175   0.160  0.00  0.00    +0.155 HD
ENDROOT
BRANCH   4  12
ATOM     12  C   UNL     1      -1.716  -2.644   1.362  0.00  0.00    -0.018 A 
ATOM     13  C   UNL     1      -0.972  -2.345   2.488  0.00  0.00    +0.009 A 
ATOM     14  C   UNL     1      -1.393  -2.778   3.731  0.00  0.00    +0.046 A 
ATOM     15  C   UNL     1      -2.565  -3.511   3.848  0.00  0.00    +0.121 A 
ATOM     16  C   UNL     1      -3.310  -3.809   2.716  0.00  0.00    +0.046 A 
ATOM     17  C   UNL     1      -2.887  -3.370   1.477  0.00  0.00    +0.009 A 
BRANCH  15  18
ATOM     18  O   UNL     1      -2.981  -3.938   5.069  0.00  0.00    -0.487 OA
BRANCH  18  19
ATOM     19  C   UNL     1      -4.197  -4.689   5.114  0.00  0.00    +0.264 C 
BRANCH  19  20
ATOM     20  C   UNL     1      -4.497  -5.073   6.540  0.00  0.00    -0.010 A 
ATOM     21  C   UNL     1      -4.009  -6.261   7.053  0.00  0.00    +0.008 A 
ATOM     22  C   UNL     1      -4.284  -6.614   8.361  0.00  0.00    +0.020 A 
ATOM     23  C   UNL     1      -5.048  -5.779   9.156  0.00  0.00    +0.041 A 
ATOM     24  C   UNL     1      -5.536  -4.590   8.643  0.00  0.00    +0.020 A 
ATOM     25  C   UNL     1      -5.255  -4.236   7.336  0.00  0.00    +0.008 A 
ATOM     26 CL   UNL     1      -5.394  -6.222  10.799  0.00  0.00    -0.084 Cl
ENDBRANCH  19  20
ENDBRANCH  18  19
ENDBRANCH  15  18
ENDBRANCH   4  12
BRANCH   3  27
ATOM     27  C   UNL     1      -2.364   0.077   0.003  0.00  0.00    +0.339 C 
ATOM     28  O   UNL     1      -2.324   1.294   0.000  0.00  0.00    -0.245 OA
BRANCH  27  29
ATOM     29  O   UNL     1      -3.554  -0.559   0.005  0.00  0.00    -0.458 OA
BRANCH  29  30
ATOM     30  C   UNL     1      -4.726   0.258   0.004  0.00  0.00    +0.177 C 
ATOM     31  C   UNL     1      -5.144   0.552   1.446  0.00  0.00    +0.044 C 
ATOM     32  C   UNL     1      -6.400   1.427   1.445  0.00  0.00    +0.004 C 
ATOM     33  C   UNL     1      -7.532   0.692   0.726  0.00  0.00    +0.000 C 
ATOM     34  C   UNL     1      -7.115   0.397  -0.717  0.00  0.00    +0.004 C 
ATOM     35  C   UNL     1      -5.859  -0.477  -0.715  0.00  0.00    +0.044 C 
ENDBRANCH  29  30
ENDBRANCH  27  29
ENDBRANCH   3  27
TORSDOF 7
