REMARK  Name = ZINC13495878
REMARK  13 active torsions:
REMARK  status: ('A' for Active; 'I' for Inactive)
REMARK    1  A    between atoms: C_1  and  C_2
REMARK    2  A    between atoms: C_2  and  C_3
REMARK    3  A    between atoms: C_3  and  C_5
REMARK    4  A    between atoms: C_3  and  N_72
REMARK    5  A    between atoms: N_9  and  C_10
REMARK    6  A    between atoms: C_10  and  C_11
REMARK    7  A    between atoms: C_18  and  C_19
REMARK    8  A    between atoms: C_18  and  N_72
REMARK    9  A    between atoms: C_19  and  C_20
REMARK   10  A    between atoms: C_25  and  C_26
REMARK   11  A    between atoms: C_27  and  C_28
REMARK   12  A    between atoms: C_27  and  N_72
REMARK   13  A    between atoms: C_34  and  C_40
REMARK                            x       y       z     vdW  Elec       q    Type
REMARK                         _______ _______ _______ _____ _____    ______ ____
ROOT
ATOM      1  N   UNL     1      -3.372  -1.861  -1.383  0.00  0.00    +0.389 N 
ATOM      2  H   UNL     1      -3.754  -1.354  -0.576  0.00  0.00    -0.080 HD
ENDROOT
BRANCH   1   3
ATOM      3  C   UNL     1      -2.975  -3.218  -0.954  0.00  0.00    +0.003 C 
BRANCH   3   4
ATOM      4  C   UNL     1      -1.838  -3.726  -1.803  0.00  0.00    +0.138 A 
ATOM      5  N   UNL     1      -0.683  -3.138  -1.997  0.00  0.00    -0.115 NA
ATOM      6  N   UNL     1       0.016  -3.884  -2.781  0.00  0.00    -0.023 NA
ATOM      7  N   UNL     1      -0.662  -4.933  -3.091  0.00  0.00    -0.044 NA
ATOM      8  N   UNL     1      -1.809  -4.875  -2.503  0.00  0.00    -0.226 N 
BRANCH   8   9
ATOM      9  C   UNL     1      -2.881  -5.871  -2.586  0.00  0.00    +0.182 C 
BRANCH   9  10
ATOM     10  C   UNL     1      -3.788  -5.539  -3.742  0.00  0.00    -0.026 A 
ATOM     11  C   UNL     1      -4.885  -4.721  -3.546  0.00  0.00    +0.008 A 
ATOM     12  C   UNL     1      -5.715  -4.412  -4.606  0.00  0.00    +0.038 A 
ATOM     13  C   UNL     1      -5.454  -4.929  -5.864  0.00  0.00    +0.123 A 
ATOM     14  C   UNL     1      -4.357  -5.752  -6.058  0.00  0.00    +0.038 A 
ATOM     15  C   UNL     1      -3.526  -6.056  -4.997  0.00  0.00    +0.008 A 
ATOM     16  F   UNL     1      -6.267  -4.631  -6.900  0.00  0.00    -0.205 F 
ENDBRANCH   9  10
ENDBRANCH   8   9
ENDBRANCH   3   4
BRANCH   3  18
ATOM     17  C   UNL     1      -3.715  -2.737   1.383  0.00  0.00    +0.002 C 
ATOM     18  C   UNL     1      -2.531  -3.156   0.509  0.00  0.00    -0.011 C 
ENDBRANCH   3  18
ENDBRANCH   1   3
BRANCH   1  19
ATOM     19  C   UNL     1      -2.194  -1.129  -1.896  0.00  0.00    -0.073 C 
BRANCH  19  20
ATOM     20  C   UNL     1      -1.210  -0.907  -0.745  0.00  0.00    +0.017 C 
BRANCH  20  21
ATOM     21  C   UNL     1      -0.095  -0.004  -1.204  0.00  0.00    -0.046 A 
ATOM     22  C   UNL     1       1.087  -0.549  -1.673  0.00  0.00    +0.004 A 
ATOM     23  C   UNL     1       2.110   0.279  -2.094  0.00  0.00    +0.000 A 
ATOM     24  C   UNL     1       1.952   1.652  -2.048  0.00  0.00    +0.000 A 
ATOM     25  C   UNL     1       0.771   2.196  -1.580  0.00  0.00    +0.003 A 
ATOM     26  C   UNL     1      -0.253   1.368  -1.158  0.00  0.00    -0.047 A 
ATOM     27  C   UNL     1      -1.543   1.961  -0.654  0.00  0.00    +0.044 C 
ENDBRANCH  20  21
ENDBRANCH  19  20
ENDBRANCH   1  19
BRANCH   1  28
ATOM     28  C   UNL     1      -4.409  -1.945  -2.432  0.00  0.00    -0.037 C 
BRANCH  28  29
ATOM     29  C   UNL     1      -5.015  -0.579  -2.626  0.00  0.00    +0.001 A 
ATOM     30  C   UNL     1      -4.551   0.232  -3.609  0.00  0.00    +0.017 A 
ATOM     31  C   UNL     1      -5.164   1.552  -3.774  0.00  0.00    -0.001 A 
ATOM     32  C   UNL     1      -4.732   2.430  -4.772  0.00  0.00    +0.010 A 
ATOM     33  C   UNL     1      -5.322   3.656  -4.897  0.00  0.00    +0.001 A 
ATOM     34  C   UNL     1      -6.346   4.038  -4.042  0.00  0.00    +0.005 A 
ATOM     35  C   UNL     1      -6.787   3.189  -3.050  0.00  0.00    -0.026 A 
ATOM     36  C   UNL     1      -6.202   1.935  -2.904  0.00  0.00    +0.052 A 
ATOM     37  N   UNL     1      -6.625   1.065  -1.922  0.00  0.00    -0.322 N 
ATOM     38  H   UNL     1      -7.340   1.331  -1.323  0.00  0.00    +0.169 HD
ATOM     39  C   UNL     1      -6.059  -0.146  -1.781  0.00  0.00    +0.251 A 
ATOM     40  O   UNL     1      -6.458  -0.890  -0.901  0.00  0.00    -0.268 OA
ATOM     41  C   UNL     1      -7.900   3.616  -2.128  0.00  0.00    +0.046 C 
ENDBRANCH  28  29
ENDBRANCH   1  28
TORSDOF 10
