REMARK  Name = ZINC65583848
REMARK  9 active torsions:
REMARK  status: ('A' for Active; 'I' for Inactive)
REMARK    1  A    between atoms: C_1  and  C_2
REMARK    2  A    between atoms: C_2  and  C_3
REMARK    3  A    between atoms: C_2  and  N_19
REMARK    4  A    between atoms: C_3  and  N_4
REMARK    5  A    between atoms: C_5  and  C_7
REMARK    6  A    between atoms: C_7  and  O_8
REMARK    7  A    between atoms: O_8  and  C_9
REMARK    8  A    between atoms: C_12  and  C_15
REMARK    9  A    between atoms: C_15  and  C_16
REMARK                            x       y       z     vdW  Elec       q    Type
REMARK                         _______ _______ _______ _____ _____    ______ ____
ROOT
ATOM      1  N   UNL     1      -1.705  -1.754  -0.089  0.00  0.00    -0.314 N 
ATOM      2  C   UNL     1      -2.948  -2.267   0.011  0.00  0.00    +0.251 C 
ATOM      3  O   UNL     1      -3.894  -1.531   0.197  0.00  0.00    -0.272 OA
ATOM      4  H   UNL     1      -0.948  -2.342  -0.237  0.00  0.00    +0.149 HD
ENDROOT
BRANCH   1   5
ATOM      5  C   UNL     1      -1.498  -0.308   0.026  0.00  0.00    +0.089 C 
BRANCH   5   7
ATOM      6  C   UNL     1       0.214   1.511  -0.001  0.00  0.00    -0.012 C 
ATOM      7  C   UNL     1       0.001  -0.004  -0.008  0.00  0.00    -0.054 C 
BRANCH   7   8
ATOM      8  N   UNL     1       0.590  -0.576  -1.226  0.00  0.00    +0.385 N 
ATOM      9  C   UNL     1       2.026  -0.263  -1.273  0.00  0.00    -0.073 C 
ATOM     10  C   UNL     1       2.675  -1.112  -2.367  0.00  0.00    +0.017 C 
ATOM     11  C   UNL     1       1.901  -0.967  -3.652  0.00  0.00    -0.048 A 
ATOM     12  C   UNL     1       2.499  -1.365  -4.837  0.00  0.00    +0.004 A 
ATOM     13  C   UNL     1       1.819  -1.249  -6.033  0.00  0.00    +0.000 A 
ATOM     14  C   UNL     1       0.536  -0.735  -6.048  0.00  0.00    +0.000 A 
ATOM     15  C   UNL     1      -0.060  -0.337  -4.869  0.00  0.00    +0.002 A 
ATOM     16  C   UNL     1       0.622  -0.451  -3.666  0.00  0.00    -0.061 A 
ATOM     17  C   UNL     1      -0.063   0.003  -2.404  0.00  0.00    -0.042 C 
ATOM     18  H   UNL     1       0.460  -1.576  -1.226  0.00  0.00    -0.081 HD
ENDBRANCH   7   8
ENDBRANCH   5   7
ENDBRANCH   1   5
BRANCH   2  19
ATOM     19  C   UNL     1      -3.161  -3.754  -0.107  0.00  0.00    +0.324 C 
BRANCH  19  20
ATOM     20  O   UNL     1      -4.553  -4.048   0.033  0.00  0.00    -0.483 OA
BRANCH  20  21
ATOM     21  C   UNL     1      -4.918  -5.354  -0.050  0.00  0.00    +0.121 A 
ATOM     22  C   UNL     1      -3.957  -6.333  -0.255  0.00  0.00    +0.046 A 
ATOM     23  C   UNL     1      -4.331  -7.660  -0.337  0.00  0.00    +0.007 A 
ATOM     24  C   UNL     1      -5.663  -8.013  -0.217  0.00  0.00    -0.038 A 
ATOM     25  C   UNL     1      -6.623  -7.039  -0.013  0.00  0.00    +0.007 A 
ATOM     26  C   UNL     1      -6.253  -5.711   0.077  0.00  0.00    +0.046 A 
BRANCH  24  27
ATOM     27  C   UNL     1      -6.069  -9.462  -0.308  0.00  0.00    +0.130 C 
BRANCH  27  28
ATOM     28  C   UNL     1      -6.041 -10.079   1.067  0.00  0.00    +0.215 C 
ATOM     29  O   UNL     1      -5.723  -9.408   2.026  0.00  0.00    -0.276 OA
ATOM     30  N   UNL     1      -6.369 -11.376   1.230  0.00  0.00    -0.329 N 
ATOM     31  H   UNL     1      -6.623 -11.912   0.463  0.00  0.00    +0.145 HD
ATOM     32  H   UNL     1      -6.352 -11.773   2.115  0.00  0.00    +0.145 HD
ENDBRANCH  27  28
ENDBRANCH  24  27
ENDBRANCH  20  21
ENDBRANCH  19  20
ENDBRANCH   2  19
TORSDOF 8
