REMARK  Name = ZINC09535490
REMARK  6 active torsions:
REMARK  status: ('A' for Active; 'I' for Inactive)
REMARK    1  A    between atoms: C_4  and  C_7
REMARK    2  A    between atoms: C_7  and  N_8
REMARK    3  A    between atoms: C_16  and  C_19
REMARK    4  A    between atoms: C_19  and  C_20
REMARK    5  A    between atoms: C_20  and  C_21
REMARK    6  A    between atoms: N_23  and  C_24
REMARK                            x       y       z     vdW  Elec       q    Type
REMARK                         _______ _______ _______ _____ _____    ______ ____
ROOT
ATOM      1  N   UNL     1      10.278  -2.991   2.811  0.00  0.00    -0.301 N 
ATOM      2  C   UNL     1       9.898  -3.090   4.134  0.00  0.00    +0.071 A 
ATOM      3  C   UNL     1      10.803  -3.533   5.094  0.00  0.00    +0.029 A 
ATOM      4  C   UNL     1      10.414  -3.629   6.412  0.00  0.00    +0.022 A 
ATOM      5  C   UNL     1       9.122  -3.285   6.792  0.00  0.00    +0.043 A 
ATOM      6  C   UNL     1       8.217  -2.848   5.868  0.00  0.00    +0.049 A 
ATOM      7  C   UNL     1       8.590  -2.742   4.519  0.00  0.00    +0.089 A 
ATOM      8  N   UNL     1       7.699  -2.311   3.605  0.00  0.00    -0.245 NA
ATOM      9  C   UNL     1       8.024  -2.206   2.348  0.00  0.00    +0.107 A 
ATOM     10  C   UNL     1       9.375  -2.562   1.902  0.00  0.00    +0.273 A 
ATOM     11  O   UNL     1       9.680  -2.469   0.726  0.00  0.00    -0.266 OA
ATOM     12 CL   UNL     1       8.653  -3.414   8.459  0.00  0.00    -0.083 Cl
ENDROOT
BRANCH   1  13
ATOM     13  C   UNL     1      11.636  -3.350   2.397  0.00  0.00    +0.160 C 
BRANCH  13  17
ATOM     14  C   UNL     1      11.763  -7.495   1.369  0.00  0.00    +0.000 A 
ATOM     15  C   UNL     1      11.470  -6.551   0.402  0.00  0.00    +0.000 A 
ATOM     16  C   UNL     1      11.429  -5.210   0.735  0.00  0.00    +0.005 A 
ATOM     17  C   UNL     1      11.681  -4.812   2.035  0.00  0.00    -0.028 A 
ATOM     18  C   UNL     1      11.980  -5.755   3.001  0.00  0.00    +0.005 A 
ATOM     19  C   UNL     1      12.015  -7.097   2.669  0.00  0.00    +0.000 A 
ENDBRANCH  13  17
ENDBRANCH   1  13
BRANCH   9  20
ATOM     20  C   UNL     1       7.006  -1.721   1.348  0.00  0.00    +0.070 C 
BRANCH  20  21
ATOM     21  C   UNL     1       5.687  -1.426   2.065  0.00  0.00    +0.102 C 
BRANCH  21  22
ATOM     22  C   UNL     1       4.669  -0.942   1.064  0.00  0.00    +0.214 C 
ATOM     23  O   UNL     1       4.969  -0.843  -0.106  0.00  0.00    -0.276 OA
ATOM     24  N   UNL     1       3.425  -0.619   1.471  0.00  0.00    -0.308 N 
ATOM     25  H   UNL     1       3.185  -0.698   2.408  0.00  0.00    +0.149 HD
BRANCH  24  26
ATOM     26  C   UNL     1       2.436  -0.148   0.499  0.00  0.00    +0.105 C 
ATOM     27  C   UNL     1       1.047  -0.447   1.036  0.00  0.00    +0.038 C 
ATOM     28  C   UNL     1       0.002  -0.004   0.002  0.00  0.00    +0.076 C 
ATOM     29  S   UNL     1      -0.023   1.813   0.012  0.00  0.00    -0.125 S 
ATOM     30  C   UNL     1       1.690   2.243  -0.002  0.00  0.00    +0.013 A 
ATOM     31  C   UNL     1       2.681   1.307   0.232  0.00  0.00    -0.014 A 
ATOM     32  C   UNL     1       4.010   1.723   0.221  0.00  0.00    +0.006 A 
ATOM     33  C   UNL     1       4.341   3.038  -0.028  0.00  0.00    +0.000 A 
ATOM     34  C   UNL     1       3.348   3.968  -0.272  0.00  0.00    +0.001 A 
ATOM     35  C   UNL     1       2.028   3.571  -0.258  0.00  0.00    +0.015 A 
ENDBRANCH  24  26
ENDBRANCH  21  22
ENDBRANCH  20  21
ENDBRANCH   9  20
TORSDOF 6
