REMARK  Name = ZINC40930987
REMARK  6 active torsions:
REMARK  status: ('A' for Active; 'I' for Inactive)
REMARK    1  A    between atoms: C_1  and  C_2
REMARK    2  A    between atoms: C_8  and  N_10
REMARK    3  A    between atoms: C_11  and  C_13
REMARK    4  A    between atoms: N_16  and  C_19
REMARK    5  A    between atoms: C_19  and  C_20
REMARK    6  A    between atoms: C_22  and  C_25
REMARK                            x       y       z     vdW  Elec       q    Type
REMARK                         _______ _______ _______ _____ _____    ______ ____
ROOT
ATOM      1  C   UNL     1       4.209   0.649   2.377  0.00  0.00    +0.071 C 
ATOM      2  C   UNL     1       5.093  -0.283   1.544  0.00  0.00    -0.006 C 
ATOM      3  C   UNL     1       6.541   0.207   1.603  0.00  0.00    -0.077 C 
ATOM      4  N   UNL     1       7.005   0.209   2.996  0.00  0.00    +0.386 N 
ATOM      5  C   UNL     1       6.207   1.155   3.785  0.00  0.00    -0.077 C 
ATOM      6  C   UNL     1       4.747   0.701   3.811  0.00  0.00    -0.006 C 
ATOM      7  H   UNL     1       6.906  -0.718   3.383  0.00  0.00    -0.081 HD
ENDROOT
BRANCH   1   9
ATOM      8  N   UNL     1       2.116  -0.004   1.231  0.00  0.00    -0.312 N 
ATOM      9  C   UNL     1       2.795   0.128   2.388  0.00  0.00    +0.216 C 
ATOM     10  O   UNL     1       2.268  -0.174   3.438  0.00  0.00    -0.276 OA
ATOM     11  H   UNL     1       2.538   0.237   0.392  0.00  0.00    +0.149 HD
BRANCH   8  18
ATOM     12  C   UNL     1      -0.019   1.526   0.010  0.00  0.00    +0.009 C 
ATOM     13  C   UNL     1       0.002  -0.004   0.002  0.00  0.00    +0.006 C 
ATOM     14  C   UNL     1      -1.433  -0.534   0.013  0.00  0.00    +0.005 C 
ATOM     15  C   UNL     1      -1.413  -2.063   0.004  0.00  0.00    +0.000 C 
ATOM     16  C   UNL     1      -0.673  -2.570   1.244  0.00  0.00    +0.002 C 
ATOM     17  C   UNL     1       0.763  -2.041   1.233  0.00  0.00    +0.022 C 
ATOM     18  C   UNL     1       0.742  -0.511   1.242  0.00  0.00    +0.076 C 
ENDBRANCH   8  18
ENDBRANCH   1   9
BRANCH   4  19
ATOM     19  C   UNL     1       8.418   0.606   3.039  0.00  0.00    +0.022 C 
BRANCH  19  20
ATOM     20  C   UNL     1       8.930   0.490   4.452  0.00  0.00    +0.211 A 
ATOM     21  N   UNL     1       9.479  -0.567   4.978  0.00  0.00    -0.193 NA
ATOM     22  C   UNL     1       9.818  -0.323   6.256  0.00  0.00    +0.202 A 
ATOM     23  N   UNL     1       9.480   0.909   6.551  0.00  0.00    -0.056 NA
ATOM     24  O   UNL     1       8.901   1.458   5.377  0.00  0.00    -0.340 OA
BRANCH  22  25
ATOM     25  C   UNL     1      10.467  -1.286   7.179  0.00  0.00    +0.023 A 
ATOM     26  C   UNL     1      10.782  -2.571   6.740  0.00  0.00    +0.014 A 
ATOM     27  C   UNL     1      11.386  -3.463   7.601  0.00  0.00    +0.039 A 
ATOM     28  C   UNL     1      11.678  -3.084   8.902  0.00  0.00    +0.123 A 
ATOM     29  C   UNL     1      11.366  -1.808   9.343  0.00  0.00    +0.039 A 
ATOM     30  C   UNL     1      10.768  -0.908   8.486  0.00  0.00    +0.014 A 
ATOM     31  F   UNL     1      12.270  -3.962   9.742  0.00  0.00    -0.205 F 
ENDBRANCH  22  25
ENDBRANCH  19  20
ENDBRANCH   4  19
TORSDOF 5
