REMARK  Name = ZINC39920353
REMARK  6 active torsions:
REMARK  status: ('A' for Active; 'I' for Inactive)
REMARK    1  A    between atoms: C_1  and  C_2
REMARK    2  A    between atoms: N_13  and  N_14
REMARK    3  A    between atoms: C_15  and  C_17
REMARK    4  A    between atoms: C_17  and  C_19
REMARK    5  A    between atoms: C_17  and  O_20
REMARK    6  A    between atoms: O_20  and  C_21
REMARK                            x       y       z     vdW  Elec       q    Type
REMARK                         _______ _______ _______ _____ _____    ______ ____
ROOT
ATOM      1  C   UNL     1      -0.591   1.521  -0.103  0.00  0.00    +0.051 C 
ATOM      2  C   UNL     1      -0.627  -0.009  -0.118  0.00  0.00    +0.177 C 
ATOM      3  N   UNL     1      -0.187  -0.492  -1.433  0.00  0.00    -0.324 N 
ATOM      4  C   UNL     1       1.170  -0.460  -1.733  0.00  0.00    +0.041 A 
ATOM      5  C   UNL     1       1.631  -0.301  -3.028  0.00  0.00    +0.025 A 
ATOM      6  C   UNL     1       2.991  -0.273  -3.271  0.00  0.00    +0.017 A 
ATOM      7  C   UNL     1       3.897  -0.401  -2.229  0.00  0.00    +0.019 A 
ATOM      8  C   UNL     1       3.453  -0.561  -0.931  0.00  0.00    +0.030 A 
ATOM      9  C   UNL     1       2.085  -0.594  -0.673  0.00  0.00    +0.060 A 
ATOM     10  C   UNL     1       1.557  -0.771   0.692  0.00  0.00    +0.266 C 
ATOM     11  O   UNL     1       2.289  -1.135   1.592  0.00  0.00    -0.268 OA
ATOM     12  N   UNL     1       0.255  -0.524   0.928  0.00  0.00    -0.196 N 
ATOM     13 BR   UNL     1       5.753  -0.356  -2.587  0.00  0.00    -0.050 Br
ATOM     14  H   UNL     1      -0.830  -0.826  -2.079  0.00  0.00    +0.148 HD
ENDROOT
BRANCH  12  15
ATOM     15  N   UNL     1      -0.264  -0.766   2.207  0.00  0.00    -0.227 N 
ATOM     16  C   UNL     1      -0.497  -2.031   2.611  0.00  0.00    +0.270 C 
ATOM     17  O   UNL     1      -0.258  -2.959   1.868  0.00  0.00    -0.270 OA
ATOM     18  H   UNL     1      -0.455  -0.024   2.802  0.00  0.00    +0.173 HD
BRANCH  16  19
ATOM     19  C   UNL     1      -1.056  -2.291   3.987  0.00  0.00    +0.257 C 
ATOM     20  C   UNL     1      -2.467  -1.709   4.083  0.00  0.00    +0.062 C 
BRANCH  19  21
ATOM     21  O   UNL     1      -1.105  -3.700   4.222  0.00  0.00    -0.480 OA
BRANCH  21  22
ATOM     22  C   UNL     1      -1.074  -4.111   5.517  0.00  0.00    +0.122 A 
ATOM     23  C   UNL     1      -1.000  -5.464   5.815  0.00  0.00    +0.045 A 
ATOM     24  C   UNL     1      -0.969  -5.878   7.133  0.00  0.00    +0.004 A 
ATOM     25  C   UNL     1      -1.012  -4.947   8.153  0.00  0.00    +0.000 A 
ATOM     26  C   UNL     1      -1.086  -3.598   7.859  0.00  0.00    +0.004 A 
ATOM     27  C   UNL     1      -1.111  -3.178   6.543  0.00  0.00    +0.045 A 
ENDBRANCH  21  22
ENDBRANCH  19  21
ENDBRANCH  16  19
ENDBRANCH  12  15
TORSDOF 4
