REMARK  Name = ZINC35745587
REMARK  15 active torsions:
REMARK  status: ('A' for Active; 'I' for Inactive)
REMARK    1  A    between atoms: C_1  and  C_2
REMARK    2  A    between atoms: C_5  and  C_9
REMARK    3  A    between atoms: C_7  and  C_8
REMARK    4  A    between atoms: C_18  and  C_20
REMARK    5  A    between atoms: C_20  and  N_21
REMARK    6  A    between atoms: N_21  and  C_22
REMARK    7  A    between atoms: N_21  and  C_27
REMARK    8  A    between atoms: C_22  and  C_23
REMARK    9  A    between atoms: C_23  and  C_24
REMARK   10  A    between atoms: C_24  and  O_25
REMARK   11  A    between atoms: O_25  and  C_26
REMARK   12  A    between atoms: C_27  and  C_28
REMARK   13  A    between atoms: C_28  and  C_30
REMARK   14  A    between atoms: C_28  and  O_37
REMARK   15  A    between atoms: C_30  and  C_31
REMARK                            x       y       z     vdW  Elec       q    Type
REMARK                         _______ _______ _______ _____ _____    ______ ____
ROOT
ATOM      1  C   UNL     1      -8.542  -7.003  -0.509  0.00  0.00    +0.004 A 
ATOM      2  C   UNL     1      -8.931  -8.079   0.217  0.00  0.00    +0.056 A 
ATOM      3  S   UNL     1      -7.551  -9.198   0.066  0.00  0.00    -0.076 S 
ATOM      4  C   UNL     1      -6.496  -8.206  -0.958  0.00  0.00    +0.116 A 
ATOM      5  C   UNL     1      -7.240  -7.032  -1.164  0.00  0.00    +0.080 A 
ATOM      6  C   UNL     1      -6.614  -6.036  -1.979  0.00  0.00    +0.260 A 
ATOM      7  O   UNL     1      -7.179  -4.981  -2.211  0.00  0.00    -0.267 OA
ATOM      8  N   UNL     1      -5.391  -6.282  -2.486  0.00  0.00    -0.312 N 
ATOM      9  H   UNL     1      -4.962  -5.611  -3.039  0.00  0.00    +0.170 HD
ATOM     10  C   UNL     1      -4.747  -7.451  -2.237  0.00  0.00    +0.094 A 
ATOM     11  N   UNL     1      -5.288  -8.374  -1.489  0.00  0.00    -0.229 NA
ENDROOT
BRANCH   1  16
ATOM     12  C   UNL     1     -11.979  -2.412  -1.019  0.00  0.00    +0.044 C 
ATOM     13  C   UNL     1     -11.080  -3.614  -0.885  0.00  0.00    -0.048 A 
ATOM     14  C   UNL     1      -9.756  -3.446  -0.519  0.00  0.00    +0.004 A 
ATOM     15  C   UNL     1      -8.928  -4.543  -0.395  0.00  0.00    +0.009 A 
ATOM     16  C   UNL     1      -9.427  -5.821  -0.640  0.00  0.00    -0.016 A 
ATOM     17  C   UNL     1     -10.762  -5.984  -1.008  0.00  0.00    +0.012 A 
ATOM     18  C   UNL     1     -11.582  -4.880  -1.124  0.00  0.00    -0.047 A 
ATOM     19  C   UNL     1     -13.027  -5.054  -1.516  0.00  0.00    +0.044 C 
ENDBRANCH   1  16
BRANCH  10  20
ATOM     20  C   UNL     1      -3.378  -7.682  -2.825  0.00  0.00    -0.003 C 
BRANCH  20  21
ATOM     21  N   UNL     1      -2.948  -9.057  -2.538  0.00  0.00    +0.386 N 
ATOM     22  H   UNL     1      -3.023  -9.233  -1.547  0.00  0.00    -0.081 HD
BRANCH  21  23
ATOM     23  C   UNL     1      -1.552  -9.231  -2.961  0.00  0.00    -0.076 C 
BRANCH  23  24
ATOM     24  C   UNL     1      -0.645  -8.342  -2.107  0.00  0.00    +0.009 C 
BRANCH  24  25
ATOM     25  C   UNL     1       0.818  -8.630  -2.447  0.00  0.00    +0.157 C 
BRANCH  25  26
ATOM     26  O   UNL     1       1.665  -7.800  -1.649  0.00  0.00    -0.383 OA
ATOM     27  C   UNL     1       3.060  -7.990  -1.890  0.00  0.00    +0.193 C 
ENDBRANCH  25  26
ENDBRANCH  24  25
ENDBRANCH  23  24
ENDBRANCH  21  23
BRANCH  21  28
ATOM     28  C   UNL     1      -3.803 -10.001  -3.270  0.00  0.00    -0.046 C 
BRANCH  28  29
ATOM     29  C   UNL     1      -3.436 -11.433  -2.876  0.00  0.00    +0.102 C 
BRANCH  29  30
ATOM     30  O   UNL     1      -3.741 -11.639  -1.495  0.00  0.00    -0.393 OA
ATOM     31  H   UNL     1      -4.674 -11.513  -1.275  0.00  0.00    +0.210 HD
ENDBRANCH  29  30
BRANCH  29  32
ATOM     32  C   UNL     1      -4.238 -12.418  -3.728  0.00  0.00    +0.064 C 
BRANCH  32  33
ATOM     33  C   UNL     1      -3.789 -13.824  -3.426  0.00  0.00    -0.045 A 
ATOM     34  C   UNL     1      -2.755 -14.390  -4.149  0.00  0.00    +0.004 A 
ATOM     35  C   UNL     1      -2.343 -15.680  -3.873  0.00  0.00    +0.000 A 
ATOM     36  C   UNL     1      -2.964 -16.405  -2.873  0.00  0.00    +0.000 A 
ATOM     37  C   UNL     1      -3.997 -15.839  -2.149  0.00  0.00    +0.000 A 
ATOM     38  C   UNL     1      -4.406 -14.547  -2.423  0.00  0.00    +0.004 A 
ENDBRANCH  32  33
ENDBRANCH  29  32
ENDBRANCH  28  29
ENDBRANCH  21  28
ENDBRANCH  20  21
ENDBRANCH  10  20
TORSDOF 12
