REMARK  Name = ZINC37288547
REMARK  4 active torsions:
REMARK  status: ('A' for Active; 'I' for Inactive)
REMARK    1  A    between atoms: C_5  and  O_8
REMARK    2  A    between atoms: C_6  and  N_7
REMARK    3  A    between atoms: O_8  and  C_9
REMARK    4  A    between atoms: C_9  and  C_10
REMARK                            x       y       z     vdW  Elec       q    Type
REMARK                         _______ _______ _______ _____ _____    ______ ____
ROOT
ATOM      1  C   UNL     1      -0.017   1.383   0.010  0.00  0.00    +0.046 A 
ATOM      2  C   UNL     1       1.172   2.091   0.002  0.00  0.00    +0.044 A 
ATOM      3  C   UNL     1       2.381   1.418  -0.013  0.00  0.00    +0.039 A 
ATOM      4  C   UNL     1       2.406   0.034  -0.022  0.00  0.00    +0.063 A 
ATOM      5  C   UNL     1       1.220  -0.681  -0.014  0.00  0.00    +0.156 A 
ATOM      6  C   UNL     1       0.002  -0.004   0.002  0.00  0.00    +0.069 A 
ATOM      7 BR   UNL     1       4.061  -0.881  -0.044  0.00  0.00    -0.046 Br
ATOM      8 CL   UNL     1       1.147   3.826   0.012  0.00  0.00    -0.083 Cl
ENDROOT
BRANCH   6   9
ATOM      9  N   UNL     1      -1.199  -0.722   0.010  0.00  0.00    -0.355 N 
ATOM     10  H   UNL     1      -2.046  -0.250   0.020  0.00  0.00    +0.142 HD
ATOM     11  H   UNL     1      -1.185  -1.692   0.004  0.00  0.00    +0.142 HD
ENDBRANCH   6   9
BRANCH   5  12
ATOM     12  O   UNL     1       1.244  -2.041  -0.022  0.00  0.00    -0.480 OA
BRANCH  12  13
ATOM     13  C   UNL     1       1.268  -2.697   1.247  0.00  0.00    +0.325 C 
BRANCH  13  14
ATOM     14  C   UNL     1       1.292  -4.190   1.040  0.00  0.00    +0.258 C 
ATOM     15  O   UNL     1       1.289  -4.646  -0.083  0.00  0.00    -0.272 OA
ATOM     16  N   UNL     1       1.317  -5.017   2.104  0.00  0.00    -0.238 N 
ATOM     17  C   UNL     1       1.339  -6.352   1.919  0.00  0.00    +0.303 C 
ATOM     18  O   UNL     1       1.336  -6.810   0.793  0.00  0.00    -0.253 OA
ATOM     19  N   UNL     1       1.364  -7.179   2.983  0.00  0.00    -0.313 N 
ATOM     20  H   UNL     1       1.320  -4.652   3.002  0.00  0.00    +0.159 HD
ATOM     21  H   UNL     1       1.367  -6.814   3.881  0.00  0.00    +0.146 HD
ATOM     22  H   UNL     1       1.380  -8.140   2.850  0.00  0.00    +0.146 HD
ENDBRANCH  13  14
ENDBRANCH  12  13
ENDBRANCH   5  12
TORSDOF 4
