REMARK  Name = ZINC15675950
REMARK  4 active torsions:
REMARK  status: ('A' for Active; 'I' for Inactive)
REMARK    1  A    between atoms: C_6  and  C_11
REMARK    2  A    between atoms: C_13  and  C_16
REMARK    3  A    between atoms: N_29  and  C_30
REMARK    4  A    between atoms: C_34  and  C_36
REMARK                            x       y       z     vdW  Elec       q    Type
REMARK                         _______ _______ _______ _____ _____    ______ ____
ROOT
ATOM      1  C   UNL     1       7.746  -6.466   0.428  0.00  0.00    +0.172 C 
ATOM      2  C   UNL     1       8.776  -6.533   1.563  0.00  0.00    +0.087 C 
ATOM      3  C   UNL     1       9.712  -5.360   1.439  0.00  0.00    +0.040 A 
ATOM      4  C   UNL     1       9.872  -4.615   0.324  0.00  0.00    +0.054 A 
ATOM      5  N   UNL     1      10.781  -3.672   0.581  0.00  0.00    -0.348 N 
ATOM      6  C   UNL     1      11.191  -3.799   1.816  0.00  0.00    +0.171 A 
ATOM      7  N   UNL     1      10.545  -4.843   2.385  0.00  0.00    -0.349 N 
ATOM      8  H   UNL     1      10.653  -5.162   3.294  0.00  0.00    +0.166 HD
ATOM      9  C   UNL     1       9.116  -4.856  -0.961  0.00  0.00    +0.165 C 
ATOM     10  N   UNL     1       8.437  -6.160  -0.834  0.00  0.00    -0.267 N 
ATOM     11  C   UNL     1       8.453  -7.050  -1.846  0.00  0.00    +0.307 C 
ATOM     12  O   UNL     1       7.973  -8.157  -1.690  0.00  0.00    -0.252 OA
ATOM     13  N   UNL     1       8.999  -6.714  -3.031  0.00  0.00    -0.269 N 
ATOM     14  H   UNL     1       9.450  -5.861  -3.132  0.00  0.00    +0.156 HD
ATOM     15  H   UNL     1      11.088  -3.000  -0.048  0.00  0.00    +0.166 HD
ENDROOT
BRANCH  13  16
ATOM     16  C   UNL     1       8.917  -7.595  -4.115  0.00  0.00    +0.036 A 
ATOM     17  C   UNL     1       7.799  -8.407  -4.267  0.00  0.00    +0.023 A 
ATOM     18  C   UNL     1       7.713  -9.280  -5.335  0.00  0.00    +0.003 A 
ATOM     19  C   UNL     1       8.736  -9.351  -6.259  0.00  0.00    +0.019 A 
ATOM     20  C   UNL     1       9.863  -8.539  -6.116  0.00  0.00    +0.054 A 
ATOM     21  C   UNL     1       9.947  -7.654  -5.040  0.00  0.00    +0.042 A 
BRANCH  20  22
ATOM     22  C   UNL     1      10.926  -8.610  -7.072  0.00  0.00    +0.099 C 
ATOM     23  N   UNL     1      11.770  -8.666  -7.831  0.00  0.00    -0.191 NA
ENDBRANCH  20  22
ENDBRANCH  13  16
BRANCH   1  26
ATOM     24  C   UNL     1       4.895  -4.394   1.296  0.00  0.00    +0.202 A 
ATOM     25  N   UNL     1       5.514  -5.576   1.127  0.00  0.00    -0.190 NA
ATOM     26  C   UNL     1       6.738  -5.386   0.725  0.00  0.00    +0.249 A 
ATOM     27  O   UNL     1       6.950  -4.067   0.619  0.00  0.00    -0.336 OA
ATOM     28  N   UNL     1       5.734  -3.435   0.991  0.00  0.00    -0.056 NA
BRANCH  24  34
ATOM     29  C   UNL     1      -0.974  -2.467   3.141  0.00  0.00    +0.001 A 
ATOM     30  C   UNL     1      -0.197  -1.347   2.852  0.00  0.00    +0.001 A 
ATOM     31  C   UNL     1       1.093  -1.478   2.436  0.00  0.00    +0.008 A 
ATOM     32  C   UNL     1       1.652  -2.760   2.296  0.00  0.00    -0.017 A 
ATOM     33  C   UNL     1       2.979  -2.931   1.871  0.00  0.00    +0.020 A 
ATOM     34  C   UNL     1       3.494  -4.207   1.745  0.00  0.00    +0.023 A 
ATOM     35  C   UNL     1       2.701  -5.329   2.039  0.00  0.00    +0.012 A 
ATOM     36  C   UNL     1       1.416  -5.185   2.452  0.00  0.00    +0.009 A 
ATOM     37  C   UNL     1       0.862  -3.900   2.590  0.00  0.00    -0.018 A 
ATOM     38  C   UNL     1      -0.466  -3.724   3.016  0.00  0.00    +0.008 A 
ENDBRANCH  24  34
ENDBRANCH   1  26
TORSDOF 4
