REMARK  Name = ZINC49964205
REMARK  5 active torsions:
REMARK  status: ('A' for Active; 'I' for Inactive)
REMARK    1  A    between atoms: C_1  and  C_2
REMARK    2  A    between atoms: C_6  and  N_22
REMARK    3  A    between atoms: C_8  and  C_11
REMARK    4  A    between atoms: C_11  and  C_12
REMARK    5  A    between atoms: C_15  and  N_19
REMARK                            x       y       z     vdW  Elec       q    Type
REMARK                         _______ _______ _______ _____ _____    ______ ____
ROOT
ATOM      1  C   UNL     1      -0.019   1.526   0.010  0.00  0.00    +0.007 C 
ATOM      2  C   UNL     1       0.002  -0.004   0.002  0.00  0.00    -0.014 C 
ATOM      3  C   UNL     1      -1.433  -0.534   0.013  0.00  0.00    +0.002 C 
ATOM      4  C   UNL     1      -1.413  -2.063   0.004  0.00  0.00    -0.016 C 
ATOM      5  C   UNL     1      -0.673  -2.570   1.244  0.00  0.00    -0.072 C 
ATOM      6  C   UNL     1       0.763  -2.041   1.233  0.00  0.00    -0.021 C 
ATOM      7  C   UNL     1       0.742  -0.511   1.242  0.00  0.00    +0.005 C 
ENDROOT
BRANCH   5   8
ATOM      8  N   UNL     1      -0.653  -4.039   1.236  0.00  0.00    +0.380 N 
ATOM      9  H   UNL     1      -0.180  -4.365   0.406  0.00  0.00    -0.090 HD
ATOM     10  H   UNL     1      -0.165  -4.373   2.053  0.00  0.00    -0.090 HD
ATOM     11  H   UNL     1      -1.599  -4.388   1.243  0.00  0.00    -0.090 HD
ENDBRANCH   5   8
BRANCH   6  12
ATOM     12  C   UNL     1       1.503  -2.548   2.473  0.00  0.00    +0.038 C 
BRANCH  12  13
ATOM     13  C   UNL     1       2.949  -2.129   2.401  0.00  0.00    -0.029 A 
ATOM     14  C   UNL     1       3.894  -2.994   1.882  0.00  0.00    +0.007 A 
ATOM     15  C   UNL     1       5.220  -2.610   1.816  0.00  0.00    +0.033 A 
ATOM     16  C   UNL     1       5.602  -1.361   2.270  0.00  0.00    +0.128 A 
ATOM     17  C   UNL     1       4.658  -0.495   2.788  0.00  0.00    +0.053 A 
ATOM     18  C   UNL     1       3.329  -0.877   2.849  0.00  0.00    +0.046 A 
ATOM     19 CL   UNL     1       2.142   0.213   3.493  0.00  0.00    -0.083 Cl
BRANCH  16  20
ATOM     20  N   UNL     1       7.023  -0.951   2.200  0.00  0.00    +0.056 N 
ATOM     21  O   UNL     1       7.849  -1.709   1.747  0.00  0.00    -0.126 OA
ATOM     22  O   UNL     1       7.357   0.141   2.596  0.00  0.00    -0.126 OA
ENDBRANCH  16  20
ENDBRANCH  12  13
ENDBRANCH   6  12
TORSDOF 4
