REMARK  Name = ZINC66595840
REMARK  5 active torsions:
REMARK  status: ('A' for Active; 'I' for Inactive)
REMARK    1  A    between atoms: C_1  and  C_2
REMARK    2  A    between atoms: C_2  and  C_7
REMARK    3  A    between atoms: C_7  and  N_8
REMARK    4  A    between atoms: N_11  and  N_12
REMARK    5  A    between atoms: C_13  and  C_15
REMARK                            x       y       z     vdW  Elec       q    Type
REMARK                         _______ _______ _______ _____ _____    ______ ____
ROOT
ATOM      1  N   UNL     1      -1.417   0.917  -4.597  0.00  0.00    -0.228 N 
ATOM      2  C   UNL     1      -2.085   1.369  -5.677  0.00  0.00    +0.279 C 
ATOM      3  O   UNL     1      -1.702   1.078  -6.794  0.00  0.00    -0.267 OA
ATOM      4  H   UNL     1      -1.722   1.149  -3.706  0.00  0.00    +0.173 HD
ENDROOT
BRANCH   2   5
ATOM      5  C   UNL     1      -3.276   2.216  -5.504  0.00  0.00    +0.136 A 
ATOM      6  C   UNL     1      -3.966   2.678  -6.597  0.00  0.00    +0.081 A 
ATOM      7  S   UNL     1      -5.264   3.615  -5.800  0.00  0.00    -0.060 S 
ATOM      8  C   UNL     1      -4.766   3.303  -4.112  0.00  0.00    +0.162 A 
ATOM      9  N   UNL     1      -3.704   2.542  -4.282  0.00  0.00    -0.220 NA
ATOM     10  N   UNL     1      -5.346   3.743  -2.934  0.00  0.00    -0.305 N 
ATOM     11  C   UNL     1      -4.777   3.380  -1.627  0.00  0.00    +0.135 C 
ATOM     12  C   UNL     1      -4.611   4.659  -0.799  0.00  0.00    +0.179 C 
ATOM     13  O   UNL     1      -5.853   5.368  -0.776  0.00  0.00    -0.377 OA
ATOM     14  C   UNL     1      -6.300   5.808  -2.060  0.00  0.00    +0.179 C 
ATOM     15  C   UNL     1      -6.548   4.593  -2.953  0.00  0.00    +0.135 C 
ENDBRANCH   2   5
BRANCH   1  19
ATOM     16  N   UNL     1      -0.040  -0.019  -2.443  0.00  0.00    -0.298 N 
ATOM     17  C   UNL     1       0.384  -0.342  -3.681  0.00  0.00    +0.316 C 
ATOM     18  O   UNL     1       1.368  -1.042  -3.824  0.00  0.00    -0.251 OA
ATOM     19  N   UNL     1      -0.283   0.110  -4.761  0.00  0.00    -0.218 N 
ATOM     20  H   UNL     1      -0.825   0.539  -2.329  0.00  0.00    +0.150 HD
ATOM     21  H   UNL     1       0.021  -0.122  -5.652  0.00  0.00    +0.174 HD
BRANCH  16  22
ATOM     22  C   UNL     1       0.685  -0.512  -1.269  0.00  0.00    +0.112 C 
BRANCH  22  24
ATOM     23  C   UNL     1      -0.019   1.526   0.010  0.00  0.00    +0.013 C 
ATOM     24  C   UNL     1       0.002  -0.004   0.002  0.00  0.00    -0.016 C 
ATOM     25  C   UNL     1      -1.434  -0.551   0.084  0.00  0.00    +0.008 C 
ATOM     26  C   UNL     1      -1.512  -1.390   1.377  0.00  0.00    +0.001 C 
ATOM     27  C   UNL     1      -0.382  -0.820   2.269  0.00  0.00    +0.001 C 
ATOM     28  C   UNL     1       0.746  -0.529   1.247  0.00  0.00    +0.008 C 
ENDBRANCH  22  24
ENDBRANCH  16  22
ENDBRANCH   1  19
TORSDOF 4
