REMARK  Name = ZINC04164726
REMARK  9 active torsions:
REMARK  status: ('A' for Active; 'I' for Inactive)
REMARK    1  A    between atoms: C_1  and  C_2
REMARK    2  A    between atoms: N_7  and  C_8
REMARK    3  A    between atoms: C_8  and  C_10
REMARK    4  A    between atoms: C_8  and  C_19
REMARK    5  A    between atoms: C_13  and  N_16
REMARK    6  A    between atoms: N_16  and  C_17
REMARK    7  A    between atoms: N_16  and  C_18
REMARK    8  A    between atoms: C_25  and  C_30
REMARK    9  A    between atoms: C_28  and  O_29
REMARK                            x       y       z     vdW  Elec       q    Type
REMARK                         _______ _______ _______ _____ _____    ______ ____
ROOT
ATOM      1  C   UNL     1       1.105  -2.223  -0.027  0.00  0.00    +0.136 C 
ENDROOT
BRANCH   1   2
ATOM      2  C   UNL     1       1.351  -0.741   0.092  0.00  0.00    +0.021 A 
ATOM      3  C   UNL     1       2.625  -0.236  -0.153  0.00  0.00    +0.010 A 
ATOM      4  C   UNL     1       2.881   1.098  -0.054  0.00  0.00    +0.010 A 
ATOM      5  C   UNL     1       1.847   1.981   0.300  0.00  0.00    +0.004 A 
ATOM      6  C   UNL     1       2.072   3.366   0.412  0.00  0.00    +0.012 A 
ATOM      7  C   UNL     1       1.020   4.163   0.762  0.00  0.00    +0.023 A 
ATOM      8  C   UNL     1      -0.232   3.599   0.996  0.00  0.00    +0.039 A 
ATOM      9  N   UNL     1      -0.439   2.310   0.884  0.00  0.00    -0.248 NA
ATOM     10  C   UNL     1       0.549   1.474   0.552  0.00  0.00    +0.113 A 
ATOM     11  C   UNL     1       0.321   0.086   0.440  0.00  0.00    +0.148 A 
ATOM     12  C   UNL     1      -1.381   4.496   1.379  0.00  0.00    +0.065 C 
BRANCH  11  13
ATOM     13  O   UNL     1      -0.915  -0.425   0.676  0.00  0.00    -0.504 OA
ATOM     14  H   UNL     1      -1.478  -0.470  -0.108  0.00  0.00    +0.292 HD
ENDBRANCH  11  13
ENDBRANCH   1   2
BRANCH   1  21
ATOM     15  C   UNL     1       5.343  -5.244   3.184  0.00  0.00    +0.063 C 
ATOM     16  C   UNL     1       4.130  -4.371   2.985  0.00  0.00    +0.014 A 
ATOM     17  C   UNL     1       3.420  -3.931   4.083  0.00  0.00    +0.021 A 
ATOM     18  C   UNL     1       2.303  -3.127   3.894  0.00  0.00    +0.005 A 
ATOM     19  C   UNL     1       1.941  -2.795   2.601  0.00  0.00    +0.041 A 
ATOM     20  C   UNL     1       2.704  -3.273   1.540  0.00  0.00    +0.097 A 
ATOM     21  N   UNL     1       2.351  -2.947   0.236  0.00  0.00    -0.320 N 
ATOM     22  H   UNL     1       2.930  -3.200  -0.500  0.00  0.00    +0.148 HD
ATOM     23  N   UNL     1       3.801  -4.069   1.701  0.00  0.00    -0.347 N 
ATOM     24  H   UNL     1       4.343  -4.417   0.902  0.00  0.00    +0.167 HD
ENDBRANCH   1  21
BRANCH   1  25
ATOM     25  C   UNL     1       0.622  -2.542  -1.418  0.00  0.00    -0.023 A 
ATOM     26  C   UNL     1       1.519  -2.564  -2.471  0.00  0.00    +0.007 A 
ATOM     27  C   UNL     1       1.081  -2.861  -3.747  0.00  0.00    +0.023 A 
ATOM     28  C   UNL     1      -0.264  -3.127  -3.973  0.00  0.00    +0.029 A 
ATOM     29  C   UNL     1      -1.163  -3.099  -2.914  0.00  0.00    +0.023 A 
ATOM     30  C   UNL     1      -0.717  -2.806  -1.640  0.00  0.00    +0.007 A 
BRANCH  28  31
ATOM     31  N   UNL     1      -0.712  -3.422  -5.263  0.00  0.00    -0.336 N 
ATOM     32  C   UNL     1      -2.144  -3.581  -5.523  0.00  0.00    +0.129 C 
ATOM     33  C   UNL     1       0.252  -3.574  -6.356  0.00  0.00    +0.129 C 
ENDBRANCH  28  31
ENDBRANCH   1  25
TORSDOF 5
