REMARK  Name = ZINC05807711
REMARK  4 active torsions:
REMARK  status: ('A' for Active; 'I' for Inactive)
REMARK    1  A    between atoms: C_1  and  C_2
REMARK    2  A    between atoms: C_2  and  N_3
REMARK    3  A    between atoms: C_13  and  C_14
REMARK    4  A    between atoms: C_13  and  O_20
REMARK                            x       y       z     vdW  Elec       q    Type
REMARK                         _______ _______ _______ _____ _____    ______ ____
ROOT
ATOM      1  N   UNL     1      -1.843   1.028   1.562  0.00  0.00    -0.250 N 
ATOM      2  C   UNL     1      -2.730   1.803   0.912  0.00  0.00    +0.309 C 
ATOM      3  O   UNL     1      -2.366   2.893   0.515  0.00  0.00    -0.252 OA
ATOM      4  N   UNL     1      -3.994   1.428   0.677  0.00  0.00    -0.269 N 
ATOM      5  C   UNL     1      -4.512   0.201   1.097  0.00  0.00    +0.043 A 
ATOM      6  C   UNL     1      -5.833  -0.138   0.833  0.00  0.00    +0.025 A 
ATOM      7  C   UNL     1      -6.327  -1.356   1.255  0.00  0.00    +0.022 A 
ATOM      8  C   UNL     1      -5.513  -2.241   1.940  0.00  0.00    +0.042 A 
ATOM      9  C   UNL     1      -4.195  -1.907   2.206  0.00  0.00    +0.030 A 
ATOM     10  C   UNL     1      -3.701  -0.694   1.786  0.00  0.00    +0.030 A 
ATOM     11  C   UNL     1      -2.270  -0.292   2.056  0.00  0.00    +0.191 C 
ATOM     12 CL   UNL     1      -6.144  -3.771   2.466  0.00  0.00    -0.084 Cl
ATOM     13  H   UNL     1      -4.577   2.037   0.198  0.00  0.00    +0.156 HD
ENDROOT
BRANCH  11  14
ATOM     14  C   UNL     1      -1.372  -1.332   1.437  0.00  0.00    +0.007 A 
ATOM     15  C   UNL     1      -0.878  -1.146   0.159  0.00  0.00    +0.008 A 
ATOM     16  C   UNL     1      -0.051  -2.098  -0.407  0.00  0.00    +0.000 A 
ATOM     17  C   UNL     1       0.276  -3.240   0.300  0.00  0.00    +0.000 A 
ATOM     18  C   UNL     1      -0.223  -3.428   1.576  0.00  0.00    +0.000 A 
ATOM     19  C   UNL     1      -1.047  -2.474   2.144  0.00  0.00    +0.008 A 
ENDBRANCH  11  14
BRANCH   1  21
ATOM     20  C   UNL     1      -0.424   2.362   3.041  0.00  0.00    +0.024 C 
ATOM     21  C   UNL     1      -0.472   1.494   1.782  0.00  0.00    +0.109 C 
ENDBRANCH   1  21
BRANCH  11  22
ATOM     22  O   UNL     1      -2.063  -0.323   3.470  0.00  0.00    -0.364 OA
ATOM     23  H   UNL     1      -2.316  -1.157   3.886  0.00  0.00    +0.213 HD
ENDBRANCH  11  22
TORSDOF 3
