REMARK  Name = ZINC13567528
REMARK  5 active torsions:
REMARK  status: ('A' for Active; 'I' for Inactive)
REMARK    1  A    between atoms: C_1  and  N_2
REMARK    2  A    between atoms: C_8  and  S_9
REMARK    3  A    between atoms: S_9  and  C_10
REMARK    4  A    between atoms: C_10  and  C_11
REMARK    5  A    between atoms: C_18  and  C_24
REMARK                            x       y       z     vdW  Elec       q    Type
REMARK                         _______ _______ _______ _____ _____    ______ ____
ROOT
ATOM      1  C   UNL     1      -0.003   5.397   0.032  0.00  0.00    +0.152 C 
ATOM      2  N   UNL     1      -0.033   3.932   0.024  0.00  0.00    -0.311 N 
ATOM      3  C   UNL     1      -1.234   3.272   0.031  0.00  0.00    +0.116 A 
ATOM      4  C   UNL     1      -1.242   1.912   0.018  0.00  0.00    +0.065 A 
ATOM      5  C   UNL     1      -0.015   1.218   0.009  0.00  0.00    +0.279 A 
ATOM      6  O   UNL     1       0.002  -0.004   0.002  0.00  0.00    -0.265 OA
ATOM      7  N   UNL     1       1.136   1.910   0.002  0.00  0.00    -0.185 NA
ATOM      8  C   UNL     1       1.133   3.227   0.009  0.00  0.00    +0.174 A 
ATOM      9  C   UNL     1      -2.545   1.159   0.020  0.00  0.00    +0.066 C 
ATOM     10  C   UNL     1      -3.584   1.941   0.826  0.00  0.00    +0.109 C 
ATOM     11  C   UNL     1      -3.569   3.386   0.404  0.00  0.00    +0.219 C 
ATOM     12  O   UNL     1      -4.602   4.021   0.396  0.00  0.00    -0.275 OA
ATOM     13  N   UNL     1      -2.418   3.979   0.045  0.00  0.00    -0.271 N 
ATOM     14  H   UNL     1      -2.423   4.912  -0.217  0.00  0.00    +0.156 HD
ENDROOT
BRANCH   9  15
ATOM     15  C   UNL     1      -3.030   0.993  -1.397  0.00  0.00    -0.036 A 
ATOM     16  C   UNL     1      -3.288   2.108  -2.173  0.00  0.00    +0.008 A 
ATOM     17  C   UNL     1      -3.733   1.960  -3.474  0.00  0.00    +0.050 A 
ATOM     18  C   UNL     1      -3.922   0.694  -4.003  0.00  0.00    +0.166 A 
ATOM     19  C   UNL     1      -3.662  -0.429  -3.221  0.00  0.00    +0.167 A 
ATOM     20  C   UNL     1      -3.211  -0.274  -1.920  0.00  0.00    +0.053 A 
ATOM     21  O   UNL     1      -3.921  -1.546  -3.962  0.00  0.00    -0.453 OA
ATOM     22  C   UNL     1      -4.730  -1.097  -5.064  0.00  0.00    +0.466 C 
ATOM     23  O   UNL     1      -4.344   0.280  -5.233  0.00  0.00    -0.453 OA
ENDBRANCH   9  15
BRANCH   8  24
ATOM     24  S   UNL     1       2.666   4.095  -0.002  0.00  0.00    -0.083 S 
BRANCH  24  25
ATOM     25  C   UNL     1       3.817   2.698  -0.021  0.00  0.00    +0.115 C 
BRANCH  25  26
ATOM     26  C   UNL     1       5.233   3.214  -0.032  0.00  0.00    -0.002 A 
ATOM     27  C   UNL     1       5.873   3.452  -1.234  0.00  0.00    +0.007 A 
ATOM     28  C   UNL     1       7.170   3.931  -1.245  0.00  0.00    +0.000 A 
ATOM     29  C   UNL     1       7.832   4.162  -0.054  0.00  0.00    +0.003 A 
ATOM     30  C   UNL     1       7.197   3.919   1.149  0.00  0.00    +0.038 A 
ATOM     31  C   UNL     1       5.896   3.445   1.161  0.00  0.00    +0.127 A 
ATOM     32  F   UNL     1       5.274   3.207   2.337  0.00  0.00    -0.205 F 
ENDBRANCH  25  26
ENDBRANCH  24  25
ENDBRANCH   8  24
TORSDOF 4
