REMARK  Name = ZINC22973669
REMARK  5 active torsions:
REMARK  status: ('A' for Active; 'I' for Inactive)
REMARK    1  A    between atoms: C_3  and  C_13
REMARK    2  A    between atoms: C_6  and  C_7
REMARK    3  A    between atoms: N_15  and  C_16
REMARK    4  A    between atoms: C_19  and  S_22
REMARK    5  A    between atoms: S_22  and  N_25
REMARK                            x       y       z     vdW  Elec       q    Type
REMARK                         _______ _______ _______ _____ _____    ______ ____
ROOT
ATOM      1  C   UNL     1       2.719  -3.943  -2.263  0.00  0.00    +0.248 C 
ATOM      2  O   UNL     1       2.735  -2.820  -2.727  0.00  0.00    -0.270 OA
ATOM      3  N   UNL     1       1.641  -4.376  -1.581  0.00  0.00    -0.282 N 
ATOM      4  H   UNL     1       1.660  -5.359  -1.087  0.00  0.00    +0.155 HD
ENDROOT
BRANCH   1   7
ATOM      5  C   UNL     1       6.087  -5.226  -3.320  0.00  0.00    +0.006 A 
ATOM      6  C   UNL     1       5.003  -4.389  -3.153  0.00  0.00    +0.013 A 
ATOM      7  C   UNL     1       3.884  -4.835  -2.447  0.00  0.00    +0.037 A 
ATOM      8  C   UNL     1       3.873  -6.123  -1.910  0.00  0.00    +0.013 A 
ATOM      9  C   UNL     1       4.961  -6.951  -2.089  0.00  0.00    +0.006 A 
ATOM     10  C   UNL     1       6.067  -6.504  -2.790  0.00  0.00    -0.025 A 
BRANCH  10  11
ATOM     11  C   UNL     1       7.255  -7.412  -2.977  0.00  0.00    +0.133 C 
ATOM     12  S   UNL     1       6.739  -8.916  -3.856  0.00  0.00    -0.142 S 
ATOM     13  C   UNL     1       8.239  -9.935  -3.882  0.00  0.00    +0.071 C 
ATOM     14  C   UNL     1       8.663 -10.278  -2.458  0.00  0.00    +0.021 C 
ATOM     15  C   UNL     1       9.245  -9.056  -1.756  0.00  0.00    +0.071 C 
ATOM     16  S   UNL     1       7.923  -7.882  -1.354  0.00  0.00    -0.142 S 
ENDBRANCH  10  11
ENDBRANCH   1   7
BRANCH   3  17
ATOM     17  C   UNL     1       0.496  -3.576  -1.501  0.00  0.00    +0.034 A 
ATOM     18  C   UNL     1      -0.292  -3.602  -0.358  0.00  0.00    +0.025 A 
ATOM     19  C   UNL     1      -1.422  -2.811  -0.283  0.00  0.00    +0.030 A 
ATOM     20  C   UNL     1      -1.768  -1.994  -1.344  0.00  0.00    +0.106 A 
ATOM     21  C   UNL     1      -0.988  -1.970  -2.486  0.00  0.00    +0.030 A 
ATOM     22  C   UNL     1       0.146  -2.755  -2.565  0.00  0.00    +0.025 A 
BRANCH  20  23
ATOM     23  S   UNL     1      -3.209  -0.986  -1.243  0.00  0.00    +0.061 S 
ATOM     24  O   UNL     1      -4.069  -1.600  -0.293  0.00  0.00    -0.153 OA
ATOM     25  O   UNL     1      -3.615  -0.723  -2.580  0.00  0.00    -0.153 OA
BRANCH  23  26
ATOM     26  N   UNL     1      -2.748   0.466  -0.595  0.00  0.00    -0.177 NA
ATOM     27  C   UNL     1      -2.319   1.540  -1.443  0.00  0.00    +0.109 C 
ATOM     28  C   UNL     1      -0.810   1.573  -1.791  0.00  0.00    +0.017 C 
ATOM     29  C   UNL     1       0.034   1.229  -0.539  0.00  0.00    +0.001 C 
ATOM     30  C   UNL     1      -0.561   1.852   0.691  0.00  0.00    +0.001 C 
ATOM     31  C   UNL     1      -1.383   0.748   1.348  0.00  0.00    +0.017 C 
ATOM     32  C   UNL     1      -2.770   0.679   0.892  0.00  0.00    +0.109 C 
ENDBRANCH  23  26
ENDBRANCH  20  23
ENDBRANCH   3  17
TORSDOF 5
