REMARK  Name = ZINC35033065
REMARK  13 active torsions:
REMARK  status: ('A' for Active; 'I' for Inactive)
REMARK    1  A    between atoms: C_1  and  C_2
REMARK    2  A    between atoms: C_2  and  C_3
REMARK    3  A    between atoms: C_3  and  C_5
REMARK    4  A    between atoms: C_3  and  N_18
REMARK    5  A    between atoms: N_15  and  C_16
REMARK    6  A    between atoms: C_16  and  C_17
REMARK    7  A    between atoms: N_18  and  C_19
REMARK    8  A    between atoms: C_19  and  C_20
REMARK    9  A    between atoms: C_20  and  N_21
REMARK   10  A    between atoms: N_21  and  C_22
REMARK   11  A    between atoms: N_21  and  C_23
REMARK   12  A    between atoms: N_26  and  C_27
REMARK   13  A    between atoms: C_32  and  C_33
REMARK                            x       y       z     vdW  Elec       q    Type
REMARK                         _______ _______ _______ _____ _____    ______ ____
ROOT
ATOM      1  N   UNL     1      -2.084   0.181  -1.488  0.00  0.00    -0.277 N 
ATOM      2  C   UNL     1      -3.154   0.997  -1.558  0.00  0.00    +0.307 C 
ATOM      3  O   UNL     1      -3.651   1.436  -0.539  0.00  0.00    -0.252 OA
ATOM      4  N   UNL     1      -3.673   1.328  -2.757  0.00  0.00    -0.269 N 
ATOM      5  H   UNL     1      -3.315   0.930  -3.567  0.00  0.00    +0.156 HD
ENDROOT
BRANCH   4   6
ATOM      6  C   UNL     1      -4.728   2.244  -2.835  0.00  0.00    +0.046 A 
ATOM      7  C   UNL     1      -5.588   2.407  -1.758  0.00  0.00    +0.024 A 
ATOM      8  C   UNL     1      -6.628   3.312  -1.837  0.00  0.00    +0.002 A 
ATOM      9  C   UNL     1      -6.813   4.056  -2.989  0.00  0.00    +0.001 A 
ATOM     10  C   UNL     1      -5.958   3.896  -4.063  0.00  0.00    +0.014 A 
ATOM     11  C   UNL     1      -4.912   2.996  -3.987  0.00  0.00    +0.076 A 
BRANCH  11  12
ATOM     12  C   UNL     1      -3.977   2.826  -5.157  0.00  0.00    +0.419 C 
ATOM     13  F   UNL     1      -4.363   3.685  -6.191  0.00  0.00    -0.166 F 
ATOM     14  F   UNL     1      -2.672   3.134  -4.759  0.00  0.00    -0.166 F 
ATOM     15  F   UNL     1      -4.028   1.503  -5.606  0.00  0.00    -0.166 F 
ENDBRANCH  11  12
ENDBRANCH   4   6
BRANCH   1  16
ATOM     16  C   UNL     1      -1.520  -0.178  -0.185  0.00  0.00    +0.143 C 
BRANCH  16  17
ATOM     17  C   UNL     1      -1.444  -1.679  -0.067  0.00  0.00    +0.134 A 
ATOM     18  N   UNL     1      -0.652  -2.321  -0.870  0.00  0.00    -0.232 NA
ATOM     19  C   UNL     1      -0.532  -3.671  -0.822  0.00  0.00    +0.078 A 
ATOM     20  C   UNL     1       0.320  -4.362  -1.686  0.00  0.00    +0.028 A 
ATOM     21  C   UNL     1       0.411  -5.733  -1.602  0.00  0.00    +0.002 A 
ATOM     22  C   UNL     1      -0.334  -6.440  -0.667  0.00  0.00    +0.001 A 
ATOM     23  C   UNL     1      -1.182  -5.780   0.196  0.00  0.00    +0.015 A 
ATOM     24  C   UNL     1      -1.289  -4.393   0.127  0.00  0.00    +0.065 A 
ATOM     25  C   UNL     1      -2.176  -3.636   1.022  0.00  0.00    +0.262 A 
ATOM     26  O   UNL     1      -2.855  -4.197   1.862  0.00  0.00    -0.267 OA
ATOM     27  N   UNL     1      -2.204  -2.290   0.879  0.00  0.00    -0.295 N 
BRANCH  27  28
ATOM     28  C   UNL     1      -3.066  -1.486   1.749  0.00  0.00    +0.123 C 
ATOM     29  C   UNL     1      -4.400  -1.226   1.046  0.00  0.00    +0.027 C 
ENDBRANCH  27  28
ENDBRANCH  16  17
BRANCH  16  31
ATOM     30  C   UNL     1      -0.199   1.941  -0.128  0.00  0.00    +0.006 C 
ATOM     31  C   UNL     1      -0.116   0.415  -0.056  0.00  0.00    +0.027 C 
ENDBRANCH  16  31
ENDBRANCH   1  16
BRANCH   1  32
ATOM     32  C   UNL     1      -1.485  -0.348  -2.716  0.00  0.00    +0.091 C 
BRANCH  32  33
ATOM     33  C   UNL     1      -2.262  -1.584  -3.172  0.00  0.00    -0.060 C 
BRANCH  33  34
ATOM     34  N   UNL     1      -1.586  -2.189  -4.327  0.00  0.00    +0.377 N 
ATOM     35  C   UNL     1      -2.263  -3.442  -4.690  0.00  0.00    -0.097 C 
ATOM     36  C   UNL     1      -1.633  -1.260  -5.464  0.00  0.00    -0.097 C 
ATOM     37  H   UNL     1      -0.624  -2.383  -4.091  0.00  0.00    -0.083 HD
ENDBRANCH  33  34
ENDBRANCH  32  33
ENDBRANCH   1  32
TORSDOF 9
