REMARK  Name = ZINC31810387
REMARK  3 active torsions:
REMARK  status: ('A' for Active; 'I' for Inactive)
REMARK    1  A    between atoms: C_1  and  C_2
REMARK    2  A    between atoms: C_18  and  O_30
REMARK    3  A    between atoms: C_21  and  C_23
REMARK                            x       y       z     vdW  Elec       q    Type
REMARK                         _______ _______ _______ _____ _____    ______ ____
ROOT
ATOM      1  C   UNL     1      -0.159   1.563  -0.024  0.00  0.00    +0.068 C 
ATOM      2  C   UNL     1      -0.138   0.056   0.005  0.00  0.00    +0.067 A 
ATOM      3  C   UNL     1      -0.168  -0.783  -1.125  0.00  0.00    +0.037 A 
ATOM      4  C   UNL     1      -0.130  -2.078  -0.682  0.00  0.00    +0.166 A 
ATOM      5  N   UNL     1      -0.085  -2.021   0.700  0.00  0.00    -0.194 N 
ATOM      6  N   UNL     1      -0.082  -0.679   1.079  0.00  0.00    -0.168 NA
ATOM      7  C   UNL     1      -0.044  -3.114   1.561  0.00  0.00    +0.187 A 
ATOM      8  C   UNL     1      -0.006  -2.931   2.952  0.00  0.00    +0.152 A 
ATOM      9  C   UNL     1       0.034  -4.074   3.772  0.00  0.00    +0.163 A 
ATOM     10  N   UNL     1       0.066  -3.611   5.063  0.00  0.00    -0.329 N 
ATOM     11  H   UNL     1       0.098  -4.154   5.867  0.00  0.00    +0.168 HD
ATOM     12  C   UNL     1       0.046  -2.249   5.010  0.00  0.00    +0.198 A 
ATOM     13  N   UNL     1       0.004  -1.852   3.771  0.00  0.00    -0.231 NA
ATOM     14  N   UNL     1       0.034  -5.274   3.205  0.00  0.00    -0.216 NA
ATOM     15  C   UNL     1      -0.004  -5.397   1.895  0.00  0.00    +0.226 A 
ATOM     16  N   UNL     1      -0.047  -4.354   1.086  0.00  0.00    -0.214 NA
ATOM     17  N   UNL     1      -0.122  -3.250  -1.337  0.00  0.00    -0.197 NA
ATOM     18  C   UNL     1      -0.150  -3.625  -2.532  0.00  0.00    +0.199 C 
ATOM     19  C   UNL     1      -0.266  -2.829  -3.772  0.00  0.00    +0.165 C 
ATOM     20  S   UNL     1       0.641  -1.278  -3.705  0.00  0.00    -0.138 S 
ATOM     21  C   UNL     1      -0.236  -0.248  -2.523  0.00  0.00    +0.113 C 
ENDROOT
BRANCH  21  22
ATOM     22  C   UNL     1       0.363   1.134  -2.545  0.00  0.00    -0.016 A 
ATOM     23  C   UNL     1       1.720   1.303  -2.338  0.00  0.00    +0.006 A 
ATOM     24  C   UNL     1       2.269   2.571  -2.358  0.00  0.00    +0.000 A 
ATOM     25  C   UNL     1       1.463   3.671  -2.585  0.00  0.00    +0.001 A 
ATOM     26  C   UNL     1       0.107   3.503  -2.791  0.00  0.00    +0.015 A 
ATOM     27  C   UNL     1      -0.443   2.234  -2.776  0.00  0.00    +0.022 A 
ATOM     28 BR   UNL     1      -2.297   2.003  -3.065  0.00  0.00    -0.050 Br
ENDBRANCH  21  22
BRANCH  18  29
ATOM     29  O   UNL     1      -0.059  -4.958  -2.715  0.00  0.00    -0.495 OA
ATOM     30  H   UNL     1       0.016  -5.463  -1.894  0.00  0.00    +0.293 HD
ENDBRANCH  18  29
TORSDOF 2
