REMARK  Name = ZINC39666781
REMARK  10 active torsions:
REMARK  status: ('A' for Active; 'I' for Inactive)
REMARK    1  A    between atoms: C_1  and  C_2
REMARK    2  A    between atoms: C_2  and  C_3
REMARK    3  A    between atoms: C_3  and  C_4
REMARK    4  A    between atoms: C_3  and  C_6
REMARK    5  A    between atoms: C_4  and  C_5
REMARK    6  A    between atoms: C_6  and  N_7
REMARK    7  A    between atoms: C_8  and  C_10
REMARK    8  A    between atoms: C_21  and  C_23
REMARK    9  A    between atoms: C_24  and  C_36
REMARK   10  A    between atoms: C_27  and  C_28
REMARK                            x       y       z     vdW  Elec       q    Type
REMARK                         _______ _______ _______ _____ _____    ______ ____
ROOT
ATOM      1  C   UNL     1       2.944  -3.367  -1.378  0.00  0.00    +0.100 C 
ATOM      2  C   UNL     1       2.572  -3.209  -2.870  0.00  0.00    +0.121 C 
ATOM      3  N   UNL     1       3.196  -4.375  -3.537  0.00  0.00    -0.296 N 
ATOM      4  C   UNL     1       2.993  -5.495  -2.587  0.00  0.00    +0.115 C 
ATOM      5  C   UNL     1       3.219  -4.869  -1.197  0.00  0.00    -0.004 C 
ATOM      6  C   UNL     1       2.245  -5.466  -0.186  0.00  0.00    -0.010 C 
ATOM      7  C   UNL     1       2.576  -6.947   0.022  0.00  0.00    -0.082 C 
ATOM      8  N   UNL     1       3.956  -7.080   0.504  0.00  0.00    +0.379 N 
ATOM      9  C   UNL     1       4.891  -6.588  -0.515  0.00  0.00    -0.082 C 
ATOM     10  C   UNL     1       4.659  -5.092  -0.745  0.00  0.00    -0.010 C 
ATOM     11  C   UNL     1       3.811  -4.410  -4.736  0.00  0.00    +0.252 C 
ATOM     12  O   UNL     1       4.276  -5.454  -5.151  0.00  0.00    -0.270 OA
ATOM     13  H   UNL     1       4.068  -6.541   1.350  0.00  0.00    -0.086 HD
ATOM     14  H   UNL     1       4.151  -8.050   0.697  0.00  0.00    -0.086 HD
ENDROOT
BRANCH  11  15
ATOM     15  C   UNL     1       3.917  -3.183  -5.545  0.00  0.00    +0.106 A 
ATOM     16  C   UNL     1       4.934  -2.275  -5.513  0.00  0.00    +0.147 A 
ATOM     17  O   UNL     1       4.659  -1.308  -6.392  0.00  0.00    -0.359 OA
ATOM     18  N   UNL     1       3.425  -1.583  -7.025  0.00  0.00    -0.077 NA
ATOM     19  C   UNL     1       2.952  -2.706  -6.546  0.00  0.00    +0.130 A 
ATOM     20  C   UNL     1       6.157  -2.348  -4.637  0.00  0.00    +0.090 C 
BRANCH  19  21
ATOM     21  C   UNL     1       1.683  -3.367  -6.935  0.00  0.00    +0.058 A 
ATOM     22  C   UNL     1       1.682  -4.708  -7.322  0.00  0.00    +0.134 A 
ATOM     23  C   UNL     1       0.495  -5.319  -7.683  0.00  0.00    +0.039 A 
ATOM     24  C   UNL     1      -0.688  -4.603  -7.662  0.00  0.00    +0.004 A 
ATOM     25  C   UNL     1      -0.693  -3.274  -7.280  0.00  0.00    +0.021 A 
ATOM     26  C   UNL     1       0.485  -2.653  -6.911  0.00  0.00    +0.053 A 
ATOM     27 CL   UNL     1       0.475  -0.987  -6.425  0.00  0.00    -0.083 Cl
ATOM     28  F   UNL     1       2.837  -5.408  -7.344  0.00  0.00    -0.205 F 
ENDBRANCH  19  21
ENDBRANCH  11  15
BRANCH   1  30
ATOM     29  N   UNL     1       2.039  -2.430   0.724  0.00  0.00    -0.315 N 
ATOM     30  C   UNL     1       1.797  -2.934  -0.502  0.00  0.00    +0.218 C 
ATOM     31  O   UNL     1       0.657  -3.038  -0.901  0.00  0.00    -0.275 OA
ATOM     32  H   UNL     1       2.951  -2.346   1.043  0.00  0.00    +0.149 HD
BRANCH  29  33
ATOM     33  C   UNL     1       0.923  -2.009   1.576  0.00  0.00    +0.107 C 
BRANCH  33  34
ATOM     34  C   UNL     1       1.467  -1.479   2.904  0.00  0.00    +0.006 C 
BRANCH  34  36
ATOM     35  C   UNL     1       2.938   0.244   3.957  0.00  0.00    +0.004 C 
ATOM     36  C   UNL     1       2.284  -0.211   2.651  0.00  0.00    +0.002 C 
ENDBRANCH  34  36
BRANCH  34  37
ATOM     37  C   UNL     1       0.301  -1.156   3.840  0.00  0.00    +0.002 C 
ATOM     38  C   UNL     1      -0.448  -2.445   4.185  0.00  0.00    +0.004 C 
ENDBRANCH  34  37
ENDBRANCH  33  34
ENDBRANCH  29  33
ENDBRANCH   1  30
TORSDOF 7
