REMARK  Name = ZINC09302175
REMARK  14 active torsions:
REMARK  status: ('A' for Active; 'I' for Inactive)
REMARK    1  A    between atoms: C_1  and  C_2
REMARK    2  A    between atoms: C_2  and  N_69
REMARK    3  A    between atoms: C_3  and  C_4
REMARK    4  A    between atoms: C_3  and  N_69
REMARK    5  A    between atoms: C_5  and  C_6
REMARK    6  A    between atoms: C_5  and  N_69
REMARK    7  A    between atoms: C_6  and  N_7
REMARK    8  A    between atoms: C_8  and  C_26
REMARK    9  A    between atoms: C_11  and  C_12
REMARK   10  A    between atoms: C_11  and  O_21
REMARK   11  A    between atoms: C_29  and  C_32
REMARK   12  A    between atoms: C_32  and  C_33
REMARK   13  A    between atoms: C_32  and  C_34
REMARK   14  A    between atoms: C_32  and  C_35
REMARK                            x       y       z     vdW  Elec       q    Type
REMARK                         _______ _______ _______ _____ _____    ______ ____
ROOT
ATOM      1  N   UNL     1      -0.050   2.100   6.448  0.00  0.00    -0.285 N 
ATOM      2  C   UNL     1      -1.108   1.740   7.397  0.00  0.00    +0.144 C 
ATOM      3  C   UNL     1      -1.008   2.716   8.547  0.00  0.00    +0.074 C 
ATOM      4  C   UNL     1      -1.808   2.756   9.677  0.00  0.00    +0.168 C 
ATOM      5  C   UNL     1       0.059   3.571   8.240  0.00  0.00    +0.249 C 
ATOM      6  O   UNL     1       0.453   4.496   8.929  0.00  0.00    -0.282 OA
ATOM      7  C   UNL     1       0.629   3.153   6.933  0.00  0.00    +0.288 C 
ATOM      8  O   UNL     1       1.571   3.687   6.381  0.00  0.00    -0.266 OA
ENDROOT
BRANCH   4   9
ATOM      9  C   UNL     1      -1.669   3.854  10.632  0.00  0.00    +0.171 A 
ATOM     10  C   UNL     1      -1.555   3.713  11.983  0.00  0.00    +0.061 A 
ATOM     11  C   UNL     1      -1.440   5.018  12.524  0.00  0.00    +0.021 A 
ATOM     12  C   UNL     1      -1.295   5.518  13.824  0.00  0.00    +0.011 A 
ATOM     13  C   UNL     1      -1.214   6.866  14.026  0.00  0.00    +0.001 A 
ATOM     14  C   UNL     1      -1.275   7.744  12.953  0.00  0.00    +0.004 A 
ATOM     15  C   UNL     1      -1.417   7.274  11.665  0.00  0.00    +0.047 A 
ATOM     16  C   UNL     1      -1.502   5.906  11.434  0.00  0.00    +0.136 A 
ATOM     17  O   UNL     1      -1.640   5.167  10.315  0.00  0.00    -0.452 OA
ENDBRANCH   4   9
BRANCH   2  18
ATOM     18  C   UNL     1      -2.457   1.859   6.736  0.00  0.00    -0.022 A 
ATOM     19  C   UNL     1      -2.719   2.917   5.885  0.00  0.00    +0.006 A 
ATOM     20  C   UNL     1      -3.955   3.024   5.275  0.00  0.00    +0.004 A 
ATOM     21  C   UNL     1      -4.932   2.078   5.523  0.00  0.00    -0.042 A 
ATOM     22  C   UNL     1      -4.672   1.024   6.378  0.00  0.00    +0.004 A 
ATOM     23  C   UNL     1      -3.435   0.914   6.984  0.00  0.00    +0.006 A 
BRANCH  21  24
ATOM     24  C   UNL     1      -6.280   2.197   4.861  0.00  0.00    -0.013 C 
ATOM     25  C   UNL     1      -7.366   2.313   5.932  0.00  0.00    +0.015 C 
ATOM     26  C   UNL     1      -6.305   3.442   3.972  0.00  0.00    +0.015 C 
ATOM     27  C   UNL     1      -6.540   0.955   4.005  0.00  0.00    +0.015 C 
ENDBRANCH  21  24
ENDBRANCH   2  18
BRANCH   4  28
ATOM     28  O   UNL     1      -2.718   1.781   9.895  0.00  0.00    -0.503 OA
ATOM     29  H   UNL     1      -3.205   1.965  10.749  0.00  0.00    +0.292 HD
ENDBRANCH   4  28
BRANCH   1  30
ATOM     30  C   UNL     1       0.225   1.418   5.181  0.00  0.00    +0.090 C 
BRANCH  30  31
ATOM     31  C   UNL     1      -0.589   2.071   4.063  0.00  0.00    -0.060 C 
BRANCH  31  32
ATOM     32  N   UNL     1      -0.284   1.387   2.789  0.00  0.00    +0.380 N 
ATOM     33  H   UNL     1       0.734   1.356   2.662  0.00  0.00    -0.082 HD
BRANCH  32  35
ATOM     34  C   UNL     1      -0.022   3.354   1.362  0.00  0.00    -0.017 C 
ATOM     35  C   UNL     1      -0.887   2.127   1.661  0.00  0.00    -0.082 C 
ENDBRANCH  32  35
BRANCH  32  36
ATOM     36  C   UNL     1      -0.806   0.004   2.821  0.00  0.00    -0.082 C 
ATOM     37  C   UNL     1      -0.106  -0.809   1.730  0.00  0.00    -0.017 C 
ENDBRANCH  32  36
ENDBRANCH  31  32
ENDBRANCH  30  31
ENDBRANCH   1  30
TORSDOF 9
