REMARK  Name = ZINC09499486
REMARK  8 active torsions:
REMARK  status: ('A' for Active; 'I' for Inactive)
REMARK    1  A    between atoms: C_1  and  C_2
REMARK    2  A    between atoms: C_5  and  N_8
REMARK    3  A    between atoms: C_21  and  S_22
REMARK    4  A    between atoms: S_22  and  C_23
REMARK    5  A    between atoms: C_23  and  C_25
REMARK    6  A    between atoms: C_23  and  C_26
REMARK    7  A    between atoms: N_28  and  C_29
REMARK    8  A    between atoms: C_29  and  C_35
REMARK                            x       y       z     vdW  Elec       q    Type
REMARK                         _______ _______ _______ _____ _____    ______ ____
ROOT
ATOM      1  N   UNL     1       3.593   3.506  -0.015  0.00  0.00    -0.245 N 
ATOM      2  C   UNL     1       3.589   2.252  -0.515  0.00  0.00    +0.268 A 
ATOM      3  O   UNL     1       4.607   1.766  -0.971  0.00  0.00    -0.267 OA
ATOM      4  C   UNL     1       2.333   1.481  -0.500  0.00  0.00    +0.064 A 
ATOM      5  C   UNL     1       2.275   0.183  -1.005  0.00  0.00    +0.015 A 
ATOM      6  C   UNL     1       1.081  -0.507  -0.974  0.00  0.00    +0.001 A 
ATOM      7  C   UNL     1      -0.056   0.083  -0.446  0.00  0.00    +0.002 A 
ATOM      8  C   UNL     1      -0.011   1.368   0.057  0.00  0.00    +0.027 A 
ATOM      9  C   UNL     1       1.180   2.078   0.035  0.00  0.00    +0.064 A 
ATOM     10  N   UNL     1       1.257   3.372   0.533  0.00  0.00    -0.255 N 
ATOM     11  C   UNL     1       2.438   4.068   0.507  0.00  0.00    +0.245 A 
ATOM     12  N   UNL     1       2.199   5.243   1.037  0.00  0.00    -0.109 NA
ATOM     13  N   UNL     1       0.965   5.327   1.388  0.00  0.00    -0.120 NA
ATOM     14  C   UNL     1       0.338   4.211   1.104  0.00  0.00    +0.198 A 
ENDROOT
BRANCH   1  19
ATOM     15  C   UNL     1       8.400   6.518  -0.051  0.00  0.00    +0.044 C 
ATOM     16  C   UNL     1       7.123   5.718  -0.041  0.00  0.00    -0.050 A 
ATOM     17  C   UNL     1       6.258   5.786  -1.118  0.00  0.00    +0.005 A 
ATOM     18  C   UNL     1       5.087   5.054  -1.113  0.00  0.00    +0.026 A 
ATOM     19  C   UNL     1       4.779   4.249  -0.024  0.00  0.00    +0.053 A 
ATOM     20  C   UNL     1       5.647   4.187   1.058  0.00  0.00    +0.026 A 
ATOM     21  C   UNL     1       6.819   4.917   1.044  0.00  0.00    +0.005 A 
ENDBRANCH   1  19
BRANCH  14  22
ATOM     22  S   UNL     1      -1.362   3.858   1.401  0.00  0.00    -0.073 S 
BRANCH  22  23
ATOM     23  C   UNL     1      -1.998   5.374   2.169  0.00  0.00    +0.137 C 
ATOM     24  C   UNL     1      -1.927   6.524   1.162  0.00  0.00    +0.029 C 
BRANCH  23  25
ATOM     25  C   UNL     1      -3.429   5.162   2.590  0.00  0.00    +0.227 C 
ATOM     26  O   UNL     1      -4.081   4.268   2.093  0.00  0.00    -0.275 OA
ATOM     27  N   UNL     1      -3.984   5.965   3.519  0.00  0.00    -0.296 N 
ATOM     28  H   UNL     1      -3.462   6.679   3.917  0.00  0.00    +0.150 HD
BRANCH  27  29
ATOM     29  C   UNL     1      -5.375   5.758   3.929  0.00  0.00    +0.121 C 
ATOM     30  C   UNL     1      -6.292   5.910   2.713  0.00  0.00    +0.041 C 
ATOM     31  C   UNL     1      -7.745   5.695   3.141  0.00  0.00    +0.003 C 
ATOM     32  C   UNL     1      -8.125   6.733   4.199  0.00  0.00    +0.000 C 
ATOM     33  C   UNL     1      -7.208   6.581   5.415  0.00  0.00    +0.003 C 
ATOM     34  C   UNL     1      -5.755   6.796   4.987  0.00  0.00    +0.041 C 
BRANCH  29  35
ATOM     35  C   UNL     1      -5.526   4.406   4.491  0.00  0.00    +0.088 C 
ATOM     36  N   UNL     1      -5.643   3.363   4.925  0.00  0.00    -0.194 NA
ENDBRANCH  29  35
ENDBRANCH  27  29
ENDBRANCH  23  25
ENDBRANCH  22  23
ENDBRANCH  14  22
TORSDOF 6
