REMARK  Name = ZINC62539072
REMARK  3 active torsions:
REMARK  status: ('A' for Active; 'I' for Inactive)
REMARK    1  A    between atoms: C_1  and  C_2
REMARK    2  A    between atoms: C_2  and  C_3
REMARK    3  A    between atoms: C_11  and  N_16
REMARK                            x       y       z     vdW  Elec       q    Type
REMARK                         _______ _______ _______ _____ _____    ______ ____
ROOT
ATOM      1  C   UNL     1      -1.433  -0.534   0.013  0.00  0.00    +0.259 C 
ATOM      2  C   UNL     1      -1.413  -2.037   0.131  0.00  0.00    +0.258 C 
ATOM      3  O   UNL     1      -1.480  -2.563   1.221  0.00  0.00    -0.271 OA
ATOM      4  N   UNL     1      -1.319  -2.794  -0.983  0.00  0.00    -0.278 N 
ATOM      5  C   UNL     1      -1.370  -2.171  -2.241  0.00  0.00    +0.096 A 
ATOM      6  C   UNL     1      -1.051  -2.879  -3.390  0.00  0.00    +0.068 A 
ATOM      7  C   UNL     1      -1.092  -2.251  -4.621  0.00  0.00    +0.046 A 
ATOM      8  C   UNL     1      -1.452  -0.913  -4.709  0.00  0.00    +0.048 A 
ATOM      9  C   UNL     1      -1.777  -0.202  -3.560  0.00  0.00    +0.105 A 
ATOM     10  C   UNL     1      -1.742  -0.832  -2.327  0.00  0.00    +0.164 A 
ATOM     11  O   UNL     1      -2.089  -0.156  -1.200  0.00  0.00    -0.476 OA
ATOM     12 CL   UNL     1      -2.226   1.471  -3.670  0.00  0.00    -0.078 Cl
ATOM     13 CL   UNL     1      -0.600  -4.552  -3.282  0.00  0.00    -0.081 Cl
ATOM     14  H   UNL     1      -1.218  -3.756  -0.915  0.00  0.00    +0.155 HD
ENDROOT
BRANCH   8  15
ATOM     15  N   UNL     1      -1.486  -0.279  -5.956  0.00  0.00    -0.357 N 
ATOM     16  H   UNL     1      -1.258  -0.774  -6.758  0.00  0.00    +0.142 HD
ATOM     17  H   UNL     1      -1.736   0.656  -6.018  0.00  0.00    +0.142 HD
ENDBRANCH   8  15
BRANCH   1  19
ATOM     18  C   UNL     1      -0.019   1.526   0.010  0.00  0.00    +0.008 C 
ATOM     19  C   UNL     1       0.002  -0.004   0.002  0.00  0.00    +0.051 C 
ENDBRANCH   1  19
TORSDOF 2
