REMARK  Name = ZINC02251846
REMARK  8 active torsions:
REMARK  status: ('A' for Active; 'I' for Inactive)
REMARK    1  A    between atoms: C_1  and  O_2
REMARK    2  A    between atoms: O_2  and  C_3
REMARK    3  A    between atoms: C_6  and  C_9
REMARK    4  A    between atoms: C_20  and  C_22
REMARK    5  A    between atoms: C_25  and  O_28
REMARK    6  A    between atoms: O_28  and  C_29
REMARK    7  A    between atoms: C_34  and  S_36
REMARK    8  A    between atoms: S_36  and  C_37
REMARK                            x       y       z     vdW  Elec       q    Type
REMARK                         _______ _______ _______ _____ _____    ______ ____
ROOT
ATOM      1  C   UNL     1       2.505  -2.503  -4.381  0.00  0.00    +0.159 C 
ATOM      2  C   UNL     1       3.918  -2.860  -3.977  0.00  0.00    +0.025 C 
ATOM      3  C   UNL     1       4.289  -4.156  -4.042  0.00  0.00    +0.058 C 
ATOM      4  C   UNL     1       5.676  -4.492  -3.633  0.00  0.00    +0.040 A 
ATOM      5  C   UNL     1       6.252  -5.712  -3.957  0.00  0.00    +0.013 A 
ATOM      6  C   UNL     1       7.547  -5.983  -3.557  0.00  0.00    +0.001 A 
ATOM      7  C   UNL     1       8.265  -5.044  -2.838  0.00  0.00    +0.004 A 
ATOM      8  C   UNL     1       7.698  -3.826  -2.511  0.00  0.00    +0.046 A 
ATOM      9  C   UNL     1       6.402  -3.541  -2.904  0.00  0.00    +0.131 A 
ATOM     10  O   UNL     1       5.819  -2.357  -2.590  0.00  0.00    -0.479 OA
ATOM     11  C   UNL     1       4.889  -1.809  -3.526  0.00  0.00    +0.234 C 
ATOM     12  N   UNL     1       3.433  -5.119  -4.462  0.00  0.00    -0.326 N 
ATOM     13  C   UNL     1       2.189  -4.896  -4.831  0.00  0.00    +0.216 C 
ATOM     14  N   UNL     1       1.660  -3.624  -4.813  0.00  0.00    -0.209 N 
ATOM     15  N   UNL     1       0.337  -3.731  -5.251  0.00  0.00    -0.239 N 
ATOM     16  C   UNL     1       0.125  -5.059  -5.514  0.00  0.00    +0.174 C 
ATOM     17  N   UNL     1       1.224  -5.726  -5.266  0.00  0.00    -0.192 NA
ATOM     18  H   UNL     1       3.757  -6.032  -4.492  0.00  0.00    +0.169 HD
ATOM     19  H   UNL     1      -0.303  -3.009  -5.348  0.00  0.00    +0.172 HD
ENDROOT
BRANCH   1  23
ATOM     20  C   UNL     1       0.606  -0.607  -1.056  0.00  0.00    +0.120 A 
ATOM     21  C   UNL     1       1.173   0.161  -2.062  0.00  0.00    +0.046 A 
ATOM     22  C   UNL     1       1.786  -0.455  -3.136  0.00  0.00    +0.009 A 
ATOM     23  C   UNL     1       1.835  -1.835  -3.209  0.00  0.00    -0.021 A 
ATOM     24  C   UNL     1       1.270  -2.602  -2.207  0.00  0.00    +0.009 A 
ATOM     25  C   UNL     1       0.661  -1.992  -1.128  0.00  0.00    +0.046 A 
BRANCH  20  27
ATOM     26  C   UNL     1      -0.017   1.425   0.010  0.00  0.00    +0.277 C 
ATOM     27  O   UNL     1       0.002  -0.004   0.002  0.00  0.00    -0.495 OA
ENDBRANCH  20  27
ENDBRANCH   1  23
BRANCH  11  28
ATOM     28  C   UNL     1       5.639  -1.277  -4.720  0.00  0.00    -0.003 A 
ATOM     29  C   UNL     1       6.699  -1.993  -5.244  0.00  0.00    +0.011 A 
ATOM     30  C   UNL     1       7.389  -1.508  -6.338  0.00  0.00    +0.046 A 
ATOM     31  C   UNL     1       7.016  -0.301  -6.912  0.00  0.00    +0.120 A 
ATOM     32  C   UNL     1       5.951   0.415  -6.385  0.00  0.00    +0.046 A 
ATOM     33  C   UNL     1       5.262  -0.077  -5.294  0.00  0.00    +0.011 A 
BRANCH  31  34
ATOM     34  O   UNL     1       7.693   0.178  -7.988  0.00  0.00    -0.495 OA
ATOM     35  C   UNL     1       7.254   1.427  -8.527  0.00  0.00    +0.277 C 
ENDBRANCH  31  34
ENDBRANCH  11  28
BRANCH  16  36
ATOM     36  S   UNL     1      -1.383  -5.757  -6.099  0.00  0.00    -0.092 S 
ATOM     37  C   UNL     1      -1.020  -7.529  -6.243  0.00  0.00    +0.093 C 
ENDBRANCH  16  36
TORSDOF 5
