REMARK  Name = ZINC06443007
REMARK  12 active torsions:
REMARK  status: ('A' for Active; 'I' for Inactive)
REMARK    1  A    between atoms: C_1  and  C_2
REMARK    2  A    between atoms: C_6  and  N_9
REMARK    3  A    between atoms: C_7  and  C_8
REMARK    4  A    between atoms: C_14  and  C_16
REMARK    5  A    between atoms: C_14  and  C_30
REMARK    6  A    between atoms: C_14  and  N_74
REMARK    7  A    between atoms: C_21  and  C_29
REMARK    8  A    between atoms: C_22  and  C_28
REMARK    9  A    between atoms: N_34  and  C_35
REMARK   10  A    between atoms: C_35  and  C_36
REMARK   11  A    between atoms: C_35  and  C_37
REMARK   12  A    between atoms: C_35  and  C_38
REMARK                            x       y       z     vdW  Elec       q    Type
REMARK                         _______ _______ _______ _____ _____    ______ ____
ROOT
ATOM      1  C   UNL     1      -2.401   4.597   0.227  0.00  0.00    +0.039 C 
ENDROOT
BRANCH   1   2
ATOM      2  C   UNL     1      -1.084   3.906  -0.015  0.00  0.00    +0.011 A 
ATOM      3  C   UNL     1      -1.062   2.592  -0.352  0.00  0.00    +0.017 A 
ATOM      4  C   UNL     1       0.234   1.952  -0.585  0.00  0.00    -0.001 A 
ATOM      5  C   UNL     1       0.321   0.603  -0.942  0.00  0.00    +0.010 A 
ATOM      6  C   UNL     1       1.545   0.034  -1.147  0.00  0.00    +0.004 A 
ATOM      7  C   UNL     1       2.705   0.783  -1.004  0.00  0.00    -0.046 A 
ATOM      8  C   UNL     1       2.644   2.114  -0.653  0.00  0.00    -0.024 A 
ATOM      9  C   UNL     1       1.408   2.716  -0.440  0.00  0.00    +0.052 A 
ATOM     10  N   UNL     1       1.317   4.045  -0.089  0.00  0.00    -0.322 N 
ATOM     11  H   UNL     1       2.127   4.570   0.010  0.00  0.00    +0.169 HD
ATOM     12  C   UNL     1       0.122   4.626   0.118  0.00  0.00    +0.251 A 
ATOM     13  O   UNL     1       0.080   5.804   0.427  0.00  0.00    -0.268 OA
ATOM     14  C   UNL     1       3.912   2.915  -0.501  0.00  0.00    +0.046 C 
ATOM     15  C   UNL     1       4.045   0.134  -1.236  0.00  0.00    +0.044 C 
ENDBRANCH   1   2
BRANCH   1  21
ATOM     16  N   UNL     1      -3.671   7.490  -2.578  0.00  0.00    -0.333 N 
ATOM     17  C   UNL     1      -2.464   6.711  -2.890  0.00  0.00    +0.086 C 
ATOM     18  C   UNL     1      -2.451   5.435  -2.045  0.00  0.00    -0.058 C 
ATOM     19  C   UNL     1      -3.696   6.572  -0.308  0.00  0.00    -0.058 C 
ATOM     20  C   UNL     1      -3.709   7.848  -1.153  0.00  0.00    +0.086 C 
ATOM     21  N   UNL     1      -2.467   5.810  -0.615  0.00  0.00    +0.391 N 
ATOM     22  H   UNL     1      -1.650   6.399  -0.416  0.00  0.00    -0.080 HD
BRANCH  16  28
ATOM     23  C   UNL     1      -6.106  10.127  -5.935  0.00  0.00    +0.044 C 
ATOM     24  C   UNL     1      -4.923   9.932  -5.021  0.00  0.00    -0.046 A 
ATOM     25  C   UNL     1      -3.919  10.882  -4.979  0.00  0.00    +0.004 A 
ATOM     26  C   UNL     1      -2.833  10.708  -4.141  0.00  0.00    +0.002 A 
ATOM     27  C   UNL     1      -2.748   9.584  -3.343  0.00  0.00    +0.023 A 
ATOM     28  C   UNL     1      -3.754   8.628  -3.383  0.00  0.00    +0.033 A 
ATOM     29  C   UNL     1      -4.842   8.803  -4.230  0.00  0.00    -0.027 A 
ATOM     30  C   UNL     1      -5.933   7.766  -4.281  0.00  0.00    +0.046 C 
ENDBRANCH  16  28
ENDBRANCH   1  21
BRANCH   1  31
ATOM     31  C   UNL     1      -2.500   4.998   1.676  0.00  0.00    +0.143 A 
ATOM     32  N   UNL     1      -1.792   5.920   2.283  0.00  0.00    -0.115 NA
ATOM     33  N   UNL     1      -2.170   5.966   3.514  0.00  0.00    -0.023 NA
ATOM     34  N   UNL     1      -3.100   5.097   3.708  0.00  0.00    -0.043 NA
ATOM     35  N   UNL     1      -3.336   4.484   2.597  0.00  0.00    -0.225 N 
BRANCH  35  36
ATOM     36  C   UNL     1      -4.324   3.425   2.381  0.00  0.00    +0.059 C 
ATOM     37  C   UNL     1      -3.621   2.169   1.862  0.00  0.00    +0.036 C 
ATOM     38  C   UNL     1      -5.028   3.106   3.702  0.00  0.00    +0.036 C 
ATOM     39  C   UNL     1      -5.356   3.893   1.353  0.00  0.00    +0.036 C 
ENDBRANCH  35  36
ENDBRANCH   1  31
TORSDOF 5
