REMARK  Name = ZINC05348407
REMARK  7 active torsions:
REMARK  status: ('A' for Active; 'I' for Inactive)
REMARK    1  A    between atoms: C_1  and  N_2
REMARK    2  A    between atoms: N_2  and  C_3
REMARK    3  A    between atoms: N_2  and  C_4
REMARK    4  A    between atoms: C_4  and  C_5
REMARK    5  A    between atoms: C_5  and  C_6
REMARK    6  A    between atoms: C_6  and  N_7
REMARK    7  A    between atoms: C_14  and  C_27
REMARK                            x       y       z     vdW  Elec       q    Type
REMARK                         _______ _______ _______ _____ _____    ______ ____
ROOT
ATOM      1  N   UNL     1      -2.777  -4.025  -0.239  0.00  0.00    -0.318 N 
ATOM      2  C   UNL     1      -2.810  -4.606  -1.465  0.00  0.00    +0.204 A 
ATOM      3  N   UNL     1      -2.795  -5.900  -1.607  0.00  0.00    -0.202 NA
ATOM      4  C   UNL     1      -2.748  -6.734  -0.552  0.00  0.00    +0.229 A 
ATOM      5  C   UNL     1      -2.713  -6.227   0.712  0.00  0.00    +0.066 A 
ATOM      6  C   UNL     1      -2.722  -4.824   0.887  0.00  0.00    +0.115 A 
ATOM      7  N   UNL     1      -2.682  -4.293   2.091  0.00  0.00    -0.384 N 
ATOM      8  C   UNL     1      -2.662  -7.131   1.910  0.00  0.00    +0.091 C 
ATOM      9  C   UNL     1      -2.229  -8.517   1.507  0.00  0.00    +0.008 A 
ATOM     10  C   UNL     1      -1.769  -9.394   2.491  0.00  0.00    +0.009 A 
ATOM     11  C   UNL     1      -1.367 -10.656   2.183  0.00  0.00    +0.009 A 
ATOM     12  C   UNL     1      -1.412 -11.094   0.848  0.00  0.00    -0.014 A 
ATOM     13  C   UNL     1      -1.006 -12.391   0.492  0.00  0.00    +0.008 A 
ATOM     14  C   UNL     1      -1.062 -12.779  -0.812  0.00  0.00    +0.001 A 
ATOM     15  C   UNL     1      -1.516 -11.907  -1.800  0.00  0.00    +0.001 A 
ATOM     16  C   UNL     1      -1.917 -10.644  -1.491  0.00  0.00    +0.012 A 
ATOM     17  C   UNL     1      -1.875 -10.210  -0.156  0.00  0.00    +0.025 A 
ATOM     18  C   UNL     1      -2.287  -8.906   0.201  0.00  0.00    +0.142 A 
ATOM     19  O   UNL     1      -2.735  -8.068  -0.762  0.00  0.00    -0.437 OA
ATOM     20  H   UNL     1      -2.692  -3.329   2.196  0.00  0.00    +0.157 HD
ATOM     21  H   UNL     1      -2.643  -4.866   2.873  0.00  0.00    +0.157 HD
ENDROOT
BRANCH   8  22
ATOM     22  C   UNL     1      -4.030  -7.203   2.538  0.00  0.00    -0.035 A 
ATOM     23  C   UNL     1      -5.102  -7.682   1.807  0.00  0.00    +0.004 A 
ATOM     24  C   UNL     1      -6.357  -7.749   2.383  0.00  0.00    +0.000 A 
ATOM     25  C   UNL     1      -6.540  -7.337   3.690  0.00  0.00    +0.000 A 
ATOM     26  C   UNL     1      -5.469  -6.859   4.421  0.00  0.00    +0.000 A 
ATOM     27  C   UNL     1      -4.213  -6.797   3.847  0.00  0.00    +0.004 A 
ENDBRANCH   8  22
BRANCH   1  28
ATOM     28  C   UNL     1      -2.794  -2.566  -0.111  0.00  0.00    +0.123 C 
BRANCH  28  29
ATOM     29  C   UNL     1      -1.358  -2.037  -0.122  0.00  0.00    +0.003 C 
BRANCH  29  30
ATOM     30  C   UNL     1      -1.376  -0.512   0.012  0.00  0.00    -0.078 C 
BRANCH  30  32
ATOM     31  C   UNL     1      -0.018   1.465   0.010  0.00  0.00    -0.097 C 
ATOM     32  N   UNL     1       0.002  -0.004   0.002  0.00  0.00    +0.376 N 
ATOM     33  C   UNL     1       0.713  -0.491   1.192  0.00  0.00    -0.097 C 
ATOM     34  H   UNL     1       0.474  -0.330  -0.828  0.00  0.00    -0.083 HD
ENDBRANCH  30  32
ENDBRANCH  29  30
ENDBRANCH  28  29
ENDBRANCH   1  28
TORSDOF 5
