REMARK  Name = ZINC39431128
REMARK  7 active torsions:
REMARK  status: ('A' for Active; 'I' for Inactive)
REMARK    1  A    between atoms: C_1  and  C_2
REMARK    2  A    between atoms: C_2  and  C_4
REMARK    3  A    between atoms: C_2  and  S_16
REMARK    4  A    between atoms: S_16  and  C_17
REMARK    5  A    between atoms: C_21  and  C_31
REMARK    6  A    between atoms: N_23  and  C_24
REMARK    7  A    between atoms: C_24  and  C_25
REMARK                            x       y       z     vdW  Elec       q    Type
REMARK                         _______ _______ _______ _____ _____    ______ ____
ROOT
ATOM      1  C   UNL     1      -2.452  -0.013  -1.523  0.00  0.00    +0.257 C 
ATOM      2  N   UNL     1      -1.572  -0.551  -2.569  0.00  0.00    -0.184 NA
ATOM      3  N   UNL     1      -1.324   0.302  -3.426  0.00  0.00    -0.289 N 
ATOM      4  C   UNL     1      -1.989   1.575  -3.118  0.00  0.00    +0.203 C 
ATOM      5  N   UNL     1      -2.384   1.461  -1.690  0.00  0.00    -0.242 NA
ATOM      6  H   UNL     1      -0.761   0.152  -4.202  0.00  0.00    +0.184 HD
ENDROOT
BRANCH   4   7
ATOM      7  C   UNL     1      -1.036   2.726  -3.312  0.00  0.00    +0.009 A 
ATOM      8  C   UNL     1       0.326   2.524  -3.192  0.00  0.00    +0.008 A 
ATOM      9  C   UNL     1       1.200   3.580  -3.370  0.00  0.00    +0.000 A 
ATOM     10  C   UNL     1       0.712   4.838  -3.669  0.00  0.00    +0.001 A 
ATOM     11  C   UNL     1      -0.649   5.042  -3.790  0.00  0.00    +0.020 A 
ATOM     12  C   UNL     1      -1.524   3.984  -3.617  0.00  0.00    +0.047 A 
ATOM     13 CL   UNL     1      -3.235   4.237  -3.775  0.00  0.00    -0.083 Cl
ENDBRANCH   4   7
BRANCH   1  14
ATOM     14  S   UNL     1      -1.848  -0.492   0.119  0.00  0.00    -0.106 S 
BRANCH  14  16
ATOM     15  C   UNL     1      -0.185   1.680   0.108  0.00  0.00    +0.027 C 
ATOM     16  C   UNL     1      -0.152   0.152   0.167  0.00  0.00    +0.112 C 
BRANCH  16  17
ATOM     17  C   UNL     1       0.515  -0.287   1.445  0.00  0.00    +0.123 A 
ATOM     18  N   UNL     1       1.759   0.187   1.718  0.00  0.00    -0.309 N 
ATOM     19  H   UNL     1       2.190   0.792   1.095  0.00  0.00    +0.170 HD
ATOM     20  C   UNL     1       2.401  -0.177   2.853  0.00  0.00    +0.259 A 
ATOM     21  O   UNL     1       3.515   0.241   3.110  0.00  0.00    -0.267 OA
ATOM     22  C   UNL     1       1.700  -1.096   3.762  0.00  0.00    +0.065 A 
ATOM     23  C   UNL     1       2.273  -1.532   4.955  0.00  0.00    +0.015 A 
ATOM     24  C   UNL     1       1.572  -2.393   5.770  0.00  0.00    +0.001 A 
ATOM     25  C   UNL     1       0.303  -2.829   5.412  0.00  0.00    +0.002 A 
ATOM     26  C   UNL     1      -0.280  -2.410   4.237  0.00  0.00    +0.028 A 
ATOM     27  C   UNL     1       0.410  -1.537   3.394  0.00  0.00    +0.078 A 
ATOM     28  N   UNL     1      -0.130  -1.095   2.231  0.00  0.00    -0.233 NA
ENDBRANCH  16  17
ENDBRANCH  14  16
ENDBRANCH   1  14
BRANCH   5  29
ATOM     29  C   UNL     1      -3.696   2.078  -1.453  0.00  0.00    +0.124 C 
BRANCH  29  30
ATOM     30  C   UNL     1      -4.040   1.981   0.011  0.00  0.00    -0.033 A 
ATOM     31  C   UNL     1      -4.725   0.879   0.488  0.00  0.00    +0.005 A 
ATOM     32  C   UNL     1      -5.040   0.789   1.831  0.00  0.00    +0.000 A 
ATOM     33  C   UNL     1      -4.671   1.802   2.697  0.00  0.00    +0.000 A 
ATOM     34  C   UNL     1      -3.986   2.903   2.220  0.00  0.00    +0.000 A 
ATOM     35  C   UNL     1      -3.666   2.991   0.878  0.00  0.00    +0.005 A 
ENDBRANCH  29  30
ENDBRANCH   5  29
TORSDOF 6
