REMARK  Name = ZINC00424828
REMARK  5 active torsions:
REMARK  status: ('A' for Active; 'I' for Inactive)
REMARK    1  A    between atoms: C_1  and  C_2
REMARK    2  A    between atoms: C_2  and  C_3
REMARK    3  A    between atoms: C_6  and  N_9
REMARK    4  A    between atoms: C_16  and  C_25
REMARK    5  A    between atoms: C_21  and  C_24
REMARK                            x       y       z     vdW  Elec       q    Type
REMARK                         _______ _______ _______ _____ _____    ______ ____
ROOT
ATOM      1  N   UNL     1       2.115   5.514  -1.674  0.00  0.00    -0.244 N 
ATOM      2  C   UNL     1       0.869   5.417  -2.161  0.00  0.00    +0.141 C 
ATOM      3  S   UNL     1       0.648   5.345  -3.857  0.00  0.00    -0.018 S 
ATOM      4  N   UNL     1      -0.213   5.375  -1.365  0.00  0.00    -0.319 N 
ATOM      5  C   UNL     1      -0.044   5.359   0.097  0.00  0.00    +0.111 C 
ATOM      6  C   UNL     1       1.145   6.273   0.437  0.00  0.00    +0.096 C 
ATOM      7  C   UNL     1       2.380   5.668  -0.246  0.00  0.00    +0.183 C 
ATOM      8  O   UNL     1       2.665   4.409   0.356  0.00  0.00    -0.468 OA
ATOM      9  C   UNL     1       1.639   3.551   0.592  0.00  0.00    +0.128 A 
ATOM     10  C   UNL     1       0.317   3.946   0.495  0.00  0.00    +0.015 A 
ATOM     11  C   UNL     1      -0.699   3.043   0.756  0.00  0.00    +0.012 A 
ATOM     12  C   UNL     1      -0.397   1.740   1.105  0.00  0.00    -0.050 A 
ATOM     13  C   UNL     1       0.923   1.341   1.206  0.00  0.00    +0.007 A 
ATOM     14  C   UNL     1       1.938   2.240   0.950  0.00  0.00    +0.046 A 
ATOM     15  C   UNL     1      -1.506   0.758   1.381  0.00  0.00    +0.044 C 
ATOM     16  C   UNL     1       3.575   6.604  -0.056  0.00  0.00    +0.079 C 
ATOM     17  H   UNL     1      -1.102   5.356  -1.753  0.00  0.00    +0.148 HD
ENDROOT
BRANCH   1  21
ATOM     18  C   UNL     1       5.331   5.372  -4.319  0.00  0.00    -0.048 A 
ATOM     19  C   UNL     1       4.680   6.570  -4.088  0.00  0.00    +0.005 A 
ATOM     20  C   UNL     1       3.614   6.620  -3.212  0.00  0.00    +0.024 A 
ATOM     21  C   UNL     1       3.195   5.466  -2.562  0.00  0.00    +0.039 A 
ATOM     22  C   UNL     1       3.855   4.266  -2.792  0.00  0.00    +0.024 A 
ATOM     23  C   UNL     1       4.917   4.221  -3.673  0.00  0.00    +0.005 A 
BRANCH  18  25
ATOM     24  C   UNL     1       7.794   5.586  -4.513  0.00  0.00    +0.009 C 
ATOM     25  C   UNL     1       6.494   5.320  -5.275  0.00  0.00    +0.032 C 
ENDBRANCH  18  25
ENDBRANCH   1  21
TORSDOF 2
