REMARK  Name = ZINC33862831
REMARK  8 active torsions:
REMARK  status: ('A' for Active; 'I' for Inactive)
REMARK    1  A    between atoms: C_1  and  O_2
REMARK    2  A    between atoms: O_2  and  C_3
REMARK    3  A    between atoms: C_7  and  C_10
REMARK    4  A    between atoms: C_8  and  O_9
REMARK    5  A    between atoms: C_21  and  C_23
REMARK    6  A    between atoms: C_21  and  C_33
REMARK    7  A    between atoms: C_23  and  C_24
REMARK    8  A    between atoms: C_27  and  N_30
REMARK                            x       y       z     vdW  Elec       q    Type
REMARK                         _______ _______ _______ _____ _____    ______ ____
ROOT
ATOM      1  C   UNL     1       1.329  -4.110  -2.298  0.00  0.00    +0.101 C 
ATOM      2  C   UNL     1       0.026  -4.667  -2.862  0.00  0.00    +0.111 C 
ATOM      3  C   UNL     1       0.578  -6.087  -3.264  0.00  0.00    +0.120 C 
ATOM      4  C   UNL     1      -0.638  -6.847  -3.423  0.00  0.00    +0.225 C 
ATOM      5  O   UNL     1      -0.850  -7.747  -4.207  0.00  0.00    -0.275 OA
ATOM      6  N   UNL     1      -1.505  -6.328  -2.493  0.00  0.00    -0.256 N 
ATOM      7  C   UNL     1      -1.071  -5.132  -1.958  0.00  0.00    +0.225 C 
ATOM      8  O   UNL     1      -1.481  -4.574  -0.963  0.00  0.00    -0.275 OA
ATOM      9  C   UNL     1       1.817  -5.780  -3.990  0.00  0.00    +0.138 C 
ATOM     10  N   UNL     1       2.353  -4.546  -3.303  0.00  0.00    -0.293 NA
ATOM     11  H   UNL     1      -2.341  -6.751  -2.243  0.00  0.00    +0.157 HD
ATOM     12  H   UNL     1       2.532  -3.816  -3.976  0.00  0.00    +0.124 HD
ENDROOT
BRANCH   1  17
ATOM     13  C   UNL     1       0.857  -0.604  -0.950  0.00  0.00    +0.162 A 
ATOM     14  C   UNL     1       1.171   0.159  -2.062  0.00  0.00    +0.049 A 
ATOM     15  C   UNL     1       1.535  -0.459  -3.244  0.00  0.00    +0.004 A 
ATOM     16  C   UNL     1       1.586  -1.839  -3.319  0.00  0.00    +0.009 A 
ATOM     17  C   UNL     1       1.273  -2.606  -2.212  0.00  0.00    +0.015 A 
ATOM     18  C   UNL     1       0.914  -1.993  -1.023  0.00  0.00    +0.163 A 
BRANCH  13  20
ATOM     19  C   UNL     1       0.462   1.431   0.216  0.00  0.00    +0.277 C 
ATOM     20  O   UNL     1       0.499   0.003   0.214  0.00  0.00    -0.491 OA
ENDBRANCH  13  20
BRANCH  18  21
ATOM     21  O   UNL     1       0.611  -2.746   0.068  0.00  0.00    -0.503 OA
ATOM     22  H   UNL     1      -0.323  -2.985   0.134  0.00  0.00    +0.292 HD
ENDBRANCH  18  21
ENDBRANCH   1  17
BRANCH   9  23
ATOM     23  C   UNL     1       1.522  -5.516  -5.444  0.00  0.00    +0.377 C 
ATOM     24  O   UNL     1       1.804  -4.438  -5.938  0.00  0.00    -0.244 OA
ATOM     25  O   UNL     1       1.002  -6.382  -6.127  0.00  0.00    -0.244 OA
ENDBRANCH   9  23
BRANCH   9  26
ATOM     26  C   UNL     1       2.818  -6.928  -3.847  0.00  0.00    +0.069 C 
BRANCH  26  27
ATOM     27  C   UNL     1       4.122  -6.541  -4.494  0.00  0.00    -0.045 A 
ATOM     28  C   UNL     1       4.340  -6.818  -5.831  0.00  0.00    +0.006 A 
ATOM     29  C   UNL     1       5.537  -6.463  -6.425  0.00  0.00    +0.033 A 
ATOM     30  C   UNL     1       6.516  -5.831  -5.682  0.00  0.00    +0.126 A 
ATOM     31  C   UNL     1       6.298  -5.553  -4.345  0.00  0.00    +0.033 A 
ATOM     32  C   UNL     1       5.100  -5.904  -3.752  0.00  0.00    +0.006 A 
BRANCH  30  33
ATOM     33  N   UNL     1       7.798  -5.452  -6.317  0.00  0.00    +0.056 N 
ATOM     34  O   UNL     1       7.988  -5.695  -7.486  0.00  0.00    -0.126 OA
ATOM     35  O   UNL     1       8.654  -4.899  -5.668  0.00  0.00    -0.126 OA
ENDBRANCH  30  33
ENDBRANCH  26  27
ENDBRANCH   9  26
TORSDOF 7
