REMARK  Name = ZINC13495918
REMARK  11 active torsions:
REMARK  status: ('A' for Active; 'I' for Inactive)
REMARK    1  A    between atoms: C_1  and  C_2
REMARK    2  A    between atoms: C_2  and  C_3
REMARK    3  A    between atoms: C_3  and  C_5
REMARK    4  A    between atoms: C_3  and  N_72
REMARK    5  A    between atoms: N_9  and  C_10
REMARK    6  A    between atoms: C_15  and  C_16
REMARK    7  A    between atoms: C_15  and  N_72
REMARK    8  A    between atoms: C_16  and  C_17
REMARK    9  A    between atoms: C_22  and  C_23
REMARK   10  A    between atoms: C_24  and  C_25
REMARK   11  A    between atoms: C_24  and  N_72
REMARK                            x       y       z     vdW  Elec       q    Type
REMARK                         _______ _______ _______ _____ _____    ______ ____
ROOT
ATOM      1  N   UNL     1      -5.856   0.490   1.664  0.00  0.00    +0.389 N 
ATOM      2  H   UNL     1      -6.093   1.204   2.362  0.00  0.00    -0.080 HD
ENDROOT
BRANCH   1   3
ATOM      3  C   UNL     1      -7.105  -0.058   1.095  0.00  0.00    +0.003 C 
BRANCH   3   4
ATOM      4  C   UNL     1      -8.114   1.056   0.986  0.00  0.00    +0.138 A 
ATOM      5  N   UNL     1      -7.909   2.251   0.488  0.00  0.00    -0.115 NA
ATOM      6  N   UNL     1      -9.012   2.912   0.573  0.00  0.00    -0.023 NA
ATOM      7  N   UNL     1      -9.915   2.170   1.112  0.00  0.00    -0.044 NA
ATOM      8  N   UNL     1      -9.401   1.016   1.377  0.00  0.00    -0.228 N 
BRANCH   8   9
ATOM      9  C   UNL     1     -10.089  -0.123   1.990  0.00  0.00    +0.111 C 
ATOM     10  C   UNL     1     -11.311  -0.524   1.137  0.00  0.00    +0.027 C 
ATOM     11  C   UNL     1     -12.384  -0.929   2.179  0.00  0.00    +0.002 C 
ATOM     12  C   UNL     1     -12.161   0.097   3.317  0.00  0.00    +0.002 C 
ATOM     13  C   UNL     1     -10.630   0.271   3.376  0.00  0.00    +0.027 C 
ENDBRANCH   8   9
ENDBRANCH   3   4
BRANCH   3  15
ATOM     14  C   UNL     1      -5.938  -1.873  -0.164  0.00  0.00    +0.002 C 
ATOM     15  C   UNL     1      -6.847  -0.649  -0.292  0.00  0.00    -0.011 C 
ENDBRANCH   3  15
ENDBRANCH   1   3
BRANCH   1  16
ATOM     16  C   UNL     1      -5.085  -0.587   2.321  0.00  0.00    -0.073 C 
BRANCH  16  17
ATOM     17  C   UNL     1      -5.771  -0.947   3.640  0.00  0.00    +0.017 C 
BRANCH  17  18
ATOM     18  C   UNL     1      -4.920  -1.936   4.394  0.00  0.00    -0.046 A 
ATOM     19  C   UNL     1      -5.171  -3.291   4.282  0.00  0.00    +0.004 A 
ATOM     20  C   UNL     1      -4.387  -4.199   4.970  0.00  0.00    +0.000 A 
ATOM     21  C   UNL     1      -3.360  -3.751   5.779  0.00  0.00    +0.000 A 
ATOM     22  C   UNL     1      -3.112  -2.396   5.896  0.00  0.00    +0.003 A 
ATOM     23  C   UNL     1      -3.892  -1.489   5.204  0.00  0.00    -0.047 A 
ATOM     24  C   UNL     1      -3.623  -0.012   5.331  0.00  0.00    +0.044 C 
ENDBRANCH  17  18
ENDBRANCH  16  17
ENDBRANCH   1  16
BRANCH   1  25
ATOM     25  C   UNL     1      -5.045   1.112   0.596  0.00  0.00    -0.037 C 
BRANCH  25  26
ATOM     26  C   UNL     1      -3.982   1.969   1.233  0.00  0.00    +0.001 A 
ATOM     27  C   UNL     1      -2.736   1.467   1.430  0.00  0.00    +0.017 A 
ATOM     28  C   UNL     1      -1.725   2.325   2.046  0.00  0.00    +0.002 A 
ATOM     29  C   UNL     1      -0.426   1.858   2.278  0.00  0.00    +0.059 A 
ATOM     30  C   UNL     1       0.504   2.688   2.865  0.00  0.00    +0.167 A 
ATOM     31  C   UNL     1       0.152   3.993   3.232  0.00  0.00    +0.168 A 
ATOM     32  C   UNL     1      -1.130   4.461   3.011  0.00  0.00    +0.075 A 
ATOM     33  C   UNL     1      -2.079   3.636   2.421  0.00  0.00    +0.053 A 
ATOM     34  N   UNL     1      -3.364   4.086   2.193  0.00  0.00    -0.322 N 
ATOM     35  H   UNL     1      -3.606   4.990   2.449  0.00  0.00    +0.169 HD
ATOM     36  C   UNL     1      -4.285   3.290   1.623  0.00  0.00    +0.251 A 
ATOM     37  O   UNL     1      -5.410   3.721   1.437  0.00  0.00    -0.268 OA
ATOM     38  O   UNL     1       1.244   4.595   3.785  0.00  0.00    -0.453 OA
ATOM     39  C   UNL     1       2.143   3.525   4.130  0.00  0.00    +0.466 C 
ATOM     40  O   UNL     1       1.814   2.483   3.191  0.00  0.00    -0.453 OA
ENDBRANCH  25  26
ENDBRANCH   1  25
TORSDOF 9
