REMARK  Name = ZINC31808581
REMARK  3 active torsions:
REMARK  status: ('A' for Active; 'I' for Inactive)
REMARK    1  A    between atoms: C_1  and  C_2
REMARK    2  A    between atoms: C_19  and  C_21
REMARK    3  A    between atoms: C_26  and  O_27
REMARK                            x       y       z     vdW  Elec       q    Type
REMARK                         _______ _______ _______ _____ _____    ______ ____
ROOT
ATOM      1  C   UNL     1      -0.018   1.503   0.010  0.00  0.00    +0.068 C 
ATOM      2  C   UNL     1       0.002  -0.004   0.002  0.00  0.00    +0.066 A 
ATOM      3  C   UNL     1       0.008  -0.811  -1.128  0.00  0.00    +0.027 A 
ATOM      4  C   UNL     1       0.030  -2.115  -0.711  0.00  0.00    +0.124 A 
ATOM      5  N   UNL     1       0.034  -2.116   0.635  0.00  0.00    -0.263 N 
ATOM      6  H   UNL     1       0.046  -2.899   1.207  0.00  0.00    +0.190 HD
ATOM      7  N   UNL     1       0.023  -0.778   1.061  0.00  0.00    -0.177 NA
ATOM      8  N   UNL     1       0.049  -3.174  -1.616  0.00  0.00    -0.286 N 
ATOM      9  C   UNL     1       0.331  -2.894  -2.936  0.00  0.00    +0.115 A 
ATOM     10  C   UNL     1       0.322  -1.625  -3.428  0.00  0.00    +0.067 A 
ATOM     11  C   UNL     1       0.630  -1.422  -4.788  0.00  0.00    +0.260 A 
ATOM     12  O   UNL     1       0.632  -0.295  -5.252  0.00  0.00    -0.267 OA
ATOM     13  N   UNL     1       0.923  -2.476  -5.572  0.00  0.00    -0.275 N 
ATOM     14  H   UNL     1       1.137  -2.334  -6.508  0.00  0.00    +0.173 HD
ATOM     15  C   UNL     1       0.921  -3.724  -5.069  0.00  0.00    +0.328 A 
ATOM     16  O   UNL     1       1.186  -4.663  -5.794  0.00  0.00    -0.247 OA
ATOM     17  N   UNL     1       0.631  -3.944  -3.776  0.00  0.00    -0.295 N 
ATOM     18  H   UNL     1       0.633  -4.851  -3.430  0.00  0.00    +0.172 HD
ATOM     19  C   UNL     1      -0.008  -0.422  -2.580  0.00  0.00    +0.096 C 
ATOM     20  H   UNL     1      -0.131  -4.082  -1.326  0.00  0.00    +0.155 HD
ENDROOT
BRANCH  19  21
ATOM     21  C   UNL     1      -1.376   0.091  -2.948  0.00  0.00    +0.008 A 
ATOM     22  C   UNL     1      -2.482  -0.725  -2.805  0.00  0.00    +0.028 A 
ATOM     23  C   UNL     1      -3.738  -0.255  -3.142  0.00  0.00    +0.041 A 
ATOM     24  C   UNL     1      -3.891   1.034  -3.624  0.00  0.00    +0.023 A 
ATOM     25  C   UNL     1      -2.788   1.852  -3.769  0.00  0.00    +0.047 A 
ATOM     26  C   UNL     1      -1.528   1.385  -3.425  0.00  0.00    +0.121 A 
ATOM     27 CL   UNL     1      -5.126  -1.282  -2.961  0.00  0.00    -0.084 Cl
BRANCH  26  28
ATOM     28  O   UNL     1      -0.442   2.191  -3.562  0.00  0.00    -0.506 OA
ATOM     29  H   UNL     1      -0.015   2.133  -4.427  0.00  0.00    +0.292 HD
ENDBRANCH  26  28
ENDBRANCH  19  21
TORSDOF 2
