REMARK  Name = ZINC21659026
REMARK  8 active torsions:
REMARK  status: ('A' for Active; 'I' for Inactive)
REMARK    1  A    between atoms: C_1  and  C_2
REMARK    2  A    between atoms: C_5  and  C_8
REMARK    3  A    between atoms: C_20  and  C_22
REMARK    4  A    between atoms: C_26  and  O_29
REMARK    5  A    between atoms: C_27  and  O_28
REMARK    6  A    between atoms: O_29  and  C_30
REMARK    7  A    between atoms: N_31  and  C_38
REMARK    8  A    between atoms: N_34  and  C_37
REMARK                            x       y       z     vdW  Elec       q    Type
REMARK                         _______ _______ _______ _____ _____    ______ ____
ROOT
ATOM      1  C   UNL     1       2.185  -3.399  -3.374  0.00  0.00    +0.069 A 
ATOM      2  C   UNL     1       0.822  -3.437  -3.532  0.00  0.00    +0.089 A 
ATOM      3  C   UNL     1       0.234  -2.942  -2.261  0.00  0.00    +0.082 A 
ATOM      4  C   UNL     1       1.251  -2.652  -1.462  0.00  0.00    +0.073 A 
ATOM      5  N   UNL     1       2.439  -2.940  -2.118  0.00  0.00    -0.306 N 
ATOM      6  C   UNL     1       3.680  -2.766  -1.488  0.00  0.00    +0.068 A 
ATOM      7  C   UNL     1       4.868  -2.851  -2.187  0.00  0.00    +0.028 A 
ATOM      8  C   UNL     1       6.069  -2.658  -1.528  0.00  0.00    +0.002 A 
ATOM      9  C   UNL     1       6.080  -2.387  -0.171  0.00  0.00    +0.002 A 
ATOM     10  C   UNL     1       4.896  -2.318   0.538  0.00  0.00    +0.025 A 
ATOM     11  C   UNL     1       3.688  -2.519  -0.111  0.00  0.00    +0.052 A 
ATOM     12  N   UNL     1       2.485  -2.507   0.606  0.00  0.00    -0.330 N 
ATOM     13  C   UNL     1       1.237  -2.095  -0.055  0.00  0.00    +0.154 C 
ATOM     14  N   UNL     1      -1.162  -2.875  -2.143  0.00  0.00    -0.294 N 
ATOM     15  C   UNL     1      -1.893  -3.269  -3.209  0.00  0.00    +0.332 A 
ATOM     16  O   UNL     1      -3.103  -3.211  -3.105  0.00  0.00    -0.246 OA
ATOM     17  N   UNL     1      -1.399  -3.717  -4.367  0.00  0.00    -0.263 N 
ATOM     18  C   UNL     1      -0.071  -3.836  -4.625  0.00  0.00    +0.266 A 
ATOM     19  O   UNL     1       0.350  -4.246  -5.691  0.00  0.00    -0.267 OA
ATOM     20  C   UNL     1      -2.344  -4.101  -5.418  0.00  0.00    +0.157 C 
ATOM     21  C   UNL     1      -1.801  -2.397  -0.914  0.00  0.00    +0.154 C 
ATOM     22  H   UNL     1       2.474  -2.805   1.665  0.00  0.00    +0.147 HD
ENDROOT
BRANCH   1  27
ATOM     23  C   UNL     1       6.106  -4.904  -7.304  0.00  0.00    +0.044 C 
ATOM     24  C   UNL     1       5.079  -4.509  -6.274  0.00  0.00    -0.050 A 
ATOM     25  C   UNL     1       5.059  -5.142  -5.044  0.00  0.00    +0.004 A 
ATOM     26  C   UNL     1       4.122  -4.786  -4.097  0.00  0.00    +0.010 A 
ATOM     27  C   UNL     1       3.191  -3.784  -4.382  0.00  0.00    -0.000 A 
ATOM     28  C   UNL     1       3.213  -3.154  -5.628  0.00  0.00    +0.010 A 
ATOM     29  C   UNL     1       4.160  -3.516  -6.564  0.00  0.00    +0.004 A 
ENDBRANCH   1  27
BRANCH  13  30
ATOM     30  C   UNL     1       1.157  -0.591  -0.102  0.00  0.00    +0.024 A 
ATOM     31  C   UNL     1       1.424   0.079  -1.281  0.00  0.00    +0.009 A 
ATOM     32  C   UNL     1       1.350   1.458  -1.328  0.00  0.00    +0.004 A 
ATOM     33  C   UNL     1       1.009   2.174  -0.195  0.00  0.00    +0.049 A 
ATOM     34  C   UNL     1       0.741   1.509   0.990  0.00  0.00    +0.162 A 
ATOM     35  C   UNL     1       0.815   0.120   1.037  0.00  0.00    +0.164 A 
BRANCH  35  36
ATOM     36  O   UNL     1       0.551  -0.538   2.198  0.00  0.00    -0.503 OA
ATOM     37  H   UNL     1       0.280   0.028   3.101  0.00  0.00    +0.292 HD
ENDBRANCH  35  36
BRANCH  34  38
ATOM     38  O   UNL     1       0.400   2.211   2.103  0.00  0.00    -0.491 OA
ATOM     39  C   UNL     1       0.344   3.634   1.981  0.00  0.00    +0.277 C 
ENDBRANCH  34  38
ENDBRANCH  13  30
TORSDOF 4
