REMARK  Name = ZINC39940958
REMARK  12 active torsions:
REMARK  status: ('A' for Active; 'I' for Inactive)
REMARK    1  A    between atoms: C_1  and  C_2
REMARK    2  A    between atoms: C_5  and  N_8
REMARK    3  A    between atoms: C_9  and  C_11
REMARK    4  A    between atoms: C_11  and  S_12
REMARK    5  A    between atoms: S_12  and  C_13
REMARK    6  A    between atoms: C_18  and  C_19
REMARK    7  A    between atoms: C_19  and  O_21
REMARK    8  A    between atoms: O_21  and  C_22
REMARK    9  A    between atoms: C_22  and  C_24
REMARK   10  A    between atoms: C_22  and  C_25
REMARK   11  A    between atoms: C_25  and  C_27
REMARK   12  A    between atoms: C_35  and  C_37
REMARK                            x       y       z     vdW  Elec       q    Type
REMARK                         _______ _______ _______ _____ _____    ______ ____
ROOT
ATOM      1  C   UNL     1       0.914  -8.842   2.634  0.00  0.00    +0.022 A 
ATOM      2  C   UNL     1       1.015  -9.444   1.384  0.00  0.00    +0.015 A 
ATOM      3  C   UNL     1       1.197 -10.807   1.286  0.00  0.00    +0.001 A 
ATOM      4  C   UNL     1       1.281 -11.589   2.428  0.00  0.00    +0.001 A 
ATOM      5  C   UNL     1       1.183 -11.012   3.675  0.00  0.00    +0.016 A 
ATOM      6  C   UNL     1       1.004  -9.631   3.793  0.00  0.00    +0.072 A 
ENDROOT
BRANCH   6   7
ATOM      7  C   UNL     1       0.905  -9.007   5.123  0.00  0.00    +0.341 C 
ATOM      8  O   UNL     1       0.745  -7.806   5.221  0.00  0.00    -0.245 OA
BRANCH   7   9
ATOM      9  O   UNL     1       0.991  -9.768   6.232  0.00  0.00    -0.450 OA
BRANCH   9  10
ATOM     10  C   UNL     1       0.886  -9.096   7.489  0.00  0.00    +0.244 C 
ATOM     11  C   UNL     1       2.279  -8.667   7.956  0.00  0.00    +0.061 C 
BRANCH  10  12
ATOM     12  C   UNL     1       0.280 -10.027   8.507  0.00  0.00    +0.202 C 
ATOM     13  O   UNL     1       0.298 -11.227   8.319  0.00  0.00    -0.288 OA
BRANCH  12  14
ATOM     14  C   UNL     1      -0.308  -9.505   9.678  0.00  0.00    +0.030 C 
ATOM     15  C   UNL     1      -0.348  -8.181  10.076  0.00  0.00    +0.007 A 
ATOM     16  C   UNL     1       0.145  -6.988   9.498  0.00  0.00    +0.010 A 
ATOM     17  C   UNL     1      -0.041  -5.802  10.120  0.00  0.00    +0.001 A 
ATOM     18  C   UNL     1      -0.718  -5.691  11.345  0.00  0.00    +0.002 A 
ATOM     19  C   UNL     1      -1.227  -6.769  11.980  0.00  0.00    +0.026 A 
ATOM     20  C   UNL     1      -1.069  -8.100  11.370  0.00  0.00    +0.043 A 
ATOM     21  N   UNL     1      -1.451  -9.284  11.755  0.00  0.00    -0.377 N 
ATOM     22  C   UNL     1      -1.034 -10.276  10.760  0.00  0.00    +0.111 C 
ATOM     23  C   UNL     1      -2.257 -10.983  10.172  0.00  0.00    +0.035 C 
ATOM     24  H   UNL     1      -1.939  -9.479  12.571  0.00  0.00    +0.160 HD
ENDBRANCH  12  14
ENDBRANCH  10  12
ENDBRANCH   9  10
ENDBRANCH   7   9
ENDBRANCH   6   7
BRANCH   1  25
ATOM     25  S   UNL     1       0.683  -7.100   2.763  0.00  0.00    -0.115 S 
BRANCH  25  26
ATOM     26  C   UNL     1       0.630  -6.536   1.040  0.00  0.00    +0.170 C 
BRANCH  26  28
ATOM     27  N   UNL     1       0.362  -4.398  -0.176  0.00  0.00    -0.285 N 
ATOM     28  C   UNL     1       0.433  -5.042   1.006  0.00  0.00    +0.227 C 
ATOM     29  O   UNL     1       0.338  -4.420   2.043  0.00  0.00    -0.275 OA
ATOM     30  H   UNL     1       0.365  -4.903  -1.004  0.00  0.00    +0.155 HD
BRANCH  27  35
ATOM     31  C   UNL     1       0.054   1.265  -0.307  0.00  0.00    +0.044 C 
ATOM     32  C   UNL     1       0.136  -0.239  -0.272  0.00  0.00    -0.050 A 
ATOM     33  C   UNL     1       0.868  -0.868   0.719  0.00  0.00    +0.005 A 
ATOM     34  C   UNL     1       0.945  -2.246   0.754  0.00  0.00    +0.023 A 
ATOM     35  C   UNL     1       0.286  -3.001  -0.208  0.00  0.00    +0.033 A 
ATOM     36  C   UNL     1      -0.448  -2.367  -1.202  0.00  0.00    +0.023 A 
ATOM     37  C   UNL     1      -0.525  -0.988  -1.228  0.00  0.00    +0.005 A 
ENDBRANCH  27  35
ENDBRANCH  26  28
ENDBRANCH  25  26
ENDBRANCH   1  25
TORSDOF 9
