REMARK  Name = ZINC36705481
REMARK  7 active torsions:
REMARK  status: ('A' for Active; 'I' for Inactive)
REMARK    1  A    between atoms: C_1  and  C_2
REMARK    2  A    between atoms: C_2  and  C_3
REMARK    3  A    between atoms: N_11  and  C_12
REMARK    4  A    between atoms: C_12  and  C_13
REMARK    5  A    between atoms: N_15  and  C_16
REMARK    6  A    between atoms: C_21  and  C_26
REMARK    7  A    between atoms: C_23  and  C_25
REMARK                            x       y       z     vdW  Elec       q    Type
REMARK                         _______ _______ _______ _____ _____    ______ ____
ROOT
ATOM      1  C   UNL     1      -1.726  -0.619  -2.488  0.00  0.00    +0.219 C 
ENDROOT
BRANCH   1  10
ATOM      2  C   UNL     1      -1.412  -0.526   0.013  0.00  0.00    +0.111 A 
ATOM      3  N   UNL     1      -2.103  -0.784   1.084  0.00  0.00    -0.232 NA
ATOM      4  C   UNL     1      -3.334  -1.237   0.735  0.00  0.00    +0.089 A 
ATOM      5  C   UNL     1      -4.451  -1.652   1.465  0.00  0.00    +0.030 A 
ATOM      6  C   UNL     1      -5.577  -2.066   0.811  0.00  0.00    +0.002 A 
ATOM      7  C   UNL     1      -5.625  -2.079  -0.576  0.00  0.00    +0.002 A 
ATOM      8  C   UNL     1      -4.535  -1.675  -1.317  0.00  0.00    +0.028 A 
ATOM      9  C   UNL     1      -3.382  -1.250  -0.669  0.00  0.00    +0.069 A 
ATOM     10  N   UNL     1      -2.154  -0.789  -1.097  0.00  0.00    -0.319 N 
BRANCH   2  12
ATOM     11  C   UNL     1      -0.019   1.526   0.010  0.00  0.00    +0.012 C 
ATOM     12  C   UNL     1       0.002  -0.004   0.002  0.00  0.00    +0.071 C 
ENDBRANCH   2  12
ENDBRANCH   1  10
BRANCH   1  13
ATOM     13  C   UNL     1      -1.088  -1.893  -2.977  0.00  0.00    +0.233 C 
ATOM     14  O   UNL     1      -0.998  -2.850  -2.236  0.00  0.00    -0.274 OA
ATOM     15  N   UNL     1      -0.616  -1.970  -4.237  0.00  0.00    -0.311 N 
ATOM     16  H   UNL     1      -0.687  -1.205  -4.829  0.00  0.00    +0.149 HD
BRANCH  15  17
ATOM     17  C   UNL     1       0.005  -3.209  -4.712  0.00  0.00    +0.076 C 
ATOM     18  C   UNL     1       1.482  -3.224  -4.315  0.00  0.00    +0.022 C 
ATOM     19  C   UNL     1       2.131  -4.518  -4.811  0.00  0.00    +0.002 C 
ATOM     20  C   UNL     1       2.012  -4.596  -6.335  0.00  0.00    +0.003 C 
ATOM     21  C   UNL     1       0.534  -4.581  -6.732  0.00  0.00    -0.009 C 
ATOM     22  C   UNL     1      -0.114  -3.287  -6.236  0.00  0.00    +0.009 C 
ATOM     23  C   UNL     1       0.596  -2.087  -6.865  0.00  0.00    +0.009 C 
ATOM     24  C   UNL     1       0.416  -4.659  -8.256  0.00  0.00    +0.008 C 
ENDBRANCH  15  17
ENDBRANCH   1  13
TORSDOF 4
