REMARK  Name = ZINC22880496
REMARK  5 active torsions:
REMARK  status: ('A' for Active; 'I' for Inactive)
REMARK    1  A    between atoms: C_1  and  C_2
REMARK    2  A    between atoms: C_3  and  C_18
REMARK    3  A    between atoms: N_7  and  C_8
REMARK    4  A    between atoms: C_8  and  C_10
REMARK    5  A    between atoms: C_18  and  C_19
REMARK                            x       y       z     vdW  Elec       q    Type
REMARK                         _______ _______ _______ _____ _____    ______ ____
ROOT
ATOM      1  C   UNL     1       3.612   4.251   1.750  0.00  0.00    +0.064 C 
ATOM      2  C   UNL     1       2.194   4.393   2.240  0.00  0.00    +0.025 A 
ATOM      3  C   UNL     1       1.148   4.090   1.433  0.00  0.00    +0.016 A 
ATOM      4  S   UNL     1      -0.225   4.449   2.520  0.00  0.00    -0.057 S 
ATOM      5  C   UNL     1       0.705   4.940   3.902  0.00  0.00    +0.164 A 
ATOM      6  N   UNL     1       1.942   4.813   3.465  0.00  0.00    -0.339 N 
ATOM      7  N   UNL     1       0.259   5.364   5.148  0.00  0.00    -0.152 NA
ATOM      8  H   UNL     1       2.772   5.066   4.141  0.00  0.00    +0.167 HD
ENDROOT
BRANCH   7   9
ATOM      9  C   UNL     1       1.147   5.714   6.099  0.00  0.00    +0.272 C 
ATOM     10  O   UNL     1       2.339   5.657   5.867  0.00  0.00    -0.268 OA
BRANCH   9  11
ATOM     11  C   UNL     1       0.673   6.165   7.422  0.00  0.00    +0.074 A 
ATOM     12  C   UNL     1      -0.696   6.231   7.692  0.00  0.00    +0.017 A 
ATOM     13  C   UNL     1      -1.132   6.652   8.929  0.00  0.00    +0.016 A 
ATOM     14  C   UNL     1      -0.217   7.011   9.906  0.00  0.00    +0.021 A 
ATOM     15  C   UNL     1       1.140   6.949   9.648  0.00  0.00    +0.054 A 
ATOM     16  C   UNL     1       1.593   6.522   8.413  0.00  0.00    +0.137 A 
ATOM     17  F   UNL     1       2.919   6.456   8.164  0.00  0.00    -0.205 F 
ATOM     18 BR   UNL     1      -0.827   7.587  11.601  0.00  0.00    -0.050 Br
ENDBRANCH   9  11
ENDBRANCH   7   9
BRANCH   3  19
ATOM     19  C   UNL     1       1.143   3.595   0.010  0.00  0.00    +0.079 C 
BRANCH  19  20
ATOM     20  C   UNL     1       1.169   2.089   0.002  0.00  0.00    -0.039 A 
ATOM     21  C   UNL     1      -0.017   1.378   0.010  0.00  0.00    +0.008 A 
ATOM     22  C   UNL     1       0.002  -0.004   0.002  0.00  0.00    +0.050 A 
ATOM     23  C   UNL     1       1.211  -0.681  -0.013  0.00  0.00    +0.166 A 
ATOM     24  C   UNL     1       2.405   0.035  -0.021  0.00  0.00    +0.166 A 
ATOM     25  C   UNL     1       2.379   1.420  -0.012  0.00  0.00    +0.053 A 
ATOM     26  O   UNL     1       3.444  -0.851  -0.036  0.00  0.00    -0.453 OA
ATOM     27  C   UNL     1       2.873  -2.106  -0.450  0.00  0.00    +0.466 C 
ATOM     28  O   UNL     1       1.501  -2.015  -0.024  0.00  0.00    -0.453 OA
ENDBRANCH  19  20
ENDBRANCH   3  19
TORSDOF 4
