REMARK  Name = ZINC06894534
REMARK  2 active torsions:
REMARK  status: ('A' for Active; 'I' for Inactive)
REMARK    1  A    between atoms: C_8  and  C_16
REMARK    2  A    between atoms: N_18  and  C_19
REMARK                            x       y       z     vdW  Elec       q    Type
REMARK                         _______ _______ _______ _____ _____    ______ ____
ROOT
ATOM      1  C   UNL     1       4.568   8.577   2.816  0.00  0.00    +0.000 A 
ATOM      2  C   UNL     1       5.616   7.884   3.393  0.00  0.00    +0.002 A 
ATOM      3  C   UNL     1       6.063   6.705   2.834  0.00  0.00    +0.023 A 
ATOM      4  C   UNL     1       5.461   6.203   1.682  0.00  0.00    +0.036 A 
ATOM      5  C   UNL     1       4.409   6.909   1.110  0.00  0.00    -0.027 A 
ATOM      6  C   UNL     1       3.965   8.086   1.672  0.00  0.00    +0.004 A 
ATOM      7  C   UNL     1       3.988   6.119  -0.099  0.00  0.00    +0.052 C 
ATOM      8  C   UNL     1       2.523   5.678   0.013  0.00  0.00    +0.076 C 
ATOM      9  C   UNL     1       1.833   6.273  -1.239  0.00  0.00    -0.003 C 
ATOM     10  C   UNL     1       3.017   6.463  -2.223  0.00  0.00    -0.066 C 
ATOM     11  C   UNL     1       3.867   8.341  -1.040  0.00  0.00    -0.077 C 
ATOM     12  C   UNL     1       2.966   8.888  -2.160  0.00  0.00    -0.020 C 
ATOM     13  C   UNL     1       2.730   7.693  -3.110  0.00  0.00    -0.017 C 
ATOM     14  C   UNL     1       4.909   4.927  -0.120  0.00  0.00    +0.212 C 
ATOM     15  O   UNL     1       4.912   4.030  -0.936  0.00  0.00    -0.277 OA
ATOM     16  N   UNL     1       5.729   5.051   0.941  0.00  0.00    -0.286 N 
ATOM     17  H   UNL     1       6.425   4.413   1.164  0.00  0.00    +0.155 HD
ATOM     18  N   UNL     1       4.080   6.905  -1.330  0.00  0.00    +0.394 N 
ATOM     19  H   UNL     1       4.999   6.768  -1.768  0.00  0.00    -0.079 HD
ENDROOT
BRANCH   8  20
ATOM     20  C   UNL     1       2.425   4.174   0.003  0.00  0.00    +0.220 C 
ATOM     21  O   UNL     1       2.379   3.577  -1.052  0.00  0.00    -0.275 OA
ATOM     22  N   UNL     1       2.389   3.493   1.165  0.00  0.00    -0.284 N 
ATOM     23  H   UNL     1       2.365   3.972   2.008  0.00  0.00    +0.155 HD
BRANCH  22  24
ATOM     24  C   UNL     1       2.387   2.093   1.156  0.00  0.00    +0.052 A 
ATOM     25  C   UNL     1       1.735   1.405   0.141  0.00  0.00    +0.025 A 
ATOM     26  C   UNL     1       1.734   0.024   0.135  0.00  0.00    +0.002 A 
ATOM     27  C   UNL     1       2.382  -0.674   1.138  0.00  0.00    +0.002 A 
ATOM     28  C   UNL     1       3.033   0.007   2.150  0.00  0.00    +0.022 A 
ATOM     29  C   UNL     1       3.038   1.389   2.162  0.00  0.00    +0.062 A 
ATOM     30 CL   UNL     1       3.849   2.244   3.436  0.00  0.00    -0.082 Cl
ENDBRANCH  22  24
ENDBRANCH   8  20
TORSDOF 2
