REMARK  Name = ZINC15733634
REMARK  9 active torsions:
REMARK  status: ('A' for Active; 'I' for Inactive)
REMARK    1  A    between atoms: C_4  and  C_7
REMARK    2  A    between atoms: C_10  and  C_12
REMARK    3  A    between atoms: C_12  and  C_14
REMARK    4  A    between atoms: C_12  and  N_21
REMARK    5  A    between atoms: N_21  and  C_22
REMARK    6  A    between atoms: C_22  and  C_23
REMARK    7  A    between atoms: C_23  and  C_24
REMARK    8  A    between atoms: C_24  and  N_25
REMARK    9  A    between atoms: N_28  and  C_31
REMARK                            x       y       z     vdW  Elec       q    Type
REMARK                         _______ _______ _______ _____ _____    ______ ____
ROOT
ATOM      1  C   UNL     1       5.881  -3.575  -0.080  0.00  0.00    +0.049 C 
ENDROOT
BRANCH   1   2
ATOM      2  C   UNL     1       6.447  -3.867   1.286  0.00  0.00    -0.052 A 
ATOM      3  C   UNL     1       7.641  -3.292   1.677  0.00  0.00    +0.005 A 
ATOM      4  C   UNL     1       8.161  -3.559   2.929  0.00  0.00    +0.038 A 
ATOM      5  C   UNL     1       7.484  -4.403   3.793  0.00  0.00    +0.123 A 
ATOM      6  C   UNL     1       6.287  -4.979   3.401  0.00  0.00    +0.038 A 
ATOM      7  C   UNL     1       5.767  -4.706   2.150  0.00  0.00    +0.005 A 
ATOM      8  F   UNL     1       7.990  -4.666   5.018  0.00  0.00    -0.205 F 
ENDBRANCH   1   2
BRANCH   1  12
ATOM      9  C   UNL     1       3.695  -0.685  -0.037  0.00  0.00    +0.248 A 
ATOM     10  N   UNL     1       4.889  -0.140  -0.040  0.00  0.00    -0.107 NA
ATOM     11  N   UNL     1       5.779  -1.068  -0.056  0.00  0.00    -0.113 NA
ATOM     12  C   UNL     1       5.194  -2.233  -0.062  0.00  0.00    +0.208 A 
ATOM     13  O   UNL     1       3.867  -2.022  -0.046  0.00  0.00    -0.422 OA
BRANCH   9  17
ATOM     14  C   UNL     1      -0.017   1.379   0.010  0.00  0.00    +0.000 A 
ATOM     15  C   UNL     1       1.168   2.093   0.002  0.00  0.00    +0.001 A 
ATOM     16  C   UNL     1       2.377   1.429  -0.013  0.00  0.00    +0.013 A 
ATOM     17  C   UNL     1       2.403   0.034  -0.021  0.00  0.00    +0.038 A 
ATOM     18  C   UNL     1       1.204  -0.681  -0.013  0.00  0.00    +0.013 A 
ATOM     19  C   UNL     1       0.002  -0.004   0.002  0.00  0.00    +0.001 A 
ENDBRANCH   9  17
ENDBRANCH   1  12
BRANCH   1  20
ATOM     20  N   UNL     1       6.970  -3.554  -1.066  0.00  0.00    +0.389 N 
ATOM     21  H   UNL     1       6.604  -3.278  -1.965  0.00  0.00    -0.084 HD
ATOM     22  H   UNL     1       7.676  -2.896  -0.774  0.00  0.00    -0.084 HD
BRANCH  20  23
ATOM     23  C   UNL     1       7.562  -4.894  -1.170  0.00  0.00    -0.080 C 
BRANCH  23  24
ATOM     24  C   UNL     1       8.695  -4.873  -2.197  0.00  0.00    -0.004 C 
BRANCH  24  25
ATOM     25  C   UNL     1       9.312  -6.269  -2.305  0.00  0.00    +0.082 C 
BRANCH  25  26
ATOM     26  N   UNL     1      10.400  -6.249  -3.291  0.00  0.00    -0.299 NA
ATOM     27  C   UNL     1       9.883  -5.982  -4.640  0.00  0.00    +0.103 C 
ATOM     28  C   UNL     1      11.058  -5.790  -5.605  0.00  0.00    +0.120 C 
ATOM     29  N   UNL     1      11.946  -6.957  -5.499  0.00  0.00    -0.325 N 
ATOM     30  C   UNL     1      12.397  -7.370  -4.161  0.00  0.00    +0.120 C 
ATOM     31  C   UNL     1      11.169  -7.500  -3.253  0.00  0.00    +0.103 C 
BRANCH  29  32
ATOM     32  C   UNL     1      12.352  -7.657  -6.640  0.00  0.00    +0.065 A 
ATOM     33  C   UNL     1      13.514  -7.289  -7.304  0.00  0.00    +0.026 A 
ATOM     34  C   UNL     1      13.913  -7.982  -8.431  0.00  0.00    +0.002 A 
ATOM     35  C   UNL     1      13.156  -9.041  -8.899  0.00  0.00    +0.003 A 
ATOM     36  C   UNL     1      11.998  -9.410  -8.241  0.00  0.00    +0.040 A 
ATOM     37  C   UNL     1      11.596  -8.725  -7.109  0.00  0.00    +0.144 A 
ATOM     38  F   UNL     1      10.467  -9.090  -6.462  0.00  0.00    -0.204 F 
ENDBRANCH  29  32
ENDBRANCH  25  26
ENDBRANCH  24  25
ENDBRANCH  23  24
ENDBRANCH  20  23
ENDBRANCH   1  20
TORSDOF 9
