REMARK  Name = ZINC63614349
REMARK  8 active torsions:
REMARK  status: ('A' for Active; 'I' for Inactive)
REMARK    1  A    between atoms: C_1  and  C_2
REMARK    2  A    between atoms: C_6  and  N_8
REMARK    3  A    between atoms: C_9  and  C_11
REMARK    4  A    between atoms: C_11  and  N_17
REMARK    5  A    between atoms: N_17  and  C_18
REMARK    6  A    between atoms: C_18  and  C_19
REMARK    7  A    between atoms: C_24  and  C_26
REMARK    8  A    between atoms: C_26  and  C_27
REMARK                            x       y       z     vdW  Elec       q    Type
REMARK                         _______ _______ _______ _____ _____    ______ ____
ROOT
ATOM      1  N   UNL     1      -1.072  -4.017   4.843  0.00  0.00    -0.280 N 
ATOM      2  C   UNL     1      -0.845  -3.485   6.061  0.00  0.00    +0.219 C 
ATOM      3  O   UNL     1       0.258  -3.563   6.560  0.00  0.00    -0.275 OA
ENDROOT
BRANCH   1   4
ATOM      4  C   UNL     1      -0.023  -4.790   4.174  0.00  0.00    +0.114 C 
ATOM      5  C   UNL     1       1.107  -5.080   5.164  0.00  0.00    +0.035 C 
ATOM      6  C   UNL     1       0.557  -5.882   6.345  0.00  0.00    +0.003 C 
ATOM      7  C   UNL     1      -0.028  -7.202   5.837  0.00  0.00    +0.000 C 
ATOM      8  C   UNL     1      -1.158  -6.912   4.847  0.00  0.00    +0.003 C 
ATOM      9  C   UNL     1      -0.608  -6.110   3.666  0.00  0.00    +0.035 C 
BRANCH   4  11
ATOM     10  N   UNL     1       0.509  -2.653   3.048  0.00  0.00    -0.284 N 
ATOM     11  C   UNL     1       0.519  -4.000   3.010  0.00  0.00    +0.241 C 
ATOM     12  O   UNL     1       0.964  -4.577   2.041  0.00  0.00    -0.273 OA
ATOM     13  H   UNL     1       0.226  -2.192   3.853  0.00  0.00    +0.155 HD
BRANCH  10  19
ATOM     14  C   UNL     1       0.208   1.441   0.343  0.00  0.00    +0.044 C 
ATOM     15  C   UNL     1       0.777   0.068   0.589  0.00  0.00    -0.049 A 
ATOM     16  C   UNL     1       1.695  -0.468  -0.295  0.00  0.00    +0.003 A 
ATOM     17  C   UNL     1       2.220  -1.728  -0.072  0.00  0.00    +0.002 A 
ATOM     18  C   UNL     1       1.829  -2.454   1.035  0.00  0.00    +0.023 A 
ATOM     19  C   UNL     1       0.907  -1.919   1.925  0.00  0.00    +0.034 A 
ATOM     20  C   UNL     1       0.386  -0.651   1.701  0.00  0.00    +0.026 A 
ENDBRANCH  10  19
ENDBRANCH   4  11
ENDBRANCH   1   4
BRANCH   1  21
ATOM     21  C   UNL     1      -2.368  -3.821   4.189  0.00  0.00    +0.183 C 
BRANCH  21  22
ATOM     22  C   UNL     1      -3.335  -4.875   4.664  0.00  0.00    +0.122 A 
ATOM     23  C   UNL     1      -4.057  -4.826   5.798  0.00  0.00    +0.046 A 
ATOM     24  C   UNL     1      -4.824  -6.013   5.846  0.00  0.00    +0.041 A 
ATOM     25  C   UNL     1      -4.524  -6.716   4.739  0.00  0.00    +0.195 A 
ATOM     26  O   UNL     1      -3.626  -6.019   4.024  0.00  0.00    -0.466 OA
ENDBRANCH  21  22
ENDBRANCH   1  21
BRANCH   2  27
ATOM     27  C   UNL     1      -1.960  -2.794   6.801  0.00  0.00    +0.124 C 
BRANCH  27  28
ATOM     28  C   UNL     1      -1.440  -2.285   8.148  0.00  0.00    +0.112 C 
ATOM     29  C   UNL     1      -2.531  -1.533   8.877  0.00  0.00    +0.007 C 
ATOM     30  C   UNL     1      -2.740  -2.204  10.033  0.00  0.00    -0.004 A 
ATOM     31  C   UNL     1      -3.655  -1.984  11.159  0.00  0.00    +0.010 A 
ATOM     32  C   UNL     1      -3.633  -2.846  12.200  0.00  0.00    +0.001 A 
ATOM     33  C   UNL     1      -2.760  -3.942  12.232  0.00  0.00    +0.002 A 
ATOM     34  C   UNL     1      -1.890  -4.210  11.235  0.00  0.00    +0.026 A 
ATOM     35  C   UNL     1      -1.828  -3.369  10.090  0.00  0.00    +0.043 A 
ATOM     36  N   UNL     1      -1.082  -3.416   9.011  0.00  0.00    -0.377 N 
ATOM     37  H   UNL     1      -0.408  -4.086   8.817  0.00  0.00    +0.160 HD
ENDBRANCH  27  28
ENDBRANCH   2  27
TORSDOF 7
