REMARK  Name = ZINC66605208
REMARK  5 active torsions:
REMARK  status: ('A' for Active; 'I' for Inactive)
REMARK    1  A    between atoms: C_1  and  C_2
REMARK    2  A    between atoms: C_12  and  C_14
REMARK    3  A    between atoms: C_14  and  N_15
REMARK    4  A    between atoms: N_18  and  C_19
REMARK    5  A    between atoms: C_19  and  C_20
REMARK                            x       y       z     vdW  Elec       q    Type
REMARK                         _______ _______ _______ _____ _____    ______ ____
ROOT
ATOM      1  N   UNL     1       0.654  -0.482   4.855  0.00  0.00    -0.291 N 
ATOM      2  C   UNL     1       1.239  -0.886   6.000  0.00  0.00    +0.300 C 
ATOM      3  O   UNL     1       2.246  -1.567   5.961  0.00  0.00    -0.253 OA
ATOM      4  N   UNL     1       0.709  -0.536   7.189  0.00  0.00    -0.295 N 
ATOM      5  H   UNL     1      -0.149   0.061   4.887  0.00  0.00    +0.151 HD
ATOM      6  H   UNL     1      -0.095   0.007   7.220  0.00  0.00    +0.151 HD
ENDROOT
BRANCH   1   7
ATOM      7  C   UNL     1       1.231  -0.862   3.564  0.00  0.00    +0.202 C 
BRANCH   7  18
ATOM      8  C   UNL     1      -0.019   1.526   0.010  0.00  0.00    +0.029 C 
ATOM      9  C   UNL     1       0.002  -0.004   0.002  0.00  0.00    +0.083 C 
ATOM     10  C   UNL     1       0.778  -0.520  -1.221  0.00  0.00    +0.059 C 
ATOM     11  C   UNL     1       1.932  -1.304  -0.637  0.00  0.00    -0.024 A 
ATOM     12  C   UNL     1       2.960  -1.995  -1.249  0.00  0.00    +0.005 A 
ATOM     13  C   UNL     1       3.912  -2.643  -0.485  0.00  0.00    +0.000 A 
ATOM     14  C   UNL     1       3.833  -2.599   0.895  0.00  0.00    +0.002 A 
ATOM     15  C   UNL     1       2.809  -1.912   1.510  0.00  0.00    +0.024 A 
ATOM     16  C   UNL     1       1.844  -1.254   0.745  0.00  0.00    +0.040 A 
ATOM     17  N   UNL     1       0.735  -0.509   1.166  0.00  0.00    -0.267 N 
ATOM     18  C   UNL     1       0.393  -0.287   2.450  0.00  0.00    +0.237 C 
ATOM     19  O   UNL     1      -0.589   0.375   2.711  0.00  0.00    -0.274 OA
ENDBRANCH   7  18
ENDBRANCH   1   7
BRANCH   4  20
ATOM     20  C   UNL     1       1.345  -0.976   8.433  0.00  0.00    +0.141 C 
BRANCH  20  21
ATOM     21  C   UNL     1       0.561  -0.454   9.609  0.00  0.00    -0.030 A 
ATOM     22  C   UNL     1       0.868   0.779  10.153  0.00  0.00    +0.006 A 
ATOM     23  C   UNL     1       0.150   1.258  11.232  0.00  0.00    +0.020 A 
ATOM     24  C   UNL     1      -0.878   0.503  11.768  0.00  0.00    +0.041 A 
ATOM     25  C   UNL     1      -1.185  -0.732  11.224  0.00  0.00    +0.020 A 
ATOM     26  C   UNL     1      -0.470  -1.207  10.141  0.00  0.00    +0.006 A 
ATOM     27 CL   UNL     1      -1.781   1.103  13.124  0.00  0.00    -0.084 Cl
ENDBRANCH  20  21
ENDBRANCH   4  20
TORSDOF 4
