REMARK  Name = ZINC36578244
REMARK  15 active torsions:
REMARK  status: ('A' for Active; 'I' for Inactive)
REMARK    1  A    between atoms: C_1  and  C_2
REMARK    2  A    between atoms: C_2  and  C_3
REMARK    3  A    between atoms: C_3  and  N_4
REMARK    4  A    between atoms: N_4  and  C_5
REMARK    5  A    between atoms: C_5  and  C_7
REMARK    6  A    between atoms: C_5  and  C_16
REMARK    7  A    between atoms: C_8  and  O_15
REMARK    8  A    between atoms: C_10  and  O_14
REMARK    9  A    between atoms: C_12  and  O_13
REMARK   10  A    between atoms: N_18  and  C_19
REMARK   11  A    between atoms: C_19  and  S_20
REMARK   12  A    between atoms: S_20  and  C_23
REMARK   13  A    between atoms: C_26  and  C_29
REMARK   14  A    between atoms: C_30  and  C_32
REMARK   15  A    between atoms: C_32  and  C_33
REMARK                            x       y       z     vdW  Elec       q    Type
REMARK                         _______ _______ _______ _____ _____    ______ ____
ROOT
ATOM      1  C   UNL     1       1.856  -2.667   0.813  0.00  0.00    +0.199 C 
ENDROOT
BRANCH   1   2
ATOM      2  C   UNL     1       3.100  -2.567   1.658  0.00  0.00    +0.065 A 
ATOM      3  C   UNL     1       3.737  -3.720   2.091  0.00  0.00    +0.129 A 
ATOM      4  C   UNL     1       4.882  -3.628   2.869  0.00  0.00    +0.091 A 
ATOM      5  C   UNL     1       5.389  -2.384   3.213  0.00  0.00    +0.124 A 
ATOM      6  C   UNL     1       4.752  -1.232   2.779  0.00  0.00    +0.091 A 
ATOM      7  C   UNL     1       3.610  -1.323   1.997  0.00  0.00    +0.129 A 
BRANCH   7   8
ATOM      8  O   UNL     1       2.988  -0.194   1.568  0.00  0.00    -0.506 OA
ATOM      9  H   UNL     1       2.311   0.138   2.174  0.00  0.00    +0.292 HD
ENDBRANCH   7   8
BRANCH   5  10
ATOM     10  O   UNL     1       6.510  -2.294   3.976  0.00  0.00    -0.507 OA
ATOM     11  H   UNL     1       7.331  -2.269   3.466  0.00  0.00    +0.292 HD
ENDBRANCH   5  10
BRANCH   3  12
ATOM     12  O   UNL     1       3.241  -4.939   1.754  0.00  0.00    -0.506 OA
ATOM     13  H   UNL     1       3.650  -5.327   0.969  0.00  0.00    +0.292 HD
ENDBRANCH   3  12
ENDBRANCH   1   2
BRANCH   1  14
ATOM     14  C   UNL     1       2.201  -2.377  -0.625  0.00  0.00    +0.240 C 
ATOM     15  O   UNL     1       1.625  -1.492  -1.221  0.00  0.00    -0.273 OA
ATOM     16  N   UNL     1       3.151  -3.101  -1.249  0.00  0.00    -0.294 N 
ATOM     17  H   UNL     1       3.613  -3.809  -0.773  0.00  0.00    +0.150 HD
BRANCH  16  18
ATOM     18  C   UNL     1       3.487  -2.820  -2.647  0.00  0.00    +0.278 C 
BRANCH  18  19
ATOM     19  S   UNL     1       4.911  -1.698  -2.713  0.00  0.00    +0.013 S 
ATOM     20  O   UNL     1       5.289  -1.465  -4.063  0.00  0.00    -0.168 OA
ATOM     21  O   UNL     1       4.721  -0.612  -1.816  0.00  0.00    -0.168 OA
BRANCH  19  22
ATOM     22  C   UNL     1       6.246  -2.620  -2.025  0.00  0.00    +0.090 A 
ATOM     23  C   UNL     1       6.491  -2.573  -0.665  0.00  0.00    +0.027 A 
ATOM     24  C   UNL     1       7.538  -3.296  -0.126  0.00  0.00    +0.005 A 
ATOM     25  C   UNL     1       8.340  -4.067  -0.946  0.00  0.00    -0.050 A 
ATOM     26  C   UNL     1       8.095  -4.115  -2.305  0.00  0.00    +0.005 A 
ATOM     27  C   UNL     1       7.045  -3.395  -2.844  0.00  0.00    +0.027 A 
ATOM     28  C   UNL     1       9.482  -4.855  -0.358  0.00  0.00    +0.044 C 
ENDBRANCH  19  22
ENDBRANCH  18  19
ENDBRANCH  16  18
ENDBRANCH   1  14
BRANCH   1  29
ATOM     29  N   UNL     1       0.867  -1.694   1.283  0.00  0.00    -0.285 N 
ATOM     30  C   UNL     1       0.127  -1.960   2.377  0.00  0.00    +0.221 C 
ATOM     31  O   UNL     1       0.279  -3.006   2.972  0.00  0.00    -0.275 OA
BRANCH  29  32
ATOM     32  C   UNL     1       0.683  -0.431   0.564  0.00  0.00    +0.108 C 
BRANCH  32  34
ATOM     33  C   UNL     1      -0.545   0.674  -1.312  0.00  0.00    +0.005 C 
ATOM     34  C   UNL     1      -0.477  -0.571  -0.424  0.00  0.00    +0.016 C 
ENDBRANCH  32  34
ENDBRANCH  29  32
BRANCH  30  35
ATOM     35  C   UNL     1      -0.891  -0.959   2.861  0.00  0.00    +0.131 C 
BRANCH  35  36
ATOM     36  C   UNL     1      -1.578  -1.495   4.090  0.00  0.00    -0.039 A 
ATOM     37  C   UNL     1      -2.723  -2.260   3.965  0.00  0.00    +0.004 A 
ATOM     38  C   UNL     1      -3.352  -2.751   5.093  0.00  0.00    +0.000 A 
ATOM     39  C   UNL     1      -2.837  -2.479   6.346  0.00  0.00    +0.000 A 
ATOM     40  C   UNL     1      -1.692  -1.715   6.472  0.00  0.00    +0.000 A 
ATOM     41  C   UNL     1      -1.059  -1.227   5.343  0.00  0.00    +0.004 A 
ENDBRANCH  35  36
ENDBRANCH  30  35
ENDBRANCH   1  29
TORSDOF 13
