REMARK  Name = ZINC66254927
REMARK  8 active torsions:
REMARK  status: ('A' for Active; 'I' for Inactive)
REMARK    1  A    between atoms: C_1  and  C_2
REMARK    2  A    between atoms: C_2  and  C_3
REMARK    3  A    between atoms: C_2  and  C_4
REMARK    4  A    between atoms: C_4  and  C_5
REMARK    5  A    between atoms: C_7  and  N_11
REMARK    6  A    between atoms: N_8  and  C_10
REMARK    7  A    between atoms: N_11  and  S_12
REMARK    8  A    between atoms: S_12  and  C_15
REMARK                            x       y       z     vdW  Elec       q    Type
REMARK                         _______ _______ _______ _____ _____    ______ ____
ROOT
ATOM      1  N   UNL     1      -2.253  -5.285   0.849  0.00  0.00    -0.200 N 
ATOM      2  H   UNL     1      -2.024  -6.102   0.379  0.00  0.00    +0.175 HD
ENDROOT
BRANCH   1   5
ATOM      3  C   UNL     1      -1.814  -1.855  -0.094  0.00  0.00    +0.065 A 
ATOM      4  C   UNL     1      -2.314  -2.830   0.773  0.00  0.00    +0.069 A 
ATOM      5  C   UNL     1      -1.954  -4.049   0.282  0.00  0.00    +0.136 A 
ATOM      6  N   UNL     1      -1.253  -3.839  -0.855  0.00  0.00    -0.252 N 
ATOM      7  N   UNL     1      -1.185  -2.457  -1.071  0.00  0.00    -0.175 NA
ATOM      8  C   UNL     1      -0.671  -4.875  -1.712  0.00  0.00    +0.174 C 
BRANCH   3   9
ATOM      9  C   UNL     1      -1.978  -0.366   0.064  0.00  0.00    +0.060 C 
BRANCH   9  11
ATOM     10  C   UNL     1      -0.775   1.824   0.075  0.00  0.00    +0.007 C 
ATOM     11  C   UNL     1      -0.603   0.304   0.040  0.00  0.00    -0.011 C 
ATOM     12  C   UNL     1       0.205  -0.146   1.259  0.00  0.00    +0.007 C 
ENDBRANCH   9  11
ENDBRANCH   3   9
ENDBRANCH   1   5
BRANCH   1  13
ATOM     13  S   UNL     1      -3.001  -5.360   2.324  0.00  0.00    +0.075 S 
ATOM     14  O   UNL     1      -4.137  -4.511   2.248  0.00  0.00    -0.150 OA
ATOM     15  O   UNL     1      -3.100  -6.738   2.659  0.00  0.00    -0.150 OA
BRANCH  13  16
ATOM     16  C   UNL     1      -1.907  -4.634   3.500  0.00  0.00    +0.123 A 
ATOM     17  C   UNL     1      -2.277  -3.481   4.167  0.00  0.00    +0.033 A 
ATOM     18  C   UNL     1      -1.421  -2.910   5.089  0.00  0.00    +0.040 A 
ATOM     19  C   UNL     1      -0.192  -3.493   5.346  0.00  0.00    +0.125 A 
ATOM     20  C   UNL     1       0.179  -4.648   4.678  0.00  0.00    +0.055 A 
ATOM     21  C   UNL     1      -0.682  -5.220   3.759  0.00  0.00    +0.047 A 
ATOM     22 BR   UNL     1      -0.180  -6.802   2.851  0.00  0.00    -0.048 Br
ATOM     23  F   UNL     1       0.646  -2.936   6.247  0.00  0.00    -0.205 F 
ENDBRANCH  13  16
ENDBRANCH   1  13
TORSDOF 5
