REMARK  Name = ZINC00285893
REMARK  6 active torsions:
REMARK  status: ('A' for Active; 'I' for Inactive)
REMARK    1  A    between atoms: C_1  and  C_2
REMARK    2  A    between atoms: C_4  and  O_22
REMARK    3  A    between atoms: C_6  and  C_14
REMARK    4  A    between atoms: C_11  and  C_13
REMARK    5  A    between atoms: C_17  and  S_20
REMARK    6  A    between atoms: S_20  and  C_21
REMARK                            x       y       z     vdW  Elec       q    Type
REMARK                         _______ _______ _______ _____ _____    ______ ____
ROOT
ATOM      1  C   UNL     1      -3.705   2.760   3.011  0.00  0.00    +0.087 C 
ATOM      2  C   UNL     1      -2.338   2.308   2.565  0.00  0.00    +0.113 A 
ATOM      3  C   UNL     1      -1.211   2.328   3.320  0.00  0.00    +0.068 A 
ATOM      4  C   UNL     1      -1.097   2.788   4.705  0.00  0.00    +0.129 A 
ATOM      5  C   UNL     1       0.029   2.817   5.481  0.00  0.00    +0.054 A 
ATOM      6  C   UNL     1       1.342   2.426   5.175  0.00  0.00    -0.011 A 
ATOM      7  C   UNL     1       1.897   1.901   4.020  0.00  0.00    +0.060 A 
ATOM      8  C   UNL     1       1.279   1.605   2.793  0.00  0.00    +0.191 A 
ATOM      9  O   UNL     1       1.996   1.143   1.917  0.00  0.00    -0.287 OA
ATOM     10  C   UNL     1      -0.139   1.792   2.453  0.00  0.00    +0.073 A 
ATOM     11  C   UNL     1      -0.731   1.506   1.270  0.00  0.00    +0.114 A 
ATOM     12  O   UNL     1      -2.031   1.823   1.353  0.00  0.00    -0.464 OA
ATOM     13  C   UNL     1      -0.042   0.932   0.058  0.00  0.00    +0.087 C 
ENDROOT
BRANCH   6  14
ATOM     14  C   UNL     1       2.303   2.606   6.284  0.00  0.00    -0.018 A 
ATOM     15  C   UNL     1       3.326   1.675   6.481  0.00  0.00    +0.009 A 
ATOM     16  C   UNL     1       4.223   1.847   7.512  0.00  0.00    +0.015 A 
ATOM     17  C   UNL     1       4.104   2.942   8.364  0.00  0.00    +0.008 A 
ATOM     18  C   UNL     1       3.082   3.868   8.172  0.00  0.00    +0.015 A 
ATOM     19  C   UNL     1       2.186   3.703   7.140  0.00  0.00    +0.009 A 
BRANCH  17  20
ATOM     20  S   UNL     1       5.249   3.156   9.686  0.00  0.00    -0.129 S 
ATOM     21  C   UNL     1       6.366   1.735   9.533  0.00  0.00    +0.090 C 
ENDBRANCH  17  20
ENDBRANCH   6  14
BRANCH   4  22
ATOM     22  O   UNL     1      -2.235   3.237   5.284  0.00  0.00    -0.506 OA
ATOM     23  H   UNL     1      -2.389   4.185   5.165  0.00  0.00    +0.292 HD
ENDBRANCH   4  22
TORSDOF 3
