REMARK  Name = ZINC59832053
REMARK  8 active torsions:
REMARK  status: ('A' for Active; 'I' for Inactive)
REMARK    1  A    between atoms: C_2  and  C_3
REMARK    2  A    between atoms: C_3  and  N_4
REMARK    3  A    between atoms: C_6  and  C_9
REMARK    4  A    between atoms: N_10  and  N_11
REMARK    5  A    between atoms: C_14  and  S_17
REMARK    6  A    between atoms: S_17  and  C_18
REMARK    7  A    between atoms: C_18  and  C_19
REMARK    8  A    between atoms: N_21  and  C_22
REMARK                            x       y       z     vdW  Elec       q    Type
REMARK                         _______ _______ _______ _____ _____    ______ ____
ROOT
ATOM      1  C   UNL     1      -1.245  -7.553 -10.585  0.00  0.00    +0.173 C 
ENDROOT
BRANCH   1   2
ATOM      2  C   UNL     1      -1.040  -7.097 -12.006  0.00  0.00    +0.228 C 
ATOM      3  O   UNL     1      -0.843  -5.924 -12.244  0.00  0.00    -0.275 OA
ATOM      4  N   UNL     1      -1.077  -7.992 -13.013  0.00  0.00    -0.284 N 
ATOM      5  H   UNL     1      -1.168  -8.937 -12.818  0.00  0.00    +0.155 HD
BRANCH   4   6
ATOM      6  C   UNL     1      -0.985  -7.559 -14.332  0.00  0.00    +0.045 A 
ATOM      7  C   UNL     1      -0.181  -6.467 -14.657  0.00  0.00    +0.024 A 
ATOM      8  C   UNL     1      -0.087  -6.034 -15.963  0.00  0.00    +0.003 A 
ATOM      9  C   UNL     1      -0.789  -6.677 -16.972  0.00  0.00    +0.012 A 
ATOM     10  C   UNL     1      -1.596  -7.768 -16.671  0.00  0.00    +0.035 A 
ATOM     11  C   UNL     1      -1.693  -8.219 -15.340  0.00  0.00    +0.054 A 
ATOM     12  C   UNL     1      -2.544  -9.381 -15.022  0.00  0.00    +0.196 C 
ATOM     13  O   UNL     1      -2.842  -9.628 -13.870  0.00  0.00    -0.287 OA
ATOM     14  C   UNL     1      -3.032 -10.242 -16.122  0.00  0.00    +0.033 A 
ATOM     15  C   UNL     1      -3.587 -11.489 -15.853  0.00  0.00    +0.012 A 
ATOM     16  C   UNL     1      -4.038 -12.281 -16.895  0.00  0.00    +0.001 A 
ATOM     17  C   UNL     1      -3.941 -11.842 -18.203  0.00  0.00    +0.001 A 
ATOM     18  C   UNL     1      -3.391 -10.604 -18.488  0.00  0.00    +0.012 A 
ATOM     19  C   UNL     1      -2.933  -9.796 -17.453  0.00  0.00    +0.033 A 
ATOM     20  C   UNL     1      -2.350  -8.463 -17.736  0.00  0.00    +0.195 C 
ATOM     21  O   UNL     1      -2.477  -7.954 -18.832  0.00  0.00    -0.287 OA
ENDBRANCH   4   6
ENDBRANCH   1   2
BRANCH   1  22
ATOM     22  S   UNL     1      -1.139  -6.126  -9.470  0.00  0.00    -0.075 S 
BRANCH  22  26
ATOM     23  N   UNL     1      -1.699  -6.604  -4.381  0.00  0.00    -0.205 N 
ATOM     24  C   UNL     1      -1.623  -6.953  -5.716  0.00  0.00    +0.232 A 
ATOM     25  N   UNL     1      -1.403  -6.131  -6.720  0.00  0.00    -0.186 NA
ATOM     26  C   UNL     1      -1.395  -6.815  -7.869  0.00  0.00    +0.211 A 
ATOM     27  N   UNL     1      -1.610  -8.083  -7.611  0.00  0.00    -0.144 NA
ATOM     28  N   UNL     1      -1.755  -8.199  -6.219  0.00  0.00    -0.245 N 
ATOM     29  H   UNL     1      -1.861  -7.285  -3.709  0.00  0.00    +0.177 HD
ATOM     30  H   UNL     1      -1.920  -9.013  -5.718  0.00  0.00    +0.192 HD
BRANCH  23  32
ATOM     31  C   UNL     1      -1.613  -4.937  -2.744  0.00  0.00    +0.141 C 
ATOM     32  N   UNL     1      -1.542  -5.265  -3.997  0.00  0.00    -0.187 NA
BRANCH  31  35
ATOM     33  N   UNL     1      -1.300  -1.703  -1.124  0.00  0.00    -0.267 N 
ATOM     34  C   UNL     1      -1.499  -3.034  -1.054  0.00  0.00    +0.118 A 
ATOM     35  C   UNL     1      -1.448  -3.527  -2.340  0.00  0.00    +0.032 A 
ATOM     36  C   UNL     1      -1.209  -2.433  -3.198  0.00  0.00    +0.143 A 
ATOM     37  N   UNL     1      -1.127  -1.353  -2.468  0.00  0.00    -0.179 NA
BRANCH  33  38
ATOM     38  C   UNL     1      -1.275  -0.778   0.012  0.00  0.00    +0.170 C 
BRANCH  38  40
ATOM     39  C   UNL     1      -0.009   1.309   0.006  0.00  0.00    +0.006 C 
ATOM     40  C   UNL     1       0.016  -0.001  -0.001  0.00  0.00    -0.012 C 
ENDBRANCH  38  40
ENDBRANCH  33  38
ENDBRANCH  31  35
ENDBRANCH  23  32
ENDBRANCH  22  26
ENDBRANCH   1  22
TORSDOF 8
