REMARK  Name = ZINC12661580
REMARK  9 active torsions:
REMARK  status: ('A' for Active; 'I' for Inactive)
REMARK    1  A    between atoms: C_1  and  C_2
REMARK    2  A    between atoms: C_5  and  O_43
REMARK    3  A    between atoms: C_17  and  C_42
REMARK    4  A    between atoms: C_22  and  C_23
REMARK    5  A    between atoms: C_23  and  C_25
REMARK    6  A    between atoms: C_25  and  C_26
REMARK    7  A    between atoms: C_33  and  O_34
REMARK    8  A    between atoms: O_34  and  C_35
REMARK    9  A    between atoms: C_41  and  N_82
REMARK                            x       y       z     vdW  Elec       q    Type
REMARK                         _______ _______ _______ _____ _____    ______ ____
ROOT
ATOM      1  C   UNL     1       2.243   3.783   1.581  0.00  0.00    +0.016 C 
ATOM      2  C   UNL     1       3.118   3.285   0.429  0.00  0.00    -0.008 C 
ATOM      3  C   UNL     1       2.517   3.816  -0.875  0.00  0.00    +0.014 C 
ATOM      4  C   UNL     1       1.117   3.229  -1.065  0.00  0.00    +0.032 C 
ATOM      5  C   UNL     1       1.209   1.708  -1.198  0.00  0.00    +0.119 C 
ATOM      6  C   UNL     1       1.751   1.114   0.104  0.00  0.00    +0.062 C 
ATOM      7  C   UNL     1       3.077   1.785   0.422  0.00  0.00    -0.065 C 
ATOM      8  C   UNL     1       4.106   1.029   0.673  0.00  0.00    -0.027 C 
ATOM      9  C   UNL     1       5.468   1.576   0.993  0.00  0.00    +0.031 C 
ATOM     10  C   UNL     1       5.313   2.975   1.598  0.00  0.00    +0.001 C 
ATOM     11  C   UNL     1       4.520   3.838   0.622  0.00  0.00    +0.003 C 
ATOM     12  C   UNL     1       5.262   3.862  -0.720  0.00  0.00    +0.005 C 
ATOM     13  C   UNL     1       6.613   4.543  -0.505  0.00  0.00    +0.012 C 
ATOM     14  C   UNL     1       7.442   3.820   0.527  0.00  0.00    -0.001 C 
ATOM     15  C   UNL     1       6.698   3.573   1.854  0.00  0.00    +0.007 C 
ATOM     16  C   UNL     1       7.580   2.409   2.407  0.00  0.00    +0.032 C 
ATOM     17  C   UNL     1       7.968   1.646   1.153  0.00  0.00    -0.019 C 
ATOM     18  C   UNL     1       7.888   2.450   0.086  0.00  0.00    -0.003 C 
ATOM     19  C   UNL     1       8.692   4.652   0.820  0.00  0.00    +0.016 C 
ENDROOT
BRANCH  18  20
ATOM     20  C   UNL     1       8.186   2.061  -1.292  0.00  0.00    +0.158 C 
ATOM     21  O   UNL     1       8.042   2.860  -2.193  0.00  0.00    -0.292 OA
BRANCH  20  22
ATOM     22  C   UNL     1       8.672   0.666  -1.592  0.00  0.00    +0.069 C 
BRANCH  22  23
ATOM     23  C   UNL     1       8.784   0.480  -3.107  0.00  0.00    -0.027 C 
ATOM     24  C   UNL     1       7.461   0.810  -3.747  0.00  0.00    -0.012 A 
ATOM     25  C   UNL     1       7.379   1.543  -4.911  0.00  0.00    -0.040 A 
ATOM     26  C   UNL     1       6.140   1.819  -5.471  0.00  0.00    +0.053 A 
ATOM     27  C   UNL     1       4.979   1.365  -4.868  0.00  0.00    +0.170 A 
ATOM     28  C   UNL     1       5.057   0.627  -3.692  0.00  0.00    +0.208 A 
ATOM     29  C   UNL     1       6.298   0.352  -3.135  0.00  0.00    +0.167 A 
ATOM     30  O   UNL     1       3.791   0.299  -3.297  0.00  0.00    -0.449 OA
ATOM     31  C   UNL     1       2.964   0.492  -4.459  0.00  0.00    +0.467 C 
ATOM     32  O   UNL     1       3.665   1.500  -5.213  0.00  0.00    -0.452 OA
ATOM     33  C   UNL     1       8.611   2.064  -5.606  0.00  0.00    +0.017 C 
ATOM     34  C   UNL     1       9.849   1.325  -5.096  0.00  0.00    -0.074 C 
ATOM     35  C   UNL     1      11.150   0.981  -3.081  0.00  0.00    -0.095 C 
ATOM     36  N   UNL     1       9.831   1.379  -3.620  0.00  0.00    +0.383 N 
ATOM     37  H   UNL     1       9.624   2.339  -3.321  0.00  0.00    -0.081 HD
BRANCH  29  38
ATOM     38  O   UNL     1       6.378  -0.369  -1.984  0.00  0.00    -0.491 OA
ATOM     39  C   UNL     1       6.483  -1.788  -2.115  0.00  0.00    +0.277 C 
ENDBRANCH  29  38
ENDBRANCH  22  23
ENDBRANCH  20  22
ENDBRANCH  18  20
BRANCH   5  40
ATOM     40  O   UNL     1      -0.090   1.174  -1.461  0.00  0.00    -0.391 OA
ATOM     41  H   UNL     1      -0.108   0.212  -1.558  0.00  0.00    +0.210 HD
ENDBRANCH   5  40
TORSDOF 5
