REMARK  Name = ZINC20588883
REMARK  5 active torsions:
REMARK  status: ('A' for Active; 'I' for Inactive)
REMARK    1  A    between atoms: C_1  and  C_2
REMARK    2  A    between atoms: C_5  and  C_8
REMARK    3  A    between atoms: N_10  and  C_11
REMARK    4  A    between atoms: C_11  and  C_13
REMARK    5  A    between atoms: C_11  and  C_14
REMARK                            x       y       z     vdW  Elec       q    Type
REMARK                         _______ _______ _______ _____ _____    ______ ____
ROOT
ATOM      1  C   UNL     1      -0.541  -6.799   2.441  0.00  0.00    +0.236 C 
ATOM      2  O   UNL     1      -1.026  -5.955   3.165  0.00  0.00    -0.274 OA
ATOM      3  N   UNL     1      -0.571  -8.097   2.805  0.00  0.00    -0.300 N 
ATOM      4  C   UNL     1       0.111  -9.117   1.997  0.00  0.00    +0.110 C 
ATOM      5  C   UNL     1       1.057  -9.912   2.903  0.00  0.00    +0.047 C 
ATOM      6  C   UNL     1       0.272 -10.469   4.091  0.00  0.00    +0.064 C 
ATOM      7  C   UNL     1      -0.326  -9.319   4.902  0.00  0.00    +0.047 C 
ATOM      8  C   UNL     1      -1.281  -8.518   4.020  0.00  0.00    +0.110 C 
ATOM      9  C   UNL     1       1.185 -11.288   4.964  0.00  0.00    +0.057 A 
ATOM     10  C   UNL     1       0.849 -12.493   5.478  0.00  0.00    +0.039 A 
ATOM     11  N   UNL     1       1.881 -12.938   6.195  0.00  0.00    -0.349 N 
ATOM     12  C   UNL     1       2.846 -12.056   6.149  0.00  0.00    +0.171 A 
ATOM     13  N   UNL     1       2.446 -11.010   5.389  0.00  0.00    -0.348 N 
ATOM     14  H   UNL     1       2.961 -10.214   5.185  0.00  0.00    +0.166 HD
ATOM     15  C   UNL     1      -0.488 -13.147   5.234  0.00  0.00    +0.070 C 
ATOM     16  C   UNL     1      -1.448 -12.074   4.702  0.00  0.00    +0.088 C 
ATOM     17  N   UNL     1      -0.809 -11.340   3.601  0.00  0.00    -0.305 NA
ATOM     18  H   UNL     1      -1.490 -10.811   3.076  0.00  0.00    +0.123 HD
ATOM     19  H   UNL     1       1.912 -13.780   6.675  0.00  0.00    +0.166 HD
ENDROOT
BRANCH   1  20
ATOM     20  C   UNL     1       0.093  -6.397   1.134  0.00  0.00    +0.156 C 
ATOM     21  C   UNL     1       1.595  -6.187   1.340  0.00  0.00    +0.038 C 
BRANCH  20  24
ATOM     22  C   UNL     1      -0.506  -4.857  -0.656  0.00  0.00    +0.245 C 
ATOM     23  O   UNL     1       0.005  -5.625  -1.448  0.00  0.00    -0.270 OA
ATOM     24  N   UNL     1      -0.513  -5.152   0.659  0.00  0.00    -0.300 N 
ATOM     25  H   UNL     1      -0.921  -4.539   1.292  0.00  0.00    +0.150 HD
BRANCH  22  30
ATOM     26  C   UNL     1      -2.891   0.037  -2.521  0.00  0.00    +0.044 C 
ATOM     27  C   UNL     1      -2.266  -1.244  -2.033  0.00  0.00    -0.050 A 
ATOM     28  C   UNL     1      -1.685  -2.116  -2.937  0.00  0.00    +0.004 A 
ATOM     29  C   UNL     1      -1.112  -3.291  -2.496  0.00  0.00    +0.013 A 
ATOM     30  C   UNL     1      -1.118  -3.599  -1.135  0.00  0.00    +0.037 A 
ATOM     31  C   UNL     1      -1.706  -2.716  -0.228  0.00  0.00    +0.013 A 
ATOM     32  C   UNL     1      -2.271  -1.542  -0.681  0.00  0.00    +0.004 A 
ENDBRANCH  22  30
ENDBRANCH  20  24
ENDBRANCH   1  20
TORSDOF 3
