REMARK  Name = ZINC01439725
REMARK  3 active torsions:
REMARK  status: ('A' for Active; 'I' for Inactive)
REMARK    1  A    between atoms: C_3  and  N_8
REMARK    2  A    between atoms: C_9  and  C_11
REMARK    3  A    between atoms: C_12  and  N_24
REMARK                            x       y       z     vdW  Elec       q    Type
REMARK                         _______ _______ _______ _____ _____    ______ ____
ROOT
ATOM      1  C   UNL     1      -1.077   7.317  -0.160  0.00  0.00    +0.097 A 
ATOM      2  C   UNL     1      -2.130   8.200  -0.263  0.00  0.00    +0.053 A 
ATOM      3  C   UNL     1      -1.832   9.621  -0.351  0.00  0.00    +0.029 A 
ATOM      4  C   UNL     1      -2.727  10.711  -0.461  0.00  0.00    +0.017 A 
ATOM      5  C   UNL     1      -2.230  11.998  -0.539  0.00  0.00    -0.025 A 
ATOM      6  C   UNL     1      -0.865  12.215  -0.507  0.00  0.00    +0.046 A 
ATOM      7  N   UNL     1      -0.032  11.188  -0.406  0.00  0.00    -0.244 NA
ATOM      8  C   UNL     1      -0.457   9.949  -0.331  0.00  0.00    +0.111 A 
ATOM      9  S   UNL     1       0.355   8.376  -0.192  0.00  0.00    -0.062 S 
ATOM     10  C   UNL     1      -0.263  13.595  -0.574  0.00  0.00    +0.056 C 
ATOM     11  C   UNL     1      -1.280  14.598  -1.113  0.00  0.00    +0.006 C 
ATOM     12  C   UNL     1      -2.574  14.457  -0.305  0.00  0.00    +0.005 C 
ATOM     13  C   UNL     1      -3.225  13.123  -0.664  0.00  0.00    +0.037 C 
ENDROOT
BRANCH   1  15
ATOM     14  N   UNL     1       0.021   5.197   0.028  0.00  0.00    -0.279 N 
ATOM     15  C   UNL     1      -1.123   5.904  -0.059  0.00  0.00    +0.257 C 
ATOM     16  O   UNL     1      -2.196   5.328  -0.052  0.00  0.00    -0.269 OA
ATOM     17  H   UNL     1       0.873   5.658   0.085  0.00  0.00    +0.155 HD
BRANCH  14  20
ATOM     18  C   UNL     1      -1.074   1.741   0.622  0.00  0.00    +0.022 A 
ATOM     19  C   UNL     1      -1.076   3.127   0.644  0.00  0.00    +0.028 A 
ATOM     20  C   UNL     1      -0.019   3.799   0.037  0.00  0.00    +0.071 A 
ATOM     21  C   UNL     1       0.996   3.060  -0.561  0.00  0.00    +0.150 A 
ATOM     22  N   UNL     1       0.961   1.742  -0.554  0.00  0.00    -0.242 NA
ATOM     23  C   UNL     1      -0.027   1.076   0.013  0.00  0.00    +0.112 A 
ATOM     24 CL   UNL     1       2.323   3.880  -1.322  0.00  0.00    -0.060 Cl
ENDBRANCH  14  20
ENDBRANCH   1  15
BRANCH   2  25
ATOM     25  N   UNL     1      -3.441   7.745  -0.278  0.00  0.00    -0.356 N 
ATOM     26  H   UNL     1      -3.626   6.795  -0.215  0.00  0.00    +0.142 HD
ATOM     27  H   UNL     1      -4.173   8.378  -0.351  0.00  0.00    +0.142 HD
ENDBRANCH   2  25
TORSDOF 3
