REMARK  Name = ZINC39639305
REMARK  9 active torsions:
REMARK  status: ('A' for Active; 'I' for Inactive)
REMARK    1  A    between atoms: C_1  and  C_2
REMARK    2  A    between atoms: C_5  and  C_8
REMARK    3  A    between atoms: C_8  and  C_10
REMARK    4  A    between atoms: C_8  and  N_11
REMARK    5  A    between atoms: C_12  and  C_14
REMARK    6  A    between atoms: C_25  and  C_27
REMARK    7  A    between atoms: C_27  and  C_29
REMARK    8  A    between atoms: C_27  and  O_30
REMARK    9  A    between atoms: O_30  and  C_31
REMARK                            x       y       z     vdW  Elec       q    Type
REMARK                         _______ _______ _______ _____ _____    ______ ____
ROOT
ATOM      1  C   UNL     1       2.649  -7.300   2.187  0.00  0.00    +0.100 C 
ATOM      2  C   UNL     1       3.702  -6.170   2.240  0.00  0.00    +0.121 C 
ATOM      3  N   UNL     1       5.003  -6.875   2.324  0.00  0.00    -0.297 N 
ATOM      4  C   UNL     1       4.853  -8.036   1.415  0.00  0.00    +0.115 C 
ATOM      5  C   UNL     1       3.408  -8.523   1.645  0.00  0.00    -0.004 C 
ATOM      6  C   UNL     1       3.389  -9.654   2.669  0.00  0.00    -0.010 C 
ATOM      7  C   UNL     1       4.101 -10.877   2.084  0.00  0.00    -0.082 C 
ATOM      8  N   UNL     1       3.424 -11.295   0.850  0.00  0.00    +0.379 N 
ATOM      9  C   UNL     1       3.528 -10.237  -0.162  0.00  0.00    -0.082 C 
ATOM     10  C   UNL     1       2.793  -8.986   0.328  0.00  0.00    -0.010 C 
ATOM     11  C   UNL     1       6.080  -6.537   3.061  0.00  0.00    +0.256 C 
ATOM     12  O   UNL     1       7.081  -7.221   3.022  0.00  0.00    -0.272 OA
ATOM     13  H   UNL     1       3.857 -12.137   0.500  0.00  0.00    -0.086 HD
ATOM     14  H   UNL     1       2.451 -11.477   1.046  0.00  0.00    -0.086 HD
ENDROOT
BRANCH   1  16
ATOM     15  N   UNL     1       0.292  -7.434   1.452  0.00  0.00    -0.308 N 
ATOM     16  C   UNL     1       1.524  -6.926   1.257  0.00  0.00    +0.219 C 
ATOM     17  O   UNL     1       1.728  -6.167   0.333  0.00  0.00    -0.275 OA
ATOM     18  H   UNL     1       0.128  -8.041   2.190  0.00  0.00    +0.149 HD
BRANCH  15  19
ATOM     19  C   UNL     1      -0.802  -7.070   0.547  0.00  0.00    +0.100 C 
ATOM     20  C   UNL     1      -0.777  -7.987  -0.678  0.00  0.00    +0.033 C 
BRANCH  19  25
ATOM     21  C   UNL     1      -5.853  -7.666   3.291  0.00  0.00    +0.044 C 
ATOM     22  C   UNL     1      -4.535  -7.510   2.576  0.00  0.00    -0.050 A 
ATOM     23  C   UNL     1      -4.329  -6.434   1.734  0.00  0.00    +0.004 A 
ATOM     24  C   UNL     1      -3.121  -6.291   1.077  0.00  0.00    +0.006 A 
ATOM     25  C   UNL     1      -2.119  -7.225   1.264  0.00  0.00    -0.027 A 
ATOM     26  C   UNL     1      -2.325  -8.301   2.107  0.00  0.00    +0.006 A 
ATOM     27  C   UNL     1      -3.531  -8.441   2.766  0.00  0.00    +0.004 A 
ENDBRANCH  19  25
ENDBRANCH  15  19
ENDBRANCH   1  16
BRANCH  11  28
ATOM     28  C   UNL     1       6.040  -5.308   3.933  0.00  0.00    +0.256 C 
ATOM     29  C   UNL     1       5.909  -4.063   3.054  0.00  0.00    +0.062 C 
BRANCH  28  30
ATOM     30  O   UNL     1       7.245  -5.227   4.696  0.00  0.00    -0.480 OA
BRANCH  30  31
ATOM     31  C   UNL     1       7.189  -4.538   5.866  0.00  0.00    +0.122 A 
ATOM     32  C   UNL     1       6.028  -3.868   6.223  0.00  0.00    +0.045 A 
ATOM     33  C   UNL     1       5.973  -3.168   7.413  0.00  0.00    +0.004 A 
ATOM     34  C   UNL     1       7.074  -3.135   8.248  0.00  0.00    +0.000 A 
ATOM     35  C   UNL     1       8.233  -3.802   7.895  0.00  0.00    +0.004 A 
ATOM     36  C   UNL     1       8.291  -4.508   6.709  0.00  0.00    +0.045 A 
ENDBRANCH  30  31
ENDBRANCH  28  30
ENDBRANCH  11  28
TORSDOF 6
