REMARK  Name = ZINC20385709
REMARK  12 active torsions:
REMARK  status: ('A' for Active; 'I' for Inactive)
REMARK    1  A    between atoms: C_1  and  C_2
REMARK    2  A    between atoms: C_7  and  C_23
REMARK    3  A    between atoms: C_9  and  C_13
REMARK    4  A    between atoms: C_10  and  C_12
REMARK    5  A    between atoms: C_13  and  O_15
REMARK    6  A    between atoms: O_15  and  C_16
REMARK    7  A    between atoms: C_26  and  N_29
REMARK    8  A    between atoms: N_29  and  C_30
REMARK    9  A    between atoms: N_29  and  C_31
REMARK   10  A    between atoms: C_34  and  C_36
REMARK   11  A    between atoms: C_36  and  O_38
REMARK   12  A    between atoms: O_38  and  C_39
REMARK                            x       y       z     vdW  Elec       q    Type
REMARK                         _______ _______ _______ _____ _____    ______ ____
ROOT
ATOM      1  C   UNL     1       9.753   2.788   7.312  0.00  0.00    +0.009 C 
ATOM      2  C   UNL     1       8.439   2.405   6.629  0.00  0.00    +0.013 C 
ATOM      3  C   UNL     1       7.294   3.235   7.214  0.00  0.00    +0.055 C 
ATOM      4  C   UNL     1       5.992   2.825   6.573  0.00  0.00    +0.016 C 
ATOM      5  C   UNL     1       5.794   1.559   6.148  0.00  0.00    +0.025 C 
ATOM      6  C   UNL     1       4.483   1.151   5.525  0.00  0.00    +0.092 C 
ATOM      7  C   UNL     1       3.703   2.352   5.077  0.00  0.00    +0.065 C 
ATOM      8  C   UNL     1       3.991   3.582   5.537  0.00  0.00    +0.016 C 
ATOM      9  N   UNL     1       5.007   3.766   6.433  0.00  0.00    -0.321 N 
ATOM     10  C   UNL     1       3.185   4.765   5.066  0.00  0.00    +0.061 C 
ATOM     11  C   UNL     1       6.802   0.586   6.272  0.00  0.00    +0.176 C 
ATOM     12  O   UNL     1       6.589  -0.546   5.886  0.00  0.00    -0.291 OA
ATOM     13  C   UNL     1       8.139   0.922   6.875  0.00  0.00    +0.171 C 
ATOM     14  H   UNL     1       5.029   4.680   7.044  0.00  0.00    +0.152 HD
ENDROOT
BRANCH   6  15
ATOM     15  C   UNL     1       3.672   0.383   6.537  0.00  0.00    -0.035 A 
ATOM     16  C   UNL     1       3.287   0.992   7.718  0.00  0.00    +0.006 A 
ATOM     17  C   UNL     1       2.539   0.293   8.645  0.00  0.00    +0.023 A 
ATOM     18  C   UNL     1       2.183  -1.026   8.396  0.00  0.00    +0.029 A 
ATOM     19  C   UNL     1       2.575  -1.636   7.211  0.00  0.00    +0.023 A 
ATOM     20  C   UNL     1       3.319  -0.930   6.286  0.00  0.00    +0.006 A 
BRANCH  18  21
ATOM     21  N   UNL     1       1.431  -1.737   9.334  0.00  0.00    -0.336 N 
ATOM     22  C   UNL     1       1.055  -3.128   9.069  0.00  0.00    +0.129 C 
ATOM     23  C   UNL     1       1.017  -1.092  10.582  0.00  0.00    +0.129 C 
ENDBRANCH  18  21
ENDBRANCH   6  15
BRANCH   7  24
ATOM     24  C   UNL     1       2.648   2.187   4.150  0.00  0.00    +0.338 C 
ATOM     25  O   UNL     1       2.896   1.969   2.979  0.00  0.00    -0.245 OA
BRANCH  24  26
ATOM     26  O   UNL     1       1.366   2.273   4.564  0.00  0.00    -0.458 OA
BRANCH  26  27
ATOM     27  C   UNL     1       0.351   2.097   3.573  0.00  0.00    +0.177 C 
ATOM     28  C   UNL     1      -0.034   0.644   3.497  0.00  0.00    +0.044 C 
ATOM     29  C   UNL     1      -0.410   0.208   2.068  0.00  0.00    +0.004 C 
ATOM     30  C   UNL     1      -1.270   1.252   1.331  0.00  0.00    +0.000 C 
ATOM     31  C   UNL     1      -2.328   1.855   2.216  0.00  0.00    +0.000 C 
ATOM     32  C   UNL     1      -1.773   3.160   2.823  0.00  0.00    +0.004 C 
ATOM     33  C   UNL     1      -0.897   2.916   3.959  0.00  0.00    +0.044 C 
ENDBRANCH  26  27
ENDBRANCH  24  26
ENDBRANCH   7  24
BRANCH  13  34
ATOM     34  C   UNL     1       9.209   0.078   6.231  0.00  0.00    +0.318 C 
ATOM     35  O   UNL     1      10.118   0.606   5.636  0.00  0.00    -0.250 OA
BRANCH  34  36
ATOM     36  O   UNL     1       9.151  -1.260   6.318  0.00  0.00    -0.467 OA
ATOM     37  C   UNL     1      10.215  -2.010   5.674  0.00  0.00    +0.280 C 
ENDBRANCH  34  36
ENDBRANCH  13  34
TORSDOF 7
