REMARK  Name = ZINC10815161
REMARK  12 active torsions:
REMARK  status: ('A' for Active; 'I' for Inactive)
REMARK    1  A    between atoms: C_1  and  C_2
REMARK    2  A    between atoms: C_2  and  N_60
REMARK    3  A    between atoms: C_3  and  C_4
REMARK    4  A    between atoms: C_3  and  N_60
REMARK    5  A    between atoms: C_5  and  C_6
REMARK    6  A    between atoms: C_5  and  N_60
REMARK    7  A    between atoms: C_6  and  N_7
REMARK    8  A    between atoms: C_16  and  S_17
REMARK    9  A    between atoms: S_17  and  C_20
REMARK   10  A    between atoms: C_21  and  C_23
REMARK   11  A    between atoms: C_24  and  C_25
REMARK   12  A    between atoms: C_28  and  N_31
REMARK                            x       y       z     vdW  Elec       q    Type
REMARK                         _______ _______ _______ _____ _____    ______ ____
ROOT
ATOM      1  N   UNL     1       0.005  -0.003   0.004  0.00  0.00    -0.249 N 
ATOM      2  C   UNL     1      -1.188  -0.703   0.032  0.00  0.00    +0.168 A 
ATOM      3  N   UNL     1      -2.415  -0.238   0.057  0.00  0.00    -0.222 NA
ATOM      4  C   UNL     1      -3.497  -1.046   0.080  0.00  0.00    +0.105 A 
ATOM      5  C   UNL     1      -3.225  -2.434   0.085  0.00  0.00    +0.043 A 
ATOM      6  S   UNL     1      -1.449  -2.471   0.051  0.00  0.00    -0.052 S 
ATOM      7  C   UNL     1      -4.216  -3.383   0.112  0.00  0.00    +0.017 A 
ATOM      8  C   UNL     1      -5.541  -2.986   0.134  0.00  0.00    +0.003 A 
ATOM      9  C   UNL     1      -5.845  -1.633   0.129  0.00  0.00    +0.029 A 
ATOM     10  C   UNL     1      -4.862  -0.678   0.103  0.00  0.00    +0.114 A 
ATOM     11  C   UNL     1      -0.005   1.345  -0.006  0.00  0.00    +0.245 C 
ATOM     12  O   UNL     1      -1.063   1.946   0.005  0.00  0.00    -0.270 OA
ENDROOT
BRANCH  10  13
ATOM     13  S   UNL     1      -5.304   1.028   0.098  0.00  0.00    -0.004 S 
ATOM     14  O   UNL     1      -4.579   1.588  -0.988  0.00  0.00    -0.170 OA
ATOM     15  O   UNL     1      -6.725   1.034   0.100  0.00  0.00    -0.170 OA
ATOM     16  C   UNL     1      -4.674   1.677   1.671  0.00  0.00    +0.200 C 
ENDBRANCH  10  13
BRANCH  11  17
ATOM     17  C   UNL     1       1.257   2.086  -0.035  0.00  0.00    +0.068 C 
ATOM     18  C   UNL     1       1.247   3.434  -0.045  0.00  0.00    +0.013 C 
BRANCH  18  19
ATOM     19  C   UNL     1       2.516   4.179  -0.075  0.00  0.00    -0.025 A 
ATOM     20  C   UNL     1       3.734   3.493  -0.087  0.00  0.00    +0.010 A 
ATOM     21  C   UNL     1       4.918   4.198  -0.121  0.00  0.00    +0.033 A 
ATOM     22  C   UNL     1       4.904   5.582  -0.132  0.00  0.00    +0.126 A 
ATOM     23  C   UNL     1       3.703   6.269  -0.114  0.00  0.00    +0.033 A 
ATOM     24  C   UNL     1       2.510   5.578  -0.086  0.00  0.00    +0.010 A 
BRANCH  22  25
ATOM     25  N   UNL     1       6.180   6.331  -0.162  0.00  0.00    +0.056 N 
ATOM     26  O   UNL     1       6.171   7.549  -0.170  0.00  0.00    -0.126 OA
ATOM     27  O   UNL     1       7.239   5.730  -0.177  0.00  0.00    -0.126 OA
ENDBRANCH  22  25
ENDBRANCH  18  19
ENDBRANCH  11  17
BRANCH   1  28
ATOM     28  C   UNL     1       1.279  -0.726  -0.014  0.00  0.00    +0.097 C 
BRANCH  28  29
ATOM     29  C   UNL     1       1.750  -0.967   1.421  0.00  0.00    -0.059 C 
BRANCH  29  30
ATOM     30  N   UNL     1       2.957  -1.819   1.387  0.00  0.00    +0.380 N 
ATOM     31  H   UNL     1       2.820  -2.563   0.693  0.00  0.00    -0.082 HD
BRANCH  30  33
ATOM     32  C   UNL     1       5.317  -1.952   0.756  0.00  0.00    -0.017 C 
ATOM     33  C   UNL     1       4.134  -1.013   1.002  0.00  0.00    -0.082 C 
ENDBRANCH  30  33
BRANCH  30  34
ATOM     34  C   UNL     1       3.179  -2.434   2.713  0.00  0.00    -0.082 C 
ATOM     35  C   UNL     1       2.199  -3.597   2.884  0.00  0.00    -0.017 C 
ENDBRANCH  30  34
ENDBRANCH  29  30
ENDBRANCH  28  29
ENDBRANCH   1  28
TORSDOF 9
