REMARK  Name = ZINC63573410
REMARK  8 active torsions:
REMARK  status: ('A' for Active; 'I' for Inactive)
REMARK    1  A    between atoms: C_1  and  C_2
REMARK    2  A    between atoms: C_2  and  O_3
REMARK    3  A    between atoms: O_3  and  C_4
REMARK    4  A    between atoms: C_7  and  N_10
REMARK    5  A    between atoms: C_19  and  O_35
REMARK    6  A    between atoms: C_26  and  C_28
REMARK    7  A    between atoms: C_31  and  C_34
REMARK    8  A    between atoms: O_35  and  C_36
REMARK                            x       y       z     vdW  Elec       q    Type
REMARK                         _______ _______ _______ _____ _____    ______ ____
ROOT
ATOM      1  N   UNL     1      -2.328  -6.453  -1.765  0.00  0.00    -0.269 N 
ATOM      2  C   UNL     1      -3.422  -6.807  -1.063  0.00  0.00    +0.307 C 
ATOM      3  O   UNL     1      -4.354  -6.033  -0.959  0.00  0.00    -0.252 OA
ATOM      4  N   UNL     1      -3.484  -8.019  -0.477  0.00  0.00    -0.276 N 
ATOM      5  C   UNL     1      -2.313  -8.901  -0.509  0.00  0.00    +0.114 C 
ATOM      6  C   UNL     1      -1.902  -9.259   0.931  0.00  0.00    +0.052 C 
ATOM      7  C   UNL     1      -3.169  -9.621   1.666  0.00  0.00    -0.035 C 
ATOM      8  C   UNL     1      -3.490 -10.685   2.390  0.00  0.00    +0.003 A 
ATOM      9  C   UNL     1      -2.702 -11.846   2.833  0.00  0.00    +0.055 A 
ATOM     10  C   UNL     1      -3.361 -12.787   3.564  0.00  0.00    +0.121 A 
ATOM     11  C   UNL     1      -4.719 -12.707   3.905  0.00  0.00    +0.047 A 
ATOM     12  C   UNL     1      -5.534 -11.679   3.556  0.00  0.00    +0.029 A 
ATOM     13  C   UNL     1      -4.933 -10.592   2.770  0.00  0.00    +0.043 A 
ATOM     14  N   UNL     1      -5.453  -9.490   2.321  0.00  0.00    -0.375 N 
ATOM     15  C   UNL     1      -4.399  -8.720   1.659  0.00  0.00    +0.131 C 
ATOM     16  C   UNL     1      -4.725  -8.441   0.193  0.00  0.00    +0.134 C 
ATOM     17  H   UNL     1      -1.612  -7.093  -1.902  0.00  0.00    +0.156 HD
ATOM     18  H   UNL     1      -6.381  -9.223   2.410  0.00  0.00    +0.160 HD
ENDROOT
BRANCH  16  19
ATOM     19  C   UNL     1      -5.753  -7.343   0.102  0.00  0.00    -0.025 A 
ATOM     20  C   UNL     1      -5.623  -6.208   0.881  0.00  0.00    +0.006 A 
ATOM     21  C   UNL     1      -6.566  -5.201   0.797  0.00  0.00    +0.004 A 
ATOM     22  C   UNL     1      -7.639  -5.328  -0.065  0.00  0.00    -0.050 A 
ATOM     23  C   UNL     1      -7.769  -6.463  -0.844  0.00  0.00    +0.004 A 
ATOM     24  C   UNL     1      -6.823  -7.468  -0.763  0.00  0.00    +0.006 A 
ATOM     25  C   UNL     1      -8.668  -4.231  -0.155  0.00  0.00    +0.044 C 
ENDBRANCH  16  19
BRANCH   1  29
ATOM     26  C   UNL     1      -2.018  -2.607  -3.347  0.00  0.00    +0.121 A 
ATOM     27  C   UNL     1      -0.893  -3.240  -2.839  0.00  0.00    +0.047 A 
ATOM     28  C   UNL     1      -0.995  -4.514  -2.315  0.00  0.00    +0.027 A 
ATOM     29  C   UNL     1      -2.223  -5.160  -2.296  0.00  0.00    +0.035 A 
ATOM     30  C   UNL     1      -3.349  -4.525  -2.804  0.00  0.00    +0.027 A 
ATOM     31  C   UNL     1      -3.246  -3.250  -3.323  0.00  0.00    +0.047 A 
BRANCH  26  32
ATOM     32  O   UNL     1      -1.916  -1.353  -3.863  0.00  0.00    -0.492 OA
BRANCH  32  34
ATOM     33  C   UNL     1      -0.704   0.647  -4.471  0.00  0.00    +0.048 C 
ATOM     34  C   UNL     1      -0.620  -0.751  -3.855  0.00  0.00    +0.225 C 
ENDBRANCH  32  34
ENDBRANCH  26  32
ENDBRANCH   1  29
BRANCH  10  35
ATOM     35  O   UNL     1      -2.659 -13.872   3.988  0.00  0.00    -0.495 OA
ATOM     36  C   UNL     1      -3.372 -14.846   4.753  0.00  0.00    +0.277 C 
ENDBRANCH  10  35
TORSDOF 5
