REMARK  Name = ZINC25160445
REMARK  9 active torsions:
REMARK  status: ('A' for Active; 'I' for Inactive)
REMARK    1  A    between atoms: C_1  and  O_2
REMARK    2  A    between atoms: O_2  and  C_3
REMARK    3  A    between atoms: C_3  and  C_5
REMARK    4  A    between atoms: C_5  and  C_7
REMARK    5  A    between atoms: C_5  and  N_14
REMARK    6  A    between atoms: C_20  and  C_22
REMARK    7  A    between atoms: C_22  and  C_23
REMARK    8  A    between atoms: C_23  and  C_24
REMARK    9  A    between atoms: C_24  and  C_25
REMARK                            x       y       z     vdW  Elec       q    Type
REMARK                         _______ _______ _______ _____ _____    ______ ____
ROOT
ATOM      1  N   UNL     1       1.356  -2.504  -2.349  0.00  0.00    -0.283 NA
ATOM      2  C   UNL     1       1.344  -3.964  -2.509  0.00  0.00    +0.104 C 
ATOM      3  C   UNL     1       1.917  -4.328  -3.882  0.00  0.00    +0.123 C 
ATOM      4  N   UNL     1       3.240  -3.699  -4.018  0.00  0.00    -0.299 N 
ATOM      5  C   UNL     1       3.357  -2.260  -3.738  0.00  0.00    +0.123 C 
ATOM      6  C   UNL     1       2.727  -1.977  -2.370  0.00  0.00    +0.104 C 
ATOM      7  C   UNL     1       4.315  -4.421  -4.389  0.00  0.00    +0.216 C 
ATOM      8  O   UNL     1       5.398  -3.886  -4.496  0.00  0.00    -0.276 OA
ENDROOT
BRANCH   1   9
ATOM      9  C   UNL     1       0.657  -2.104  -1.120  0.00  0.00    +0.197 C 
BRANCH   9  10
ATOM     10  C   UNL     1      -0.742  -2.661  -1.133  0.00  0.00    -0.019 A 
ATOM     11  C   UNL     1      -1.476  -2.659  -2.305  0.00  0.00    +0.007 A 
ATOM     12  C   UNL     1      -2.758  -3.176  -2.319  0.00  0.00    +0.020 A 
ATOM     13  C   UNL     1      -3.311  -3.685  -1.157  0.00  0.00    +0.041 A 
ATOM     14  C   UNL     1      -2.578  -3.681   0.017  0.00  0.00    +0.020 A 
ATOM     15  C   UNL     1      -1.295  -3.170   0.028  0.00  0.00    +0.007 A 
ATOM     16 CL   UNL     1      -4.924  -4.327  -1.172  0.00  0.00    -0.084 Cl
ENDBRANCH   9  10
BRANCH   9  17
ATOM     17  C   UNL     1       0.598  -0.600  -1.043  0.00  0.00    +0.329 C 
ATOM     18  O   UNL     1       1.088   0.070  -1.921  0.00  0.00    -0.249 OA
BRANCH  17  20
ATOM     19  C   UNL     1      -0.018   1.448   0.010  0.00  0.00    +0.280 C 
ATOM     20  O   UNL     1       0.002  -0.004   0.002  0.00  0.00    -0.467 OA
ENDBRANCH  17  20
ENDBRANCH   9  17
ENDBRANCH   1   9
BRANCH   7  21
ATOM     21  C   UNL     1       4.172  -5.895  -4.671  0.00  0.00    +0.096 C 
BRANCH  21  22
ATOM     22  C   UNL     1       5.532  -6.473  -5.069  0.00  0.00    +0.014 C 
BRANCH  22  23
ATOM     23  C   UNL     1       5.387  -7.968  -5.355  0.00  0.00    +0.038 C 
BRANCH  23  24
ATOM     24  C   UNL     1       6.726  -8.537  -5.747  0.00  0.00    -0.022 A 
ATOM     25  C   UNL     1       7.185  -8.711  -6.997  0.00  0.00    +0.087 A 
ATOM     26  N   UNL     1       8.442  -9.250  -6.961  0.00  0.00    -0.360 N 
ATOM     27  H   UNL     1       8.979  -9.456  -7.899  0.00  0.00    +0.165 HD
ATOM     28  C   UNL     1       8.829  -9.449  -5.655  0.00  0.00    +0.047 A 
ATOM     29  C   UNL     1       7.771  -9.011  -4.837  0.00  0.00    +0.003 A 
ATOM     30  C   UNL     1       7.885  -9.093  -3.448  0.00  0.00    +0.010 A 
ATOM     31  C   UNL     1       9.024  -9.599  -2.889  0.00  0.00    +0.001 A 
ATOM     32  C   UNL     1      10.071 -10.032  -3.691  0.00  0.00    +0.002 A 
ATOM     33  C   UNL     1       9.980  -9.960  -5.064  0.00  0.00    +0.026 A 
ENDBRANCH  23  24
ENDBRANCH  22  23
ENDBRANCH  21  22
ENDBRANCH   7  21
TORSDOF 8
