REMARK  Name = ZINC39477945
REMARK  11 active torsions:
REMARK  status: ('A' for Active; 'I' for Inactive)
REMARK    1  A    between atoms: C_1  and  O_2
REMARK    2  A    between atoms: O_2  and  C_3
REMARK    3  A    between atoms: C_6  and  C_9
REMARK    4  A    between atoms: N_13  and  C_21
REMARK    5  A    between atoms: C_14  and  S_16
REMARK    6  A    between atoms: S_16  and  C_17
REMARK    7  A    between atoms: C_17  and  C_18
REMARK    8  A    between atoms: C_18  and  C_19
REMARK    9  A    between atoms: C_19  and  O_20
REMARK   10  A    between atoms: C_25  and  O_27
REMARK   11  A    between atoms: O_27  and  C_28
REMARK                            x       y       z     vdW  Elec       q    Type
REMARK                         _______ _______ _______ _____ _____    ______ ____
ROOT
ATOM      1  C   UNL     1       2.479  -2.488  -4.359  0.00  0.00    +0.041 C 
ATOM      2  C   UNL     1       2.623  -3.846  -4.379  0.00  0.00    +0.129 C 
ATOM      3  C   UNL     1       3.339  -4.648  -5.389  0.00  0.00    +0.275 C 
ATOM      4  O   UNL     1       3.923  -4.240  -6.375  0.00  0.00    -0.268 OA
ATOM      5  N   UNL     1       3.209  -5.932  -4.987  0.00  0.00    -0.214 N 
ATOM      6  C   UNL     1       2.476  -5.950  -3.825  0.00  0.00    +0.168 C 
ATOM      7  N   UNL     1       2.139  -4.739  -3.465  0.00  0.00    -0.220 NA
ENDROOT
BRANCH   5   8
ATOM      8  C   UNL     1       3.732  -7.054  -5.645  0.00  0.00    +0.047 A 
ATOM      9  C   UNL     1       2.876  -7.993  -6.205  0.00  0.00    +0.025 A 
ATOM     10  C   UNL     1       3.390  -9.099  -6.854  0.00  0.00    +0.025 A 
ATOM     11  C   UNL     1       4.759  -9.274  -6.947  0.00  0.00    +0.083 A 
ATOM     12  C   UNL     1       5.619  -8.338  -6.388  0.00  0.00    +0.140 A 
ATOM     13  C   UNL     1       5.105  -7.225  -5.742  0.00  0.00    +0.071 A 
ATOM     14 CL   UNL     1       5.402 -10.665  -7.763  0.00  0.00    -0.080 Cl
BRANCH  12  15
ATOM     15  O   UNL     1       6.964  -8.511  -6.480  0.00  0.00    -0.494 OA
ATOM     16  C   UNL     1       7.789  -7.508  -5.882  0.00  0.00    +0.277 C 
ENDBRANCH  12  15
ENDBRANCH   5   8
BRANCH   1  20
ATOM     17  C   UNL     1       0.623  -0.604  -1.047  0.00  0.00    +0.120 A 
ATOM     18  C   UNL     1       0.654  -1.991  -1.126  0.00  0.00    +0.046 A 
ATOM     19  C   UNL     1       1.256  -2.609  -2.199  0.00  0.00    +0.011 A 
ATOM     20  C   UNL     1       1.837  -1.836  -3.213  0.00  0.00    -0.023 A 
ATOM     21  C   UNL     1       1.802  -0.438  -3.128  0.00  0.00    +0.011 A 
ATOM     22  C   UNL     1       1.193   0.169  -2.053  0.00  0.00    +0.046 A 
BRANCH  17  24
ATOM     23  C   UNL     1      -0.537  -0.852   1.012  0.00  0.00    +0.277 C 
ATOM     24  O   UNL     1       0.028   0.000   0.014  0.00  0.00    -0.495 OA
ENDBRANCH  17  24
ENDBRANCH   1  20
BRANCH   6  25
ATOM     25  S   UNL     1       2.054  -7.410  -2.934  0.00  0.00    -0.090 S 
BRANCH  25  26
ATOM     26  C   UNL     1       1.100  -6.800  -1.518  0.00  0.00    +0.079 C 
BRANCH  26  27
ATOM     27  C   UNL     1       0.664  -7.981  -0.648  0.00  0.00    +0.039 C 
BRANCH  27  28
ATOM     28  C   UNL     1      -0.140  -7.467   0.546  0.00  0.00    +0.156 C 
BRANCH  28  29
ATOM     29  O   UNL     1      -0.547  -8.570   1.358  0.00  0.00    -0.395 OA
ATOM     30  H   UNL     1      -1.063  -8.317   2.136  0.00  0.00    +0.209 HD
ENDBRANCH  28  29
ENDBRANCH  27  28
ENDBRANCH  26  27
ENDBRANCH  25  26
ENDBRANCH   6  25
TORSDOF 9
