REMARK  Name = ZINC63784135
REMARK  8 active torsions:
REMARK  status: ('A' for Active; 'I' for Inactive)
REMARK    1  A    between atoms: C_1  and  C_2
REMARK    2  A    between atoms: C_4  and  C_34
REMARK    3  A    between atoms: C_9  and  N_21
REMARK    4  A    between atoms: N_10  and  C_11
REMARK    5  A    between atoms: C_11  and  C_13
REMARK    6  A    between atoms: N_21  and  C_22
REMARK    7  A    between atoms: C_22  and  C_23
REMARK    8  A    between atoms: C_23  and  C_24
REMARK                            x       y       z     vdW  Elec       q    Type
REMARK                         _______ _______ _______ _____ _____    ______ ____
ROOT
ATOM      1  C   UNL     1      -0.380  -6.706   5.782  0.00  0.00    +0.066 C 
ATOM      2  C   UNL     1      -0.382  -6.176   4.372  0.00  0.00    +0.044 A 
ATOM      3  C   UNL     1      -0.362  -7.049   3.295  0.00  0.00    +0.046 A 
ATOM      4  C   UNL     1      -0.366  -6.519   2.014  0.00  0.00    +0.044 A 
ATOM      5  N   UNL     1      -0.387  -5.206   1.858  0.00  0.00    -0.217 NA
ATOM      6  C   UNL     1      -0.406  -4.400   2.909  0.00  0.00    +0.231 A 
ATOM      7  N   UNL     1      -0.408  -4.873   4.146  0.00  0.00    -0.217 NA
ATOM      8  N   UNL     1      -0.428  -3.026   2.709  0.00  0.00    -0.295 N 
ATOM      9  C   UNL     1      -0.332  -2.178   3.777  0.00  0.00    +0.218 C 
ATOM     10  N   UNL     1      -0.101  -2.662   4.987  0.00  0.00    -0.141 NA
ATOM     11  C   UNL     1      -0.344  -7.429   0.812  0.00  0.00    +0.066 C 
ATOM     12  H   UNL     1      -0.513  -2.668   1.811  0.00  0.00    +0.172 HD
ENDROOT
BRANCH  10  13
ATOM     13  C   UNL     1       0.084  -1.826   6.019  0.00  0.00    +0.272 C 
ATOM     14  O   UNL     1      -0.054  -0.626   5.863  0.00  0.00    -0.268 OA
BRANCH  13  15
ATOM     15  C   UNL     1       0.456  -2.361   7.347  0.00  0.00    +0.057 A 
ATOM     16  C   UNL     1       0.735  -3.720   7.502  0.00  0.00    +0.016 A 
ATOM     17  C   UNL     1       1.081  -4.213   8.742  0.00  0.00    +0.021 A 
ATOM     18  C   UNL     1       1.152  -3.364   9.834  0.00  0.00    +0.042 A 
ATOM     19  C   UNL     1       0.876  -2.015   9.688  0.00  0.00    +0.040 A 
ATOM     20  C   UNL     1       0.534  -1.508   8.450  0.00  0.00    +0.055 A 
ATOM     21 CL   UNL     1       0.195   0.184   8.266  0.00  0.00    -0.083 Cl
ATOM     22 CL   UNL     1       1.588  -3.993  11.392  0.00  0.00    -0.083 Cl
ENDBRANCH  13  15
ENDBRANCH  10  13
BRANCH   9  23
ATOM     23  N   UNL     1      -0.474  -0.834   3.595  0.00  0.00    -0.252 NA
BRANCH  23  24
ATOM     24  C   UNL     1      -0.838  -0.307   2.278  0.00  0.00    +0.149 C 
BRANCH  24  25
ATOM     25  C   UNL     1      -0.812   1.222   2.315  0.00  0.00    +0.056 C 
BRANCH  25  26
ATOM     26  C   UNL     1      -1.304   1.765   0.998  0.00  0.00    -0.040 C 
ATOM     27  C   UNL     1      -2.562   2.164   0.702  0.00  0.00    +0.000 A 
ATOM     28  C   UNL     1      -3.801   2.210   1.488  0.00  0.00    +0.030 A 
ATOM     29  C   UNL     1      -4.931   2.670   0.904  0.00  0.00    +0.042 A 
ATOM     30  C   UNL     1      -4.948   3.103  -0.430  0.00  0.00    +0.022 A 
ATOM     31  C   UNL     1      -3.850   3.091  -1.215  0.00  0.00    +0.027 A 
ATOM     32  C   UNL     1      -2.606   2.627  -0.703  0.00  0.00    +0.043 A 
ATOM     33  N   UNL     1      -1.422   2.519  -1.255  0.00  0.00    -0.380 N 
ATOM     34  C   UNL     1      -0.489   1.980  -0.258  0.00  0.00    +0.144 C 
ATOM     35 CL   UNL     1      -6.399   2.726   1.829  0.00  0.00    -0.084 Cl
ATOM     36  H   UNL     1      -1.198   2.758  -2.168  0.00  0.00    +0.160 HD
ENDBRANCH  25  26
ENDBRANCH  24  25
ENDBRANCH  23  24
ENDBRANCH   9  23
TORSDOF 6
