REMARK  Name = ZINC33574642
REMARK  7 active torsions:
REMARK  status: ('A' for Active; 'I' for Inactive)
REMARK    1  A    between atoms: C_1  and  O_2
REMARK    2  A    between atoms: O_2  and  C_3
REMARK    3  A    between atoms: C_3  and  C_5
REMARK    4  A    between atoms: C_8  and  C_11
REMARK    5  A    between atoms: C_22  and  C_24
REMARK    6  A    between atoms: C_22  and  C_31
REMARK    7  A    between atoms: C_24  and  C_25
REMARK                            x       y       z     vdW  Elec       q    Type
REMARK                         _______ _______ _______ _____ _____    ______ ____
ROOT
ATOM      1  C   UNL     1       0.851  -6.357   1.260  0.00  0.00    -0.027 C 
ATOM      2  C   UNL     1       2.229  -6.858   0.843  0.00  0.00    +0.078 C 
ATOM      3  C   UNL     1       2.105  -8.302   1.462  0.00  0.00    +0.088 C 
ATOM      4  C   UNL     1       3.141  -9.024   0.766  0.00  0.00    +0.242 C 
ATOM      5  O   UNL     1       3.847 -10.069   1.224  0.00  0.00    -0.273 OA
ATOM      6  N   UNL     1       3.252  -8.440  -0.428  0.00  0.00    -0.145 NA
ATOM      7  C   UNL     1       2.511  -7.292  -0.561  0.00  0.00    +0.242 C 
ATOM      8  O   UNL     1       2.153  -6.747  -1.585  0.00  0.00    -0.273 OA
ATOM      9  C   UNL     1       1.617  -8.050   2.824  0.00  0.00    +0.052 C 
ATOM     10  N   UNL     1       0.726  -6.837   2.676  0.00  0.00    +0.396 N 
ATOM     11  H   UNL     1       1.035  -6.116   3.310  0.00  0.00    -0.083 HD
ATOM     12  H   UNL     1      -0.234  -7.079   2.871  0.00  0.00    -0.083 HD
ENDROOT
BRANCH   1  16
ATOM     13  C   UNL     1       0.680  -2.088   1.091  0.00  0.00    +0.059 A 
ATOM     14  C   UNL     1       0.101  -2.854   0.077  0.00  0.00    +0.015 A 
ATOM     15  C   UNL     1       0.160  -4.231   0.138  0.00  0.00    +0.003 A 
ATOM     16  C   UNL     1       0.791  -4.853   1.200  0.00  0.00    -0.061 A 
ATOM     17  C   UNL     1       1.366  -4.100   2.209  0.00  0.00    +0.003 A 
ATOM     18  C   UNL     1       1.320  -2.722   2.157  0.00  0.00    +0.015 A 
BRANCH  13  19
ATOM     19  C   UNL     1       0.620  -0.613   1.032  0.00  0.00    +0.339 C 
ATOM     20  O   UNL     1       1.129   0.051   1.913  0.00  0.00    -0.245 OA
BRANCH  19  22
ATOM     21  C   UNL     1      -0.017   1.425   0.010  0.00  0.00    +0.280 C 
ATOM     22  O   UNL     1       0.002  -0.004   0.002  0.00  0.00    -0.464 OA
ENDBRANCH  19  22
ENDBRANCH  13  19
ENDBRANCH   1  16
BRANCH   9  23
ATOM     23  C   UNL     1       2.771  -7.776   3.753  0.00  0.00    +0.347 C 
ATOM     24  O   UNL     1       2.840  -6.711   4.343  0.00  0.00    -0.248 OA
ATOM     25  O   UNL     1       3.636  -8.620   3.916  0.00  0.00    -0.248 OA
ENDBRANCH   9  23
BRANCH   9  26
ATOM     26  C   UNL     1       0.795  -9.238   3.326  0.00  0.00    +0.035 C 
BRANCH  26  27
ATOM     27  C   UNL     1       0.204  -8.908   4.672  0.00  0.00    -0.048 A 
ATOM     28  C   UNL     1       0.909  -9.197   5.826  0.00  0.00    +0.003 A 
ATOM     29  C   UNL     1       0.367  -8.893   7.061  0.00  0.00    +0.000 A 
ATOM     30  C   UNL     1      -0.879  -8.300   7.142  0.00  0.00    +0.000 A 
ATOM     31  C   UNL     1      -1.583  -8.011   5.988  0.00  0.00    +0.000 A 
ATOM     32  C   UNL     1      -1.040  -8.310   4.753  0.00  0.00    +0.003 A 
ENDBRANCH  26  27
ENDBRANCH   9  26
TORSDOF 6
