REMARK  Name = ZINC13230656
REMARK  4 active torsions:
REMARK  status: ('A' for Active; 'I' for Inactive)
REMARK    1  A    between atoms: C_1  and  C_2
REMARK    2  A    between atoms: C_12  and  S_15
REMARK    3  A    between atoms: S_15  and  C_16
REMARK    4  A    between atoms: C_16  and  C_17
REMARK                            x       y       z     vdW  Elec       q    Type
REMARK                         _______ _______ _______ _____ _____    ______ ____
ROOT
ATOM      1  C   UNL     1       0.065  -4.704   3.508  0.00  0.00    +0.153 C 
ENDROOT
BRANCH   1   2
ATOM      2  C   UNL     1       0.086  -5.080   4.967  0.00  0.00    +0.143 A 
ATOM      3  N   UNL     1       1.242  -5.137   5.603  0.00  0.00    -0.216 NA
ATOM      4  C   UNL     1       1.327  -5.462   6.883  0.00  0.00    +0.128 A 
ATOM      5  C   UNL     1       0.136  -5.760   7.602  0.00  0.00    +0.051 A 
ATOM      6  C   UNL     1      -0.015  -6.141   9.008  0.00  0.00    -0.025 A 
ATOM      7  C   UNL     1      -1.268  -6.371   9.447  0.00  0.00    -0.004 A 
ATOM      8  S   UNL     1      -2.310  -6.099   8.039  0.00  0.00    -0.073 S 
ATOM      9  C   UNL     1      -1.057  -5.677   6.857  0.00  0.00    +0.114 A 
ATOM     10  N   UNL     1      -1.052  -5.340   5.582  0.00  0.00    -0.224 NA
ATOM     11  C   UNL     1      -1.686  -6.772  10.830  0.00  0.00    +0.043 C 
ATOM     12  C   UNL     1      -0.442  -7.247  11.593  0.00  0.00    +0.005 C 
ATOM     13  C   UNL     1       0.678  -6.223  11.393  0.00  0.00    +0.005 C 
ATOM     14  C   UNL     1       1.179  -6.277   9.949  0.00  0.00    +0.037 C 
ATOM     15  N   UNL     1       2.558  -5.511   7.514  0.00  0.00    -0.343 N 
ATOM     16  H   UNL     1       3.330  -5.094   7.102  0.00  0.00    +0.144 HD
ATOM     17  H   UNL     1       2.647  -5.962   8.368  0.00  0.00    +0.144 HD
ENDBRANCH   1   2
BRANCH   1  18
ATOM     18  S   UNL     1      -0.088  -2.903   3.350  0.00  0.00    -0.078 S 
BRANCH  18  30
ATOM     19  C   UNL     1      -0.520   2.292   1.051  0.00  0.00    +0.090 C 
ATOM     20  C   UNL     1      -0.390   0.807   0.830  0.00  0.00    +0.149 A 
ATOM     21  N   UNL     1      -0.328   0.211  -0.358  0.00  0.00    -0.211 NA
ATOM     22  C   UNL     1      -0.217  -1.091  -0.195  0.00  0.00    +0.168 A 
ATOM     23  C   UNL     1      -0.110  -2.236  -1.105  0.00  0.00    +0.045 A 
ATOM     24  C   UNL     1      -0.112  -2.082  -2.490  0.00  0.00    +0.014 A 
ATOM     25  C   UNL     1      -0.008  -3.192  -3.298  0.00  0.00    +0.001 A 
ATOM     26  C   UNL     1       0.097  -4.462  -2.744  0.00  0.00    +0.002 A 
ATOM     27  C   UNL     1       0.100  -4.637  -1.379  0.00  0.00    +0.028 A 
ATOM     28  C   UNL     1      -0.003  -3.526  -0.537  0.00  0.00    +0.077 A 
ATOM     29  N   UNL     1      -0.002  -3.660   0.811  0.00  0.00    -0.222 NA
ATOM     30  C   UNL     1      -0.098  -2.627   1.610  0.00  0.00    +0.192 A 
ATOM     31  N   UNL     1      -0.206  -1.343   1.150  0.00  0.00    -0.188 N 
ATOM     32  N   UNL     1      -0.314  -0.094   1.777  0.00  0.00    -0.148 NA
ENDBRANCH  18  30
ENDBRANCH   1  18
TORSDOF 3
