REMARK  Name = ZINC40678393
REMARK  6 active torsions:
REMARK  status: ('A' for Active; 'I' for Inactive)
REMARK    1  A    between atoms: C_1  and  C_2
REMARK    2  A    between atoms: C_2  and  C_3
REMARK    3  A    between atoms: C_2  and  C_4
REMARK    4  A    between atoms: C_4  and  C_5
REMARK    5  A    between atoms: C_5  and  N_6
REMARK    6  A    between atoms: C_13  and  C_16
REMARK                            x       y       z     vdW  Elec       q    Type
REMARK                         _______ _______ _______ _____ _____    ______ ____
ROOT
ATOM      1  N   UNL     1      -3.508  -0.642  -1.277  0.00  0.00    -0.299 N 
ATOM      2  C   UNL     1      -4.323  -0.403  -2.324  0.00  0.00    +0.302 C 
ATOM      3  O   UNL     1      -3.948   0.309  -3.236  0.00  0.00    -0.253 OA
ATOM      4  N   UNL     1      -5.552  -0.954  -2.360  0.00  0.00    -0.281 N 
ATOM      5  C   UNL     1      -6.073  -1.719  -1.217  0.00  0.00    +0.137 C 
ATOM      6  C   UNL     1      -7.466  -1.181  -0.869  0.00  0.00    +0.179 C 
ATOM      7  O   UNL     1      -8.275  -1.171  -2.047  0.00  0.00    -0.369 OA
ATOM      8  C   UNL     1      -7.790  -0.312  -3.083  0.00  0.00    +0.166 C 
ATOM      9  C   UNL     1      -6.416  -0.801  -3.542  0.00  0.00    +0.145 C 
ATOM     10  H   UNL     1      -3.832  -1.150  -0.517  0.00  0.00    +0.150 HD
ENDROOT
BRANCH   8  11
ATOM     11  C   UNL     1      -8.749  -0.333  -4.245  0.00  0.00    -0.017 A 
ATOM     12  C   UNL     1      -9.423  -1.498  -4.564  0.00  0.00    +0.007 A 
ATOM     13  C   UNL     1     -10.303  -1.517  -5.629  0.00  0.00    +0.015 A 
ATOM     14  C   UNL     1     -10.510  -0.372  -6.376  0.00  0.00    +0.018 A 
ATOM     15  C   UNL     1      -9.835   0.793  -6.057  0.00  0.00    +0.015 A 
ATOM     16  C   UNL     1      -8.959   0.813  -4.988  0.00  0.00    +0.007 A 
ATOM     17 BR   UNL     1     -11.713  -0.398  -7.835  0.00  0.00    -0.050 Br
ENDBRANCH   8  11
BRANCH   1  18
ATOM     18  C   UNL     1      -2.134  -0.134  -1.288  0.00  0.00    +0.106 C 
BRANCH  18  19
ATOM     19  C   UNL     1      -1.430  -0.541   0.008  0.00  0.00    +0.022 C 
BRANCH  19  21
ATOM     20  C   UNL     1      -0.016   1.519   0.011  0.00  0.00    +0.007 C 
ATOM     21  C   UNL     1       0.005  -0.011  -0.003  0.00  0.00    -0.016 C 
ATOM     22  C   UNL     1       0.747  -0.522   1.234  0.00  0.00    +0.007 C 
ENDBRANCH  19  21
ENDBRANCH  18  19
ENDBRANCH   1  18
TORSDOF 4
