REMARK  Name = ZINC39314623
REMARK  5 active torsions:
REMARK  status: ('A' for Active; 'I' for Inactive)
REMARK    1  A    between atoms: C_10  and  O_11
REMARK    2  A    between atoms: O_11  and  C_12
REMARK    3  A    between atoms: C_12  and  C_13
REMARK    4  A    between atoms: N_24  and  N_25
REMARK    5  A    between atoms: C_26  and  C_27
REMARK                            x       y       z     vdW  Elec       q    Type
REMARK                         _______ _______ _______ _____ _____    ______ ____
ROOT
ATOM      1  C   UNL     1       7.259   0.278  -0.070  0.00  0.00    +0.222 C 
ATOM      2  N   UNL     1       7.202   1.128  -1.266  0.00  0.00    -0.321 N 
ATOM      3  C   UNL     1       6.285   2.172  -1.294  0.00  0.00    +0.041 A 
ATOM      4  C   UNL     1       5.726   2.624  -2.477  0.00  0.00    +0.024 A 
ATOM      5  C   UNL     1       4.815   3.663  -2.450  0.00  0.00    +0.002 A 
ATOM      6  C   UNL     1       4.457   4.254  -1.248  0.00  0.00    +0.001 A 
ATOM      7  C   UNL     1       5.006   3.817  -0.061  0.00  0.00    +0.015 A 
ATOM      8  C   UNL     1       5.927   2.773  -0.074  0.00  0.00    +0.059 A 
ATOM      9  C   UNL     1       6.552   2.273   1.164  0.00  0.00    +0.269 C 
ATOM     10  O   UNL     1       6.470   2.912   2.195  0.00  0.00    -0.268 OA
ATOM     11  N   UNL     1       7.215   1.102   1.137  0.00  0.00    -0.165 N 
ATOM     12  H   UNL     1       7.792   0.965  -2.018  0.00  0.00    +0.148 HD
ENDROOT
BRANCH  11  13
ATOM     13  N   UNL     1       7.874   0.665   2.293  0.00  0.00    -0.185 NA
ATOM     14  C   UNL     1       8.418  -0.494   2.320  0.00  0.00    +0.132 C 
BRANCH  14  15
ATOM     15  C   UNL     1       9.031  -1.009   3.597  0.00  0.00    +0.146 C 
ATOM     16  C   UNL     1      10.516  -1.229   3.411  0.00  0.00    +0.013 C 
ATOM     17  C   UNL     1      10.729  -2.546   3.630  0.00  0.00    -0.004 A 
ATOM     18  C   UNL     1      11.940  -3.375   3.602  0.00  0.00    +0.010 A 
ATOM     19  C   UNL     1      11.837  -4.697   3.870  0.00  0.00    +0.001 A 
ATOM     20  C   UNL     1      10.605  -5.293   4.173  0.00  0.00    +0.002 A 
ATOM     21  C   UNL     1       9.450  -4.598   4.218  0.00  0.00    +0.026 A 
ATOM     22  C   UNL     1       9.441  -3.200   3.953  0.00  0.00    +0.043 A 
ATOM     23  N   UNL     1       8.467  -2.320   3.935  0.00  0.00    -0.373 N 
ATOM     24  H   UNL     1       7.532  -2.506   4.115  0.00  0.00    +0.161 HD
ENDBRANCH  14  15
ENDBRANCH  11  13
BRANCH   1  25
ATOM     25  C   UNL     1       6.067  -0.681  -0.073  0.00  0.00    +0.273 C 
BRANCH  25  26
ATOM     26  O   UNL     1       4.851   0.070  -0.060  0.00  0.00    -0.488 OA
BRANCH  26  36
ATOM     27  C   UNL     1      -0.011   1.313  -0.023  0.00  0.00    +0.001 A 
ATOM     28  C   UNL     1       1.169   2.055  -0.021  0.00  0.00    +0.001 A 
ATOM     29  C   UNL     1       2.384   1.440  -0.034  0.00  0.00    +0.012 A 
ATOM     30  C   UNL     1       2.452   0.037  -0.048  0.00  0.00    +0.024 A 
ATOM     31  C   UNL     1       1.253  -0.717  -0.050  0.00  0.00    -0.014 A 
ATOM     32  C   UNL     1       0.017  -0.047  -0.037  0.00  0.00    +0.008 A 
ATOM     33  C   UNL     1       1.321  -2.121  -0.064  0.00  0.00    +0.009 A 
ATOM     34  C   UNL     1       2.535  -2.738  -0.076  0.00  0.00    +0.004 A 
ATOM     35  C   UNL     1       3.716  -2.001  -0.074  0.00  0.00    +0.046 A 
ATOM     36  C   UNL     1       3.691  -0.635  -0.061  0.00  0.00    +0.128 A 
ENDBRANCH  26  36
ENDBRANCH  25  26
ENDBRANCH   1  25
TORSDOF 5
