REMARK  Name = ZINC43258304
REMARK  6 active torsions:
REMARK  status: ('A' for Active; 'I' for Inactive)
REMARK    1  A    between atoms: C_5  and  C_6
REMARK    2  A    between atoms: C_6  and  C_8
REMARK    3  A    between atoms: C_6  and  S_10
REMARK    4  A    between atoms: C_8  and  N_9
REMARK    5  A    between atoms: S_10  and  C_11
REMARK    6  A    between atoms: C_16  and  N_18
REMARK                            x       y       z     vdW  Elec       q    Type
REMARK                         _______ _______ _______ _____ _____    ______ ____
ROOT
ATOM      1  C   UNL     1      -1.125  -0.636  -0.100  0.00  0.00    +0.073 C 
ENDROOT
BRANCH   1   6
ATOM      2  C   UNL     1      -0.152   1.736   0.219  0.00  0.00    +0.014 A 
ATOM      3  C   UNL     1       0.978   2.484   0.495  0.00  0.00    +0.028 A 
ATOM      4  C   UNL     1       2.152   1.842   0.717  0.00  0.00    +0.078 A 
ATOM      5  S   UNL     1       1.677   0.130   0.536  0.00  0.00    -0.081 S 
ATOM      6  C   UNL     1      -0.053   0.386   0.177  0.00  0.00    +0.003 A 
ATOM      7 CL   UNL     1       3.712   2.511   1.082  0.00  0.00    -0.076 Cl
ENDBRANCH   1   6
BRANCH   1   8
ATOM      8  C   UNL     1      -0.743  -1.455  -1.335  0.00  0.00    -0.066 C 
BRANCH   8   9
ATOM      9  N   UNL     1      -1.842  -2.368  -1.676  0.00  0.00    +0.379 N 
ATOM     10  H   UNL     1      -1.632  -2.837  -2.545  0.00  0.00    -0.090 HD
ATOM     11  H   UNL     1      -1.951  -3.052  -0.943  0.00  0.00    -0.090 HD
ATOM     12  H   UNL     1      -2.697  -1.842  -1.776  0.00  0.00    -0.090 HD
ENDBRANCH   8   9
ENDBRANCH   1   8
BRANCH   1  13
ATOM     13  S   UNL     1      -1.292  -1.741   1.330  0.00  0.00    -0.079 S 
BRANCH  13  14
ATOM     14  C   UNL     1      -1.935  -0.701   2.599  0.00  0.00    +0.194 A 
ATOM     15  N   UNL     1      -2.269   0.547   2.304  0.00  0.00    -0.183 NA
ATOM     16  C   UNL     1      -2.758   1.360   3.235  0.00  0.00    +0.276 A 
ATOM     17  O   UNL     1      -3.097   2.634   2.924  0.00  0.00    -0.266 OA
ATOM     18  C   UNL     1      -2.917   0.886   4.531  0.00  0.00    +0.115 A 
ATOM     19  C   UNL     1      -2.555  -0.431   4.806  0.00  0.00    +0.124 A 
ATOM     20  N   UNL     1      -2.077  -1.189   3.822  0.00  0.00    -0.207 NA
BRANCH  19  21
ATOM     21  N   UNL     1      -2.696  -0.946   6.085  0.00  0.00    -0.343 N 
ATOM     22  H   UNL     1      -3.048  -0.388   6.796  0.00  0.00    +0.144 HD
ATOM     23  H   UNL     1      -2.442  -1.864   6.269  0.00  0.00    +0.144 HD
ENDBRANCH  19  21
ENDBRANCH  13  14
ENDBRANCH   1  13
TORSDOF 6
