REMARK  Name = ZINC12218059
REMARK  9 active torsions:
REMARK  status: ('A' for Active; 'I' for Inactive)
REMARK    1  A    between atoms: C_1  and  C_2
REMARK    2  A    between atoms: C_6  and  C_19
REMARK    3  A    between atoms: C_7  and  C_13
REMARK    4  A    between atoms: N_8  and  C_9
REMARK    5  A    between atoms: C_9  and  C_10
REMARK    6  A    between atoms: C_10  and  O_11
REMARK    7  A    between atoms: O_11  and  C_12
REMARK    8  A    between atoms: C_13  and  C_14
REMARK    9  A    between atoms: C_26  and  N_81
REMARK                            x       y       z     vdW  Elec       q    Type
REMARK                         _______ _______ _______ _____ _____    ______ ____
ROOT
ATOM      1  C   UNL     1       0.084  -1.333   4.696  0.00  0.00    +0.252 C 
ATOM      2  O   UNL     1      -0.804  -1.282   5.524  0.00  0.00    -0.270 OA
ATOM      3  N   UNL     1       0.757  -2.485   4.499  0.00  0.00    -0.301 N 
ATOM      4  C   UNL     1       1.831  -2.570   3.498  0.00  0.00    +0.089 C 
ATOM      5  C   UNL     1       3.075  -3.167   4.176  0.00  0.00    -0.059 C 
ATOM      6  C   UNL     1       1.727  -4.245   5.879  0.00  0.00    -0.059 C 
ATOM      7  C   UNL     1       0.432  -3.691   5.276  0.00  0.00    +0.089 C 
ATOM      8  N   UNL     1       2.704  -4.460   4.790  0.00  0.00    +0.385 N 
ATOM      9  H   UNL     1       2.277  -5.059   4.073  0.00  0.00    -0.081 HD
ENDROOT
BRANCH   8  10
ATOM     10  C   UNL     1       3.910  -5.131   5.319  0.00  0.00    -0.065 C 
ATOM     11  C   UNL     1       4.547  -4.294   6.430  0.00  0.00    -0.009 C 
ATOM     12  C   UNL     1       5.790  -5.012   6.960  0.00  0.00    -0.012 C 
ATOM     13  C   UNL     1       6.795  -5.198   5.821  0.00  0.00    +0.007 C 
ATOM     14  C   UNL     1       6.158  -6.035   4.710  0.00  0.00    -0.012 C 
ATOM     15  C   UNL     1       4.915  -5.317   4.181  0.00  0.00    -0.009 C 
ATOM     16  C   UNL     1       5.758  -7.403   5.267  0.00  0.00    +0.007 C 
ATOM     17  C   UNL     1       4.753  -7.216   6.406  0.00  0.00    -0.012 C 
ATOM     18  C   UNL     1       5.391  -6.380   7.517  0.00  0.00    +0.007 C 
ATOM     19  C   UNL     1       3.510  -6.498   5.876  0.00  0.00    -0.009 C 
ENDBRANCH   8  10
BRANCH   1  25
ATOM     20  C   UNL     1       1.364   3.301   1.548  0.00  0.00    +0.063 C 
ATOM     21  C   UNL     1       1.056   2.103   2.409  0.00  0.00    +0.020 A 
ATOM     22  C   UNL     1       1.592   2.029   3.644  0.00  0.00    +0.072 A 
ATOM     23  C   UNL     1       1.306   0.905   4.458  0.00  0.00    +0.194 A 
ATOM     24  O   UNL     1       1.774   0.805   5.581  0.00  0.00    -0.287 OA
ATOM     25  C   UNL     1       0.426  -0.137   3.907  0.00  0.00    +0.103 A 
ATOM     26  C   UNL     1      -0.075   0.038   2.633  0.00  0.00    +0.035 A 
ATOM     27  N   UNL     1       0.247   1.131   1.921  0.00  0.00    -0.345 N 
BRANCH  27  28
ATOM     28  C   UNL     1      -0.299   1.279   0.570  0.00  0.00    +0.150 C 
BRANCH  28  29
ATOM     29  C   UNL     1       0.674   0.675  -0.444  0.00  0.00    +0.181 C 
BRANCH  29  30
ATOM     30  O   UNL     1       0.200   0.926  -1.768  0.00  0.00    -0.381 OA
ATOM     31  C   UNL     1       1.094   0.497  -2.797  0.00  0.00    +0.194 C 
ENDBRANCH  29  30
ENDBRANCH  28  29
ENDBRANCH  27  28
BRANCH  26  32
ATOM     32  C   UNL     1      -0.985  -1.004   2.036  0.00  0.00    +0.057 C 
BRANCH  32  33
ATOM     33  C   UNL     1      -2.443  -0.586   2.239  0.00  0.00    -0.005 C 
ATOM     34  C   UNL     1      -2.827  -0.715   3.727  0.00  0.00    +0.004 C 
ATOM     35  C   UNL     1      -4.293  -1.217   3.697  0.00  0.00    +0.000 C 
ATOM     36  C   UNL     1      -4.295  -2.200   2.500  0.00  0.00    +0.000 C 
ATOM     37  C   UNL     1      -3.375  -1.529   1.459  0.00  0.00    +0.004 C 
ENDBRANCH  32  33
ENDBRANCH  26  32
ENDBRANCH   1  25
TORSDOF 7
