REMARK  Name = ZINC40476136
REMARK  7 active torsions:
REMARK  status: ('A' for Active; 'I' for Inactive)
REMARK    1  A    between atoms: C_1  and  O_2
REMARK    2  A    between atoms: O_2  and  C_3
REMARK    3  A    between atoms: C_6  and  C_9
REMARK    4  A    between atoms: C_9  and  C_10
REMARK    5  A    between atoms: N_16  and  N_17
REMARK    6  A    between atoms: C_18  and  C_19
REMARK    7  A    between atoms: C_28  and  C_29
REMARK                            x       y       z     vdW  Elec       q    Type
REMARK                         _______ _______ _______ _____ _____    ______ ____
ROOT
ATOM      1  N   UNL     1       7.754  -1.138  -6.945  0.00  0.00    -0.155 NA
ATOM      2  C   UNL     1       8.691  -0.367  -7.432  0.00  0.00    +0.145 C 
ENDROOT
BRANCH   2   3
ATOM      3  C   UNL     1       9.514  -0.831  -8.551  0.00  0.00    +0.028 A 
ATOM      4  C   UNL     1       9.412  -2.127  -9.244  0.00  0.00    +0.009 A 
ATOM      5  C   UNL     1       8.585  -3.239  -9.087  0.00  0.00    +0.010 A 
ATOM      6  C   UNL     1       8.742  -4.328  -9.915  0.00  0.00    +0.001 A 
ATOM      7  C   UNL     1       9.718  -4.323 -10.901  0.00  0.00    +0.002 A 
ATOM      8  C   UNL     1      10.542  -3.232 -11.068  0.00  0.00    +0.026 A 
ATOM      9  C   UNL     1      10.400  -2.121 -10.242  0.00  0.00    +0.048 A 
ATOM     10  N   UNL     1      11.065  -0.913 -10.176  0.00  0.00    -0.354 N 
ATOM     11  H   UNL     1      11.796  -0.650 -10.756  0.00  0.00    +0.166 HD
ATOM     12  C   UNL     1      10.539  -0.135  -9.174  0.00  0.00    +0.056 A 
BRANCH  12  13
ATOM     13  C   UNL     1      10.994   1.221  -8.815  0.00  0.00    -0.001 A 
ATOM     14  C   UNL     1      10.062   2.232  -8.570  0.00  0.00    +0.010 A 
ATOM     15  C   UNL     1      10.495   3.498  -8.235  0.00  0.00    +0.001 A 
ATOM     16  C   UNL     1      11.849   3.767  -8.141  0.00  0.00    +0.000 A 
ATOM     17  C   UNL     1      12.778   2.771  -8.382  0.00  0.00    +0.001 A 
ATOM     18  C   UNL     1      12.360   1.499  -8.713  0.00  0.00    +0.010 A 
ENDBRANCH  12  13
ENDBRANCH   2   3
BRANCH   1  24
ATOM     19  C   UNL     1       3.986  -2.723  -4.066  0.00  0.00    +0.144 C 
ATOM     20  C   UNL     1       4.695  -3.423  -5.214  0.00  0.00    +0.232 C 
ATOM     21  O   UNL     1       4.388  -4.538  -5.577  0.00  0.00    -0.274 OA
ATOM     22  N   UNL     1       5.669  -2.740  -5.792  0.00  0.00    -0.263 N 
ATOM     23  C   UNL     1       6.025  -1.470  -5.384  0.00  0.00    +0.183 C 
ATOM     24  N   UNL     1       6.967  -0.694  -5.874  0.00  0.00    -0.127 NA
ATOM     25  S   UNL     1       4.904  -1.128  -4.034  0.00  0.00    -0.075 S 
ATOM     26  H   UNL     1       6.151  -3.146  -6.529  0.00  0.00    +0.157 HD
BRANCH  19  27
ATOM     27  C   UNL     1       2.505  -2.503  -4.381  0.00  0.00    +0.059 C 
BRANCH  27  31
ATOM     28  C   UNL     1       0.606  -0.607  -1.056  0.00  0.00    +0.120 A 
ATOM     29  C   UNL     1       1.173   0.161  -2.062  0.00  0.00    +0.046 A 
ATOM     30  C   UNL     1       1.786  -0.455  -3.136  0.00  0.00    +0.007 A 
ATOM     31  C   UNL     1       1.835  -1.835  -3.209  0.00  0.00    -0.046 A 
ATOM     32  C   UNL     1       1.270  -2.602  -2.207  0.00  0.00    +0.007 A 
ATOM     33  C   UNL     1       0.661  -1.992  -1.128  0.00  0.00    +0.046 A 
BRANCH  28  35
ATOM     34  C   UNL     1      -0.017   1.425   0.010  0.00  0.00    +0.277 C 
ATOM     35  O   UNL     1       0.002  -0.004   0.002  0.00  0.00    -0.495 OA
ENDBRANCH  28  35
ENDBRANCH  27  31
ENDBRANCH  19  27
ENDBRANCH   1  24
TORSDOF 6
