REMARK  Name = ZINC40033153
REMARK  11 active torsions:
REMARK  status: ('A' for Active; 'I' for Inactive)
REMARK    1  A    between atoms: C_1  and  C_2
REMARK    2  A    between atoms: C_2  and  O_3
REMARK    3  A    between atoms: O_3  and  C_4
REMARK    4  A    between atoms: C_7  and  N_10
REMARK    5  A    between atoms: N_17  and  N_18
REMARK    6  A    between atoms: C_19  and  C_20
REMARK    7  A    between atoms: C_23  and  C_26
REMARK    8  A    between atoms: C_26  and  C_27
REMARK    9  A    between atoms: C_26  and  C_28
REMARK   10  A    between atoms: C_36  and  C_37
REMARK   11  A    between atoms: C_36  and  C_38
REMARK                            x       y       z     vdW  Elec       q    Type
REMARK                         _______ _______ _______ _____ _____    ______ ____
ROOT
ATOM      1  N   UNL     1      -1.898  -6.252  -0.716  0.00  0.00    -0.248 N 
ATOM      2  C   UNL     1      -3.122  -6.668  -0.325  0.00  0.00    +0.264 A 
ATOM      3  O   UNL     1      -3.993  -5.861  -0.041  0.00  0.00    -0.267 OA
ATOM      4  C   UNL     1      -3.371  -8.044  -0.252  0.00  0.00    +0.049 A 
ATOM      5  C   UNL     1      -2.354  -8.926  -0.585  0.00  0.00    +0.084 A 
ATOM      6  N   UNL     1      -1.159  -8.458  -0.960  0.00  0.00    -0.214 NA
ATOM      7  C   UNL     1      -0.932  -7.162  -1.031  0.00  0.00    +0.223 A 
ATOM      8  N   UNL     1       0.304  -6.718  -1.425  0.00  0.00    -0.206 N 
ATOM      9  C   UNL     1      -2.620 -10.382  -0.524  0.00  0.00    +0.004 A 
ATOM     10  C   UNL     1      -1.574 -11.299  -0.474  0.00  0.00    +0.010 A 
ATOM     11  C   UNL     1      -1.852 -12.650  -0.411  0.00  0.00    +0.001 A 
ATOM     12  C   UNL     1      -3.164 -13.088  -0.398  0.00  0.00    +0.000 A 
ATOM     13  C   UNL     1      -4.207 -12.180  -0.449  0.00  0.00    +0.004 A 
ATOM     14  C   UNL     1      -3.943 -10.827  -0.515  0.00  0.00    -0.037 A 
ATOM     15  C   UNL     1      -5.071  -9.834  -0.584  0.00  0.00    +0.047 C 
ATOM     16  C   UNL     1      -4.713  -8.562   0.181  0.00  0.00    +0.001 C 
ATOM     17  C   UNL     1      -4.675  -8.869   1.680  0.00  0.00    +0.016 C 
ATOM     18  C   UNL     1      -5.777  -7.496  -0.087  0.00  0.00    +0.016 C 
ATOM     19  H   UNL     1       0.467  -5.768  -1.532  0.00  0.00    +0.177 HD
ENDROOT
BRANCH   1  23
ATOM     20  C   UNL     1      -1.073  -2.172  -0.980  0.00  0.00    +0.121 A 
ATOM     21  C   UNL     1      -0.928  -2.832   0.232  0.00  0.00    +0.047 A 
ATOM     22  C   UNL     1      -1.201  -4.183   0.320  0.00  0.00    +0.030 A 
ATOM     23  C   UNL     1      -1.621  -4.881  -0.805  0.00  0.00    +0.053 A 
ATOM     24  C   UNL     1      -1.766  -4.220  -2.018  0.00  0.00    +0.030 A 
ATOM     25  C   UNL     1      -1.498  -2.868  -2.103  0.00  0.00    +0.047 A 
BRANCH  20  26
ATOM     26  O   UNL     1      -0.805  -0.843  -1.066  0.00  0.00    -0.492 OA
BRANCH  26  28
ATOM     27  C   UNL     1      -0.120   1.291  -0.162  0.00  0.00    +0.048 C 
ATOM     28  C   UNL     1      -0.372  -0.190   0.129  0.00  0.00    +0.225 C 
ENDBRANCH  26  28
ENDBRANCH  20  26
ENDBRANCH   1  23
BRANCH   8  29
ATOM     29  N   UNL     1       1.332  -7.638  -1.673  0.00  0.00    -0.188 NA
ATOM     30  C   UNL     1       2.502  -7.218  -2.047  0.00  0.00    +0.138 C 
BRANCH  30  31
ATOM     31  C   UNL     1       3.584  -8.185  -2.308  0.00  0.00    -0.005 A 
ATOM     32  C   UNL     1       3.351  -9.555  -2.160  0.00  0.00    +0.010 A 
ATOM     33  C   UNL     1       4.367 -10.454  -2.407  0.00  0.00    +0.004 A 
ATOM     34  C   UNL     1       5.615 -10.002  -2.798  0.00  0.00    -0.045 A 
ATOM     35  C   UNL     1       5.853  -8.647  -2.946  0.00  0.00    +0.004 A 
ATOM     36  C   UNL     1       4.844  -7.737  -2.710  0.00  0.00    +0.010 A 
BRANCH  34  37
ATOM     37  C   UNL     1       6.721 -10.991  -3.065  0.00  0.00    +0.013 C 
ATOM     38  C   UNL     1       7.191 -10.852  -4.514  0.00  0.00    +0.012 C 
ATOM     39  C   UNL     1       7.892 -10.713  -2.120  0.00  0.00    +0.012 C 
ENDBRANCH  34  37
ENDBRANCH  30  31
ENDBRANCH   8  29
TORSDOF 6
