REMARK  Name = ZINC39405097
REMARK  11 active torsions:
REMARK  status: ('A' for Active; 'I' for Inactive)
REMARK    1  A    between atoms: C_1  and  C_2
REMARK    2  A    between atoms: C_2  and  C_3
REMARK    3  A    between atoms: C_2  and  C_4
REMARK    4  A    between atoms: C_4  and  C_5
REMARK    5  A    between atoms: C_7  and  C_11
REMARK    6  A    between atoms: C_11  and  N_12
REMARK    7  A    between atoms: C_24  and  N_30
REMARK    8  A    between atoms: C_26  and  O_28
REMARK    9  A    between atoms: O_28  and  C_29
REMARK   10  A    between atoms: C_31  and  C_33
REMARK   11  A    between atoms: C_33  and  C_34
REMARK                            x       y       z     vdW  Elec       q    Type
REMARK                         _______ _______ _______ _____ _____    ______ ____
ROOT
ATOM      1  N   UNL     1      -0.100  -6.296  -0.043  0.00  0.00    +0.381 N 
ATOM      2  C   UNL     1      -1.248  -7.141   0.311  0.00  0.00    -0.078 C 
ATOM      3  C   UNL     1      -1.218  -8.422  -0.526  0.00  0.00    -0.005 C 
ATOM      4  C   UNL     1       0.087  -9.168  -0.262  0.00  0.00    +0.021 C 
ATOM      5  C   UNL     1       1.281  -8.258  -0.539  0.00  0.00    -0.005 C 
ATOM      6  C   UNL     1       1.151  -6.984   0.300  0.00  0.00    -0.078 C 
ATOM      7  C   UNL     1       0.164 -10.412  -1.115  0.00  0.00    -0.034 A 
ATOM      8  C   UNL     1      -0.135 -10.608  -2.453  0.00  0.00    +0.004 A 
ATOM      9  C   UNL     1       0.014 -11.856  -3.024  0.00  0.00    +0.000 A 
ATOM     10  C   UNL     1       0.465 -12.916  -2.258  0.00  0.00    +0.000 A 
ATOM     11  C   UNL     1       0.766 -12.723  -0.924  0.00  0.00    +0.006 A 
ATOM     12  C   UNL     1       0.617 -11.472  -0.350  0.00  0.00    -0.021 A 
ATOM     13  C   UNL     1       0.877 -11.006   1.067  0.00  0.00    +0.133 C 
ATOM     14  C   UNL     1       0.127  -9.662   1.195  0.00  0.00    +0.153 C 
ATOM     15  H   UNL     1      -0.118  -6.107  -1.034  0.00  0.00    -0.082 HD
ENDROOT
BRANCH  13  16
ATOM     16  N   UNL     1       2.313 -10.811   1.282  0.00  0.00    -0.306 N 
ATOM     17  C   UNL     1       3.085 -11.850   1.659  0.00  0.00    +0.218 C 
ATOM     18  O   UNL     1       2.591 -12.945   1.821  0.00  0.00    -0.275 OA
ATOM     19  H   UNL     1       2.709  -9.935   1.153  0.00  0.00    +0.149 HD
BRANCH  17  20
ATOM     20  C   UNL     1       4.562 -11.649   1.881  0.00  0.00    +0.138 C 
BRANCH  20  21
ATOM     21  C   UNL     1       5.190 -12.956   2.293  0.00  0.00    -0.001 A 
ATOM     22  C   UNL     1       5.733 -13.925   1.516  0.00  0.00    +0.011 A 
ATOM     23  C   UNL     1       6.258 -15.052   2.120  0.00  0.00    +0.008 A 
ATOM     24  C   UNL     1       6.214 -15.156   3.471  0.00  0.00    +0.045 A 
ATOM     25  S   UNL     1       5.418 -13.626   3.932  0.00  0.00    -0.101 S 
ENDBRANCH  20  21
ENDBRANCH  17  20
ENDBRANCH  13  16
BRANCH  14  26
ATOM     26  O   UNL     1      -1.194  -9.863   1.700  0.00  0.00    -0.377 OA
ATOM     27  C   UNL     1      -1.317  -9.654   3.109  0.00  0.00    +0.194 C 
ENDBRANCH  14  26
BRANCH   1  28
ATOM     28  C   UNL     1      -0.180  -5.030   0.698  0.00  0.00    -0.046 C 
BRANCH  28  31
ATOM     29  C   UNL     1      -1.416  -2.035  -0.119  0.00  0.00    +0.062 C 
ATOM     30  C   UNL     1      -1.465  -2.886   0.907  0.00  0.00    +0.024 C 
ATOM     31  C   UNL     1      -1.420  -4.254   0.250  0.00  0.00    +0.136 C 
ATOM     32  N   UNL     1      -1.346  -3.930  -1.185  0.00  0.00    -0.182 NA
ATOM     33  N   UNL     1      -1.355  -2.701  -1.293  0.00  0.00    -0.159 NA
BRANCH  29  34
ATOM     34  C   UNL     1      -1.433  -0.534   0.013  0.00  0.00    +0.060 C 
BRANCH  34  36
ATOM     35  C   UNL     1      -0.019   1.526   0.010  0.00  0.00    +0.007 C 
ATOM     36  C   UNL     1       0.002  -0.004   0.002  0.00  0.00    -0.011 C 
ATOM     37  C   UNL     1       0.742  -0.511   1.242  0.00  0.00    +0.007 C 
ENDBRANCH  34  36
ENDBRANCH  29  34
ENDBRANCH  28  31
ENDBRANCH   1  28
TORSDOF 8
