REMARK  Name = ZINC36029677
REMARK  10 active torsions:
REMARK  status: ('A' for Active; 'I' for Inactive)
REMARK    1  A    between atoms: C_1  and  C_2
REMARK    2  A    between atoms: C_2  and  C_3
REMARK    3  A    between atoms: C_3  and  C_5
REMARK    4  A    between atoms: C_3  and  C_6
REMARK    5  A    between atoms: N_10  and  C_29
REMARK    6  A    between atoms: C_18  and  C_20
REMARK    7  A    between atoms: C_29  and  C_31
REMARK    8  A    between atoms: C_29  and  C_32
REMARK    9  A    between atoms: C_32  and  C_33
REMARK   10  A    between atoms: C_33  and  C_34
REMARK                            x       y       z     vdW  Elec       q    Type
REMARK                         _______ _______ _______ _____ _____    ______ ____
ROOT
ATOM      1  C   UNL     1      -1.423  -2.161  -0.007  0.00  0.00    +0.022 C 
ATOM      2  C   UNL     1      -0.697  -2.707   1.204  0.00  0.00    +0.201 C 
ATOM      3  O   UNL     1       0.473  -2.528   1.469  0.00  0.00    -0.277 OA
ATOM      4  N   UNL     1      -1.571  -3.425   1.939  0.00  0.00    -0.311 N 
ATOM      5  C   UNL     1      -2.884  -3.411   1.289  0.00  0.00    +0.006 C 
ATOM      6  N   UNL     1      -2.863  -2.291   0.322  0.00  0.00    +0.401 N 
ATOM      7  C   UNL     1      -3.984  -3.180   2.323  0.00  0.00    +0.025 C 
ATOM      8  C   UNL     1      -3.974  -4.327   3.340  0.00  0.00    +0.108 C 
ATOM      9  N   UNL     1      -4.072  -5.601   2.616  0.00  0.00    -0.298 N 
ATOM     10  C   UNL     1      -3.103  -5.885   1.549  0.00  0.00    +0.108 C 
ATOM     11  C   UNL     1      -3.120  -4.725   0.547  0.00  0.00    +0.025 C 
ATOM     12  C   UNL     1      -5.033  -6.494   2.926  0.00  0.00    +0.247 C 
ATOM     13  O   UNL     1      -5.900  -6.202   3.726  0.00  0.00    -0.270 OA
ATOM     14  H   UNL     1      -3.209  -1.445   0.750  0.00  0.00    -0.082 HD
ATOM     15  H   UNL     1      -3.397  -2.520  -0.503  0.00  0.00    -0.082 HD
ENDROOT
BRANCH  12  16
ATOM     16  C   UNL     1      -5.032  -7.828   2.293  0.00  0.00    +0.041 A 
ATOM     17  C   UNL     1      -3.824  -8.473   2.021  0.00  0.00    +0.017 A 
ATOM     18  C   UNL     1      -3.825  -9.719   1.431  0.00  0.00    +0.050 A 
ATOM     19  C   UNL     1      -5.025 -10.336   1.104  0.00  0.00    +0.166 A 
ATOM     20  C   UNL     1      -6.236  -9.696   1.373  0.00  0.00    +0.167 A 
ATOM     21  C   UNL     1      -6.241  -8.450   1.970  0.00  0.00    +0.062 A 
ATOM     22  O   UNL     1      -7.256 -10.505   0.961  0.00  0.00    -0.453 OA
ATOM     23  C   UNL     1      -6.653 -11.460   0.069  0.00  0.00    +0.466 C 
ATOM     24  O   UNL     1      -5.290 -11.542   0.526  0.00  0.00    -0.453 OA
ENDBRANCH  12  16
BRANCH   1  25
ATOM     25  C   UNL     1      -1.058  -0.692  -0.229  0.00  0.00    -0.020 C 
ATOM     26  C   UNL     1      -1.857  -0.141  -1.412  0.00  0.00    +0.006 C 
BRANCH  25  28
ATOM     27  C   UNL     1       0.828   0.898  -0.628  0.00  0.00    +0.004 C 
ATOM     28  C   UNL     1       0.439  -0.578  -0.528  0.00  0.00    -0.001 C 
ENDBRANCH  25  28
ENDBRANCH   1  25
BRANCH   4  29
ATOM     29  C   UNL     1      -1.256  -4.112   3.194  0.00  0.00    +0.072 C 
ATOM     30  C   UNL     1       0.056  -4.884   3.037  0.00  0.00    +0.028 C 
BRANCH  29  31
ATOM     31  C   UNL     1      -1.111  -3.083   4.317  0.00  0.00    +0.027 C 
BRANCH  31  32
ATOM     32  C   UNL     1      -2.458  -2.398   4.558  0.00  0.00    +0.037 C 
BRANCH  32  33
ATOM     33  C   UNL     1      -2.316  -1.385   5.664  0.00  0.00    -0.047 A 
ATOM     34  C   UNL     1      -2.527  -1.760   6.977  0.00  0.00    +0.003 A 
ATOM     35  C   UNL     1      -2.397  -0.830   7.992  0.00  0.00    +0.000 A 
ATOM     36  C   UNL     1      -2.054   0.475   7.693  0.00  0.00    +0.000 A 
ATOM     37  C   UNL     1      -1.841   0.850   6.380  0.00  0.00    +0.000 A 
ATOM     38  C   UNL     1      -1.967  -0.081   5.365  0.00  0.00    +0.003 A 
ENDBRANCH  32  33
ENDBRANCH  31  32
ENDBRANCH  29  31
ENDBRANCH   4  29
TORSDOF 7
