REMARK  Name = ZINC19299259
REMARK  7 active torsions:
REMARK  status: ('A' for Active; 'I' for Inactive)
REMARK    1  A    between atoms: C_1  and  C_2
REMARK    2  A    between atoms: C_2  and  C_3
REMARK    3  A    between atoms: C_10  and  C_12
REMARK    4  A    between atoms: C_12  and  C_14
REMARK    5  A    between atoms: C_12  and  S_15
REMARK    6  A    between atoms: S_15  and  C_16
REMARK    7  A    between atoms: C_22  and  C_27
REMARK                            x       y       z     vdW  Elec       q    Type
REMARK                         _______ _______ _______ _____ _____    ______ ____
ROOT
ATOM      1  C   UNL     1      -2.546   1.370   1.189  0.00  0.00    +0.171 A 
ATOM      2  N   UNL     1      -2.667   0.060   1.552  0.00  0.00    -0.301 N 
ATOM      3  H   UNL     1      -3.660  -0.365   1.757  0.00  0.00    +0.171 HD
ATOM      4  C   UNL     1      -1.586  -0.734   1.666  0.00  0.00    +0.261 A 
ATOM      5  O   UNL     1      -1.711  -1.903   1.991  0.00  0.00    -0.267 OA
ATOM      6  C   UNL     1      -0.291  -0.191   1.402  0.00  0.00    +0.080 A 
ATOM      7  C   UNL     1       1.012  -0.846   1.459  0.00  0.00    +0.004 A 
ATOM      8  C   UNL     1       2.118  -0.124   1.165  0.00  0.00    +0.056 A 
ATOM      9  S   UNL     1       1.468   1.493   0.790  0.00  0.00    -0.076 S 
ATOM     10  C   UNL     1      -0.259   1.165   1.035  0.00  0.00    +0.117 A 
ATOM     11  N   UNL     1      -1.363   1.897   0.944  0.00  0.00    -0.216 NA
ENDROOT
BRANCH   7  12
ATOM     12  C   UNL     1       1.122  -2.277   1.833  0.00  0.00    -0.016 A 
ATOM     13  C   UNL     1       0.489  -2.750   2.981  0.00  0.00    +0.011 A 
ATOM     14  C   UNL     1       0.590  -4.083   3.322  0.00  0.00    +0.039 A 
ATOM     15  C   UNL     1       1.328  -4.949   2.530  0.00  0.00    +0.123 A 
ATOM     16  C   UNL     1       1.963  -4.482   1.391  0.00  0.00    +0.039 A 
ATOM     17  C   UNL     1       1.863  -3.151   1.040  0.00  0.00    +0.011 A 
ATOM     18  F   UNL     1       1.427  -6.253   2.870  0.00  0.00    -0.205 F 
ENDBRANCH   7  12
BRANCH   1  19
ATOM     19  S   UNL     1      -3.989   2.371   1.052  0.00  0.00    -0.075 S 
BRANCH  19  20
ATOM     20  C   UNL     1      -3.237   3.942   0.562  0.00  0.00    +0.137 C 
ATOM     21  C   UNL     1      -2.588   3.789  -0.815  0.00  0.00    +0.029 C 
BRANCH  20  28
ATOM     22  C   UNL     1      -4.958   7.365   0.382  0.00  0.00    +0.076 C 
ATOM     23  C   UNL     1      -4.881   8.320   1.582  0.00  0.00    +0.022 C 
ATOM     24  C   UNL     1      -3.448   8.839   1.723  0.00  0.00    +0.003 C 
ATOM     25  C   UNL     1      -2.502   7.665   1.981  0.00  0.00    +0.019 C 
ATOM     26  C   UNL     1      -2.552   6.702   0.790  0.00  0.00    +0.108 C 
ATOM     27  N   UNL     1      -3.949   6.311   0.557  0.00  0.00    -0.298 N 
ATOM     28  C   UNL     1      -4.298   5.011   0.501  0.00  0.00    +0.229 C 
ATOM     29  O   UNL     1      -5.466   4.700   0.401  0.00  0.00    -0.274 OA
BRANCH  22  31
ATOM     30  C   UNL     1      -7.396   7.832   0.102  0.00  0.00    +0.006 C 
ATOM     31  C   UNL     1      -6.351   6.736   0.313  0.00  0.00    +0.019 C 
ENDBRANCH  22  31
ENDBRANCH  20  28
ENDBRANCH  19  20
ENDBRANCH   1  19
TORSDOF 5
