REMARK  Name = ZINC19168165
REMARK  3 active torsions:
REMARK  status: ('A' for Active; 'I' for Inactive)
REMARK    1  A    between atoms: C_1  and  C_2
REMARK    2  A    between atoms: C_2  and  C_3
REMARK    3  A    between atoms: C_15  and  C_21
REMARK                            x       y       z     vdW  Elec       q    Type
REMARK                         _______ _______ _______ _____ _____    ______ ____
ROOT
ATOM      1  C   UNL     1       0.072   1.783  -2.277  0.00  0.00    +0.155 C 
ATOM      2  C   UNL     1       0.820   0.474  -2.139  0.00  0.00    +0.053 C 
ATOM      3  C   UNL     1       1.573  -0.173  -3.315  0.00  0.00    -0.002 C 
ATOM      4  C   UNL     1       1.548  -1.679  -2.838  0.00  0.00    +0.004 C 
ATOM      5  C   UNL     1       2.372  -1.643  -1.523  0.00  0.00    +0.004 C 
ATOM      6  C   UNL     1       2.986  -0.227  -1.438  0.00  0.00    -0.008 C 
ATOM      7  C   UNL     1       3.099   0.088  -2.994  0.00  0.00    +0.007 C 
ATOM      8  C   UNL     1       1.972   0.821  -1.143  0.00  0.00    +0.007 C 
ATOM      9  C   UNL     1       1.372   1.558  -0.003  0.00  0.00    +0.078 C 
ATOM     10  C   UNL     1       1.354   2.976  -0.648  0.00  0.00    +0.305 C 
ATOM     11  O   UNL     1       1.674   3.988  -0.071  0.00  0.00    -0.252 OA
ATOM     12  O   UNL     1       0.933   2.934  -1.947  0.00  0.00    -0.445 OA
ATOM     13  N   UNL     1      -0.080   1.229   0.065  0.00  0.00    +0.404 N 
ATOM     14  N   UNL     1      -0.828   1.772  -1.066  0.00  0.00    -0.328 NA
ATOM     15  H   UNL     1      -0.209   0.137   0.064  0.00  0.00    -0.059 HD
ATOM     16  H   UNL     1      -1.154   2.799  -0.842  0.00  0.00    +0.105 HD
ATOM     17  H   UNL     1      -0.508   1.648   0.987  0.00  0.00    -0.059 HD
ENDROOT
BRANCH   9  18
ATOM     18  C   UNL     1       2.108   1.446   1.307  0.00  0.00    -0.045 A 
ATOM     19  C   UNL     1       1.457   0.965   2.428  0.00  0.00    +0.003 A 
ATOM     20  C   UNL     1       2.135   0.858   3.628  0.00  0.00    +0.000 A 
ATOM     21  C   UNL     1       3.460   1.242   3.711  0.00  0.00    +0.000 A 
ATOM     22  C   UNL     1       4.109   1.729   2.592  0.00  0.00    +0.000 A 
ATOM     23  C   UNL     1       3.434   1.831   1.390  0.00  0.00    +0.003 A 
ENDBRANCH   9  18
BRANCH   1  25
ATOM     24  C   UNL     1      -1.561   3.170  -3.562  0.00  0.00    +0.009 C 
ATOM     25  C   UNL     1      -0.666   1.930  -3.609  0.00  0.00    +0.060 C 
ENDBRANCH   1  25
TORSDOF 2
