REMARK  Name = ZINC37573748
REMARK  6 active torsions:
REMARK  status: ('A' for Active; 'I' for Inactive)
REMARK    1  A    between atoms: C_1  and  C_2
REMARK    2  A    between atoms: C_3  and  N_9
REMARK    3  A    between atoms: C_12  and  C_16
REMARK    4  A    between atoms: N_18  and  C_19
REMARK    5  A    between atoms: C_19  and  C_21
REMARK    6  A    between atoms: C_19  and  C_22
REMARK                            x       y       z     vdW  Elec       q    Type
REMARK                         _______ _______ _______ _____ _____    ______ ____
ROOT
ATOM      1  N   UNL     1      -0.010   0.011  -2.413  0.00  0.00    -0.270 N 
ATOM      2  C   UNL     1       1.192   0.440  -3.138  0.00  0.00    +0.115 C 
ATOM      3  C   UNL     1       0.716   0.767  -4.570  0.00  0.00    +0.041 C 
ATOM      4  C   UNL     1      -0.772   1.115  -4.335  0.00  0.00    +0.162 C 
ATOM      5  C   UNL     1      -1.128   0.377  -3.063  0.00  0.00    +0.232 C 
ATOM      6  O   UNL     1      -2.258   0.151  -2.684  0.00  0.00    -0.274 OA
ENDROOT
BRANCH   1   9
ATOM      7  C   UNL     1      -0.018   1.503   0.010  0.00  0.00    +0.047 C 
ATOM      8  C   UNL     1       0.002  -0.004   0.002  0.00  0.00    -0.011 A 
ATOM      9  C   UNL     1       0.006  -0.693  -1.204  0.00  0.00    +0.041 A 
ATOM     10  C   UNL     1       0.025  -2.081  -1.208  0.00  0.00    +0.024 A 
ATOM     11  C   UNL     1       0.040  -2.774  -0.012  0.00  0.00    +0.003 A 
ATOM     12  C   UNL     1       0.035  -2.087   1.187  0.00  0.00    +0.020 A 
ATOM     13  C   UNL     1       0.023  -0.702   1.195  0.00  0.00    +0.046 A 
ATOM     14 CL   UNL     1       0.026   0.157   2.703  0.00  0.00    -0.083 Cl
ENDBRANCH   1   9
BRANCH   4  15
ATOM     15  C   UNL     1      -1.616   0.622  -5.483  0.00  0.00    +0.225 C 
ATOM     16  O   UNL     1      -1.097   0.044  -6.413  0.00  0.00    -0.275 OA
ATOM     17  N   UNL     1      -2.949   0.825  -5.475  0.00  0.00    -0.308 N 
ATOM     18  H   UNL     1      -3.365   1.287  -4.731  0.00  0.00    +0.149 HD
BRANCH  17  19
ATOM     19  C   UNL     1      -3.769   0.346  -6.590  0.00  0.00    +0.100 C 
ATOM     20  C   UNL     1      -4.138  -1.121  -6.359  0.00  0.00    +0.033 C 
BRANCH  19  21
ATOM     21  C   UNL     1      -5.026   1.172  -6.680  0.00  0.00    -0.027 A 
ATOM     22  C   UNL     1      -5.682   1.560  -5.527  0.00  0.00    +0.005 A 
ATOM     23  C   UNL     1      -6.835   2.318  -5.609  0.00  0.00    +0.000 A 
ATOM     24  C   UNL     1      -7.332   2.689  -6.845  0.00  0.00    +0.000 A 
ATOM     25  C   UNL     1      -6.676   2.301  -7.998  0.00  0.00    +0.000 A 
ATOM     26  C   UNL     1      -5.520   1.547  -7.915  0.00  0.00    +0.005 A 
ENDBRANCH  19  21
ENDBRANCH  17  19
ENDBRANCH   4  15
TORSDOF 4
