REMARK  Name = ZINC39321893
REMARK  4 active torsions:
REMARK  status: ('A' for Active; 'I' for Inactive)
REMARK    1  A    between atoms: C_1  and  C_2
REMARK    2  A    between atoms: C_2  and  C_4
REMARK    3  A    between atoms: C_2  and  N_14
REMARK    4  A    between atoms: C_15  and  C_17
REMARK                            x       y       z     vdW  Elec       q    Type
REMARK                         _______ _______ _______ _____ _____    ______ ____
ROOT
ATOM      1  C   UNL     1      -0.019   1.526   0.010  0.00  0.00    +0.028 C 
ATOM      2  C   UNL     1       0.002  -0.004   0.002  0.00  0.00    +0.076 C 
ENDROOT
BRANCH   2   3
ATOM      3  C   UNL     1       0.742  -0.511   1.242  0.00  0.00    -0.010 C 
ATOM      4  C   UNL     1       0.026  -0.018   2.500  0.00  0.00    +0.012 C 
ATOM      5  C   UNL     1       0.766  -0.524   3.740  0.00  0.00    -0.010 C 
ATOM      6  C   UNL     1       2.201   0.005   3.729  0.00  0.00    +0.007 C 
ATOM      7  C   UNL     1       2.917  -0.488   2.470  0.00  0.00    -0.010 C 
ATOM      8  C   UNL     1       2.178   0.019   1.231  0.00  0.00    +0.012 C 
ATOM      9  C   UNL     1       2.938  -2.018   2.462  0.00  0.00    +0.007 C 
ATOM     10  C   UNL     1       1.503  -2.548   2.473  0.00  0.00    -0.010 C 
ATOM     11  C   UNL     1       0.787  -2.054   3.732  0.00  0.00    +0.007 C 
ATOM     12  C   UNL     1       0.763  -2.041   1.233  0.00  0.00    +0.012 C 
ENDBRANCH   2   3
BRANCH   2  13
ATOM     13  N   UNL     1      -1.372  -0.511   0.012  0.00  0.00    -0.310 N 
ATOM     14  C   UNL     1      -2.051  -0.643  -1.145  0.00  0.00    +0.245 C 
ATOM     15  O   UNL     1      -1.524  -0.341  -2.194  0.00  0.00    -0.273 OA
ATOM     16  H   UNL     1      -1.794  -0.752   0.852  0.00  0.00    +0.149 HD
BRANCH  14  17
ATOM     17  C   UNL     1      -3.465  -1.164  -1.134  0.00  0.00    +0.251 C 
ATOM     18  C   UNL     1      -3.477  -2.682  -1.078  0.00  0.00    +0.046 C 
ATOM     19  C   UNL     1      -4.089  -3.040  -2.211  0.00  0.00    +0.147 C 
ATOM     20  N   UNL     1      -4.441  -1.952  -2.930  0.00  0.00    -0.161 NA
ATOM     21  N   UNL     1      -4.138  -0.871  -2.411  0.00  0.00    -0.170 NA
ATOM     22  I   UNL     1      -2.712  -3.925   0.424  0.00  0.00    -0.044 I 
ENDBRANCH  14  17
ENDBRANCH   2  13
TORSDOF 3
