REMARK  Name = ZINC10811914
REMARK  5 active torsions:
REMARK  status: ('A' for Active; 'I' for Inactive)
REMARK    1  A    between atoms: C_5  and  S_6
REMARK    2  A    between atoms: S_6  and  N_9
REMARK    3  A    between atoms: C_14  and  C_16
REMARK    4  A    between atoms: N_18  and  C_19
REMARK    5  A    between atoms: C_20  and  C_29
REMARK                            x       y       z     vdW  Elec       q    Type
REMARK                         _______ _______ _______ _____ _____    ______ ____
ROOT
ATOM      1  C   UNL     1      -2.809   1.421   2.585  0.00  0.00    +0.236 C 
ATOM      2  O   UNL     1      -3.838   2.054   2.478  0.00  0.00    -0.274 OA
ATOM      3  N   UNL     1      -2.296   1.171   3.806  0.00  0.00    -0.278 N 
ATOM      4  H   UNL     1      -1.472   0.665   3.891  0.00  0.00    +0.155 HD
ENDROOT
BRANCH   3   5
ATOM      5  C   UNL     1      -2.945   1.635   4.940  0.00  0.00    +0.084 A 
ATOM      6  C   UNL     1      -2.577   1.481   6.267  0.00  0.00    +0.068 A 
ATOM      7  C   UNL     1      -3.437   2.074   7.282  0.00  0.00    -0.023 A 
ATOM      8  C   UNL     1      -4.525   2.714   6.803  0.00  0.00    -0.004 A 
ATOM      9  S   UNL     1      -4.407   2.557   5.042  0.00  0.00    -0.077 S 
ATOM     10  C   UNL     1      -5.598   3.406   7.583  0.00  0.00    +0.043 C 
ATOM     11  C   UNL     1      -4.951   4.343   8.612  0.00  0.00    +0.005 C 
ATOM     12  C   UNL     1      -4.721   3.560   9.901  0.00  0.00    +0.001 C 
ATOM     13  C   UNL     1      -4.410   2.099   9.581  0.00  0.00    +0.005 C 
ATOM     14  C   UNL     1      -3.122   1.994   8.771  0.00  0.00    +0.037 C 
BRANCH   6  15
ATOM     15  C   UNL     1      -1.364   0.745   6.637  0.00  0.00    +0.244 C 
ATOM     16  O   UNL     1      -0.303   1.333   6.740  0.00  0.00    -0.270 OA
ATOM     17  N   UNL     1      -1.423  -0.582   6.863  0.00  0.00    -0.325 N 
ATOM     18  H   UNL     1      -2.269  -1.051   6.781  0.00  0.00    +0.145 HD
ATOM     19  H   UNL     1      -0.621  -1.069   7.108  0.00  0.00    +0.145 HD
ENDBRANCH   6  15
ENDBRANCH   3   5
BRANCH   1  25
ATOM     20  N   UNL     1      -3.025   0.087   0.564  0.00  0.00    -0.164 NA
ATOM     21  C   UNL     1      -2.591  -0.390  -0.756  0.00  0.00    +0.110 C 
ATOM     22  C   UNL     1      -2.134   0.812  -1.589  0.00  0.00    +0.017 C 
ATOM     23  C   UNL     1      -1.062   1.585  -0.817  0.00  0.00    +0.003 C 
ATOM     24  C   UNL     1      -1.652   2.103   0.497  0.00  0.00    +0.030 C 
ATOM     25  C   UNL     1      -2.104   0.916   1.353  0.00  0.00    +0.166 C 
BRANCH  20  26
ATOM     26  S   UNL     1      -4.523  -0.302   1.151  0.00  0.00    +0.068 S 
ATOM     27  O   UNL     1      -4.913  -1.506   0.503  0.00  0.00    -0.152 OA
ATOM     28  O   UNL     1      -4.448  -0.188   2.565  0.00  0.00    -0.152 OA
BRANCH  26  33
ATOM     29  C   UNL     1      -6.374   0.996  -0.534  0.00  0.00    +0.038 A 
ATOM     30  C   UNL     1      -7.191   2.089  -0.758  0.00  0.00    +0.030 A 
ATOM     31  C   UNL     1      -7.231   3.080   0.167  0.00  0.00    +0.080 A 
ATOM     32  S   UNL     1      -6.096   2.475   1.405  0.00  0.00    -0.057 S 
ATOM     33  C   UNL     1      -5.638   0.948   0.603  0.00  0.00    +0.144 A 
ATOM     34 CL   UNL     1      -8.152   4.551   0.153  0.00  0.00    -0.076 Cl
ENDBRANCH  26  33
ENDBRANCH  20  26
ENDBRANCH   1  25
TORSDOF 5
