REMARK  Name = ZINC20368338
REMARK  8 active torsions:
REMARK  status: ('A' for Active; 'I' for Inactive)
REMARK    1  A    between atoms: C_1  and  C_2
REMARK    2  A    between atoms: C_5  and  S_8
REMARK    3  A    between atoms: S_8  and  N_11
REMARK    4  A    between atoms: N_11  and  C_12
REMARK    5  A    between atoms: C_17  and  C_18
REMARK    6  A    between atoms: N_19  and  C_20
REMARK    7  A    between atoms: C_21  and  C_31
REMARK    8  A    between atoms: C_26  and  C_30
REMARK                            x       y       z     vdW  Elec       q    Type
REMARK                         _______ _______ _______ _____ _____    ______ ____
ROOT
ATOM      1  C   UNL     1       0.954  -0.108  -0.010  0.00  0.00    +0.057 A 
ATOM      2  C   UNL     1       1.177   1.239   0.239  0.00  0.00    +0.025 A 
ATOM      3  C   UNL     1       2.458   1.697   0.472  0.00  0.00    +0.002 A 
ATOM      4  C   UNL     1       3.531   0.820   0.460  0.00  0.00    +0.001 A 
ATOM      5  C   UNL     1       3.332  -0.521   0.214  0.00  0.00    +0.011 A 
ATOM      6  C   UNL     1       2.039  -1.002  -0.024  0.00  0.00    +0.015 A 
ENDROOT
BRANCH   1   7
ATOM      7  N   UNL     1      -0.335  -0.572  -0.244  0.00  0.00    -0.216 N 
ATOM      8  H   UNL     1      -0.651  -1.547   0.156  0.00  0.00    +0.174 HD
BRANCH   7   9
ATOM      9  S   UNL     1      -1.397   0.344  -1.126  0.00  0.00    +0.072 S 
ATOM     10  O   UNL     1      -2.572  -0.439  -1.288  0.00  0.00    -0.150 OA
ATOM     11  O   UNL     1      -1.416   1.632  -0.528  0.00  0.00    -0.150 OA
BRANCH   9  16
ATOM     12  C   UNL     1       0.984   1.033  -6.627  0.00  0.00    +0.044 C 
ATOM     13  C   UNL     1       0.389   0.861  -5.253  0.00  0.00    -0.050 A 
ATOM     14  C   UNL     1      -0.438  -0.214  -4.988  0.00  0.00    +0.005 A 
ATOM     15  C   UNL     1      -0.984  -0.372  -3.728  0.00  0.00    +0.029 A 
ATOM     16  C   UNL     1      -0.701   0.545  -2.733  0.00  0.00    +0.109 A 
ATOM     17  C   UNL     1       0.122   1.622  -2.999  0.00  0.00    +0.029 A 
ATOM     18  C   UNL     1       0.672   1.778  -4.258  0.00  0.00    +0.005 A 
ENDBRANCH   9  16
ENDBRANCH   7   9
ENDBRANCH   1   7
BRANCH   6  19
ATOM     19  C   UNL     1       1.819  -2.429  -0.287  0.00  0.00    +0.121 C 
ATOM     20  N   UNL     1       0.611  -2.873  -0.509  0.00  0.00    -0.254 NA
BRANCH  20  21
ATOM     21  C   UNL     1       0.406  -4.199  -0.753  0.00  0.00    +0.076 A 
ATOM     22  C   UNL     1       0.683  -4.742  -2.003  0.00  0.00    -0.024 A 
ATOM     23  C   UNL     1       0.476  -6.093  -2.244  0.00  0.00    +0.007 A 
ATOM     24  C   UNL     1      -0.008  -6.930  -1.285  0.00  0.00    +0.026 A 
ATOM     25  C   UNL     1      -0.316  -6.450  -0.001  0.00  0.00    +0.049 A 
ATOM     26  C   UNL     1      -0.115  -5.078   0.290  0.00  0.00    +0.027 A 
ATOM     27  C   UNL     1      -0.422  -4.598   1.571  0.00  0.00    -0.038 A 
ATOM     28  C   UNL     1      -0.906  -5.484   2.493  0.00  0.00    +0.021 A 
ATOM     29  C   UNL     1      -1.081  -6.821   2.145  0.00  0.00    +0.083 A 
ATOM     30  N   UNL     1      -0.792  -7.265   0.946  0.00  0.00    -0.361 N 
ATOM     31  C   UNL     1      -0.224  -3.145   1.921  0.00  0.00    +0.044 C 
ATOM     32  C   UNL     1       1.215  -3.859  -3.102  0.00  0.00    +0.046 C 
ATOM     33  H   UNL     1      -0.950  -8.331   0.725  0.00  0.00    +0.165 HD
ENDBRANCH  20  21
ENDBRANCH   6  19
TORSDOF 5
