REMARK  Name = ZINC16880601
REMARK  7 active torsions:
REMARK  status: ('A' for Active; 'I' for Inactive)
REMARK    1  A    between atoms: C_1  and  C_2
REMARK    2  A    between atoms: C_5  and  C_9
REMARK    3  A    between atoms: C_6  and  C_8
REMARK    4  A    between atoms: C_9  and  C_10
REMARK    5  A    between atoms: C_11  and  C_23
REMARK    6  A    between atoms: C_13  and  O_22
REMARK    7  A    between atoms: N_14  and  C_17
REMARK                            x       y       z     vdW  Elec       q    Type
REMARK                         _______ _______ _______ _____ _____    ______ ____
ROOT
ATOM      1  C   UNL     1      -2.132   4.260   5.127  0.00  0.00    +0.043 A 
ATOM      2  C   UNL     1      -3.197   5.095   4.958  0.00  0.00    +0.052 A 
ATOM      3  N   UNL     1      -3.043   6.410   5.104  0.00  0.00    -0.201 NA
ATOM      4  C   UNL     1      -1.876   6.934   5.410  0.00  0.00    +0.299 A 
ATOM      5  N   UNL     1      -0.779   6.153   5.589  0.00  0.00    -0.260 N 
ATOM      6  C   UNL     1      -0.881   4.813   5.459  0.00  0.00    +0.261 A 
ATOM      7  O   UNL     1       0.092   4.096   5.621  0.00  0.00    -0.267 OA
ATOM      8  C   UNL     1      -4.549   4.530   4.608  0.00  0.00    +0.066 C 
ENDROOT
BRANCH   5   9
ATOM      9  C   UNL     1       0.509   6.762   5.929  0.00  0.00    +0.095 C 
ATOM     10  C   UNL     1       0.381   7.578   7.232  0.00  0.00    +0.025 C 
ATOM     11  C   UNL     1       1.286   8.813   6.996  0.00  0.00    +0.002 C 
ATOM     12  C   UNL     1       1.044   9.136   5.501  0.00  0.00    +0.002 C 
ATOM     13  C   UNL     1       0.931   7.752   4.829  0.00  0.00    +0.025 C 
ENDBRANCH   5   9
BRANCH   4  14
ATOM     14  O   UNL     1      -1.765   8.271   5.547  0.00  0.00    -0.479 OA
ATOM     15  H   UNL     1      -2.567   8.794   5.412  0.00  0.00    +0.295 HD
ENDBRANCH   4  14
BRANCH   1  16
ATOM     16  C   UNL     1      -2.293   2.770   4.965  0.00  0.00    +0.077 C 
BRANCH  16  21
ATOM     17  C   UNL     1      -0.931   1.259  -0.443  0.00  0.00    +0.044 C 
ATOM     18  C   UNL     1      -1.286   1.653   0.967  0.00  0.00    -0.050 A 
ATOM     19  C   UNL     1      -1.315   2.988   1.326  0.00  0.00    +0.003 A 
ATOM     20  C   UNL     1      -1.646   3.350   2.618  0.00  0.00    +0.004 A 
ATOM     21  C   UNL     1      -1.938   2.376   3.555  0.00  0.00    -0.040 A 
ATOM     22  C   UNL     1      -1.905   1.042   3.198  0.00  0.00    -0.047 A 
ATOM     23  C   UNL     1      -1.579   0.680   1.904  0.00  0.00    +0.007 A 
ATOM     24  C   UNL     1      -2.223  -0.020   4.219  0.00  0.00    +0.044 C 
ENDBRANCH  16  21
ENDBRANCH   1  16
TORSDOF 4
