REMARK  Name = ZINC12416732
REMARK  10 active torsions:
REMARK  status: ('A' for Active; 'I' for Inactive)
REMARK    1  A    between atoms: C_1  and  N_63
REMARK    2  A    between atoms: C_4  and  N_14
REMARK    3  A    between atoms: C_15  and  C_17
REMARK    4  A    between atoms: C_19  and  S_27
REMARK    5  A    between atoms: C_22  and  N_23
REMARK    6  A    between atoms: N_23  and  C_24
REMARK    7  A    between atoms: N_23  and  C_25
REMARK    8  A    between atoms: S_27  and  N_30
REMARK    9  A    between atoms: N_30  and  C_31
REMARK   10  A    between atoms: N_30  and  C_32
REMARK                            x       y       z     vdW  Elec       q    Type
REMARK                         _______ _______ _______ _____ _____    ______ ____
ROOT
ATOM      1  N   UNL     1      -0.917   3.066   0.051  0.00  0.00    -0.308 N 
ATOM      2  C   UNL     1      -0.465   1.797   0.011  0.00  0.00    +0.246 C 
ATOM      3  O   UNL     1       0.731   1.578  -0.001  0.00  0.00    -0.270 OA
ATOM      4  H   UNL     1      -1.871   3.241   0.057  0.00  0.00    +0.149 HD
ENDROOT
BRANCH   1   8
ATOM      5  C   UNL     1       1.540   8.092  -0.772  0.00  0.00    -0.096 C 
ATOM      6  C   UNL     1       1.392   5.739  -1.323  0.00  0.00    -0.077 C 
ATOM      7  C   UNL     1       0.450   4.534  -1.353  0.00  0.00    +0.004 C 
ATOM      8  C   UNL     1       0.033   4.181   0.078  0.00  0.00    +0.073 C 
ATOM      9  C   UNL     1      -0.629   5.401   0.723  0.00  0.00    -0.004 C 
ATOM     10  C   UNL     1       0.347   6.580   0.694  0.00  0.00    -0.064 C 
ATOM     11  C   UNL     1      -0.316   7.804   1.329  0.00  0.00    -0.015 C 
ATOM     12  C   UNL     1      -0.688   7.486   2.779  0.00  0.00    -0.002 C 
ATOM     13  C   UNL     1      -1.660   6.305   2.810  0.00  0.00    +0.000 C 
ATOM     14  C   UNL     1      -0.999   5.081   2.171  0.00  0.00    +0.004 C 
ATOM     15  N   UNL     1       0.688   6.886  -0.711  0.00  0.00    +0.380 N 
ATOM     16  H   UNL     1      -0.178   7.062  -1.234  0.00  0.00    -0.082 HD
ENDBRANCH   1   8
BRANCH   2  17
ATOM     17  C   UNL     1      -1.420   0.675  -0.016  0.00  0.00    +0.060 A 
ATOM     18  C   UNL     1      -2.796   0.922  -0.002  0.00  0.00    +0.045 A 
ATOM     19  C   UNL     1      -3.683  -0.130  -0.027  0.00  0.00    +0.125 A 
ATOM     20  C   UNL     1      -3.220  -1.437  -0.067  0.00  0.00    +0.069 A 
ATOM     21  C   UNL     1      -1.864  -1.698  -0.082  0.00  0.00    +0.045 A 
ATOM     22  C   UNL     1      -0.954  -0.648  -0.063  0.00  0.00    +0.043 A 
ATOM     23 CL   UNL     1      -4.352  -2.753  -0.099  0.00  0.00    -0.081 Cl
BRANCH  22  24
ATOM     24  N   UNL     1       0.410  -0.907  -0.084  0.00  0.00    -0.335 N 
ATOM     25  C   UNL     1       0.810  -1.717   1.075  0.00  0.00    +0.129 C 
ATOM     26  C   UNL     1       0.804  -1.557  -1.341  0.00  0.00    +0.129 C 
ENDBRANCH  22  24
BRANCH  19  27
ATOM     27  S   UNL     1      -5.417   0.185  -0.009  0.00  0.00    +0.062 S 
ATOM     28  O   UNL     1      -5.573   1.597   0.026  0.00  0.00    -0.153 OA
ATOM     29  O   UNL     1      -5.987  -0.618  -1.033  0.00  0.00    -0.153 OA
BRANCH  27  30
ATOM     30  N   UNL     1      -6.005  -0.392   1.427  0.00  0.00    -0.183 NA
ATOM     31  C   UNL     1      -5.904   0.423   2.641  0.00  0.00    +0.131 C 
ATOM     32  C   UNL     1      -6.625  -1.718   1.485  0.00  0.00    +0.131 C 
ENDBRANCH  27  30
ENDBRANCH  19  27
ENDBRANCH   2  17
TORSDOF 5
