REMARK  Name = ZINC25677462
REMARK  8 active torsions:
REMARK  status: ('A' for Active; 'I' for Inactive)
REMARK    1  A    between atoms: C_1  and  C_2
REMARK    2  A    between atoms: C_5  and  S_9
REMARK    3  A    between atoms: C_6  and  C_8
REMARK    4  A    between atoms: S_9  and  N_12
REMARK    5  A    between atoms: N_15  and  C_18
REMARK    6  A    between atoms: C_18  and  C_20
REMARK    7  A    between atoms: C_18  and  C_21
REMARK    8  A    between atoms: N_26  and  C_27
REMARK                            x       y       z     vdW  Elec       q    Type
REMARK                         _______ _______ _______ _____ _____    ______ ____
ROOT
ATOM      1  N   UNL     1      10.253   4.644   2.438  0.00  0.00    -0.180 NA
ATOM      2  C   UNL     1      10.705   3.248   2.345  0.00  0.00    +0.091 C 
ATOM      3  C   UNL     1      10.153   2.643   1.049  0.00  0.00    -0.060 C 
ATOM      4  N   UNL     1       8.697   2.829   1.006  0.00  0.00    +0.389 N 
ATOM      5  C   UNL     1       8.342   4.254   0.975  0.00  0.00    -0.060 C 
ATOM      6  C   UNL     1       8.819   4.925   2.267  0.00  0.00    +0.091 C 
ATOM      7  H   UNL     1       8.278   2.400   1.929  0.00  0.00    -0.081 HD
ENDROOT
BRANCH   1   8
ATOM      8  S   UNL     1      11.330   5.868   2.727  0.00  0.00    +0.061 S 
ATOM      9  O   UNL     1      10.613   6.888   3.410  0.00  0.00    -0.153 OA
ATOM     10  O   UNL     1      12.496   5.263   3.270  0.00  0.00    -0.153 OA
BRANCH   8  15
ATOM     11  C   UNL     1      12.910   8.160  -2.626  0.00  0.00    +0.044 C 
ATOM     12  C   UNL     1      12.515   7.587  -1.289  0.00  0.00    -0.050 A 
ATOM     13  C   UNL     1      11.782   8.351  -0.399  0.00  0.00    +0.005 A 
ATOM     14  C   UNL     1      11.420   7.826   0.827  0.00  0.00    +0.029 A 
ATOM     15  C   UNL     1      11.791   6.537   1.164  0.00  0.00    +0.108 A 
ATOM     16  C   UNL     1      12.528   5.776   0.277  0.00  0.00    -0.024 A 
ATOM     17  C   UNL     1      12.886   6.299  -0.952  0.00  0.00    +0.008 A 
ATOM     18  C   UNL     1      12.938   4.373   0.646  0.00  0.00    +0.046 C 
ENDBRANCH   8  15
ENDBRANCH   1   8
BRANCH   4  19
ATOM     19  C   UNL     1       8.108   2.115  -0.134  0.00  0.00    +0.017 C 
ATOM     20  C   UNL     1       8.614   2.732  -1.439  0.00  0.00    -0.004 C 
BRANCH  19  21
ATOM     21  C   UNL     1       6.606   2.226  -0.075  0.00  0.00    +0.207 C 
ATOM     22  O   UNL     1       6.079   2.840   0.827  0.00  0.00    -0.277 OA
ATOM     23  N   UNL     1       5.850   1.643  -1.026  0.00  0.00    -0.242 N 
ATOM     24  C   UNL     1       4.507   1.742  -0.974  0.00  0.00    +0.306 C 
ATOM     25  O   UNL     1       3.978   2.358  -0.069  0.00  0.00    -0.252 OA
ATOM     26  N   UNL     1       3.750   1.160  -1.925  0.00  0.00    -0.296 N 
ATOM     27  H   UNL     1       6.328   1.086  -1.845  0.00  0.00    +0.159 HD
ATOM     28  H   UNL     1       4.229   0.603  -2.744  0.00  0.00    +0.151 HD
BRANCH  26  29
ATOM     29  C   UNL     1       2.290   1.268  -1.868  0.00  0.00    +0.074 C 
ATOM     30  C   UNL     1       1.799   2.497  -2.672  0.00  0.00    +0.022 C 
ATOM     31  C   UNL     1       0.340   2.153  -3.036  0.00  0.00    +0.002 C 
ATOM     32  C   UNL     1       0.228   0.619  -2.998  0.00  0.00    +0.002 C 
ATOM     33  C   UNL     1       1.623   0.085  -2.612  0.00  0.00    +0.022 C 
ENDBRANCH  26  29
ENDBRANCH  19  21
ENDBRANCH   4  19
TORSDOF 5
