REMARK  Name = ZINC04493423
REMARK  7 active torsions:
REMARK  status: ('A' for Active; 'I' for Inactive)
REMARK    1  A    between atoms: C_7  and  C_9
REMARK    2  A    between atoms: C_9  and  O_10
REMARK    3  A    between atoms: O_10  and  C_11
REMARK    4  A    between atoms: C_11  and  C_13
REMARK    5  A    between atoms: C_13  and  N_14
REMARK    6  A    between atoms: C_15  and  C_17
REMARK    7  A    between atoms: C_17  and  C_18
REMARK                            x       y       z     vdW  Elec       q    Type
REMARK                         _______ _______ _______ _____ _____    ______ ____
ROOT
ATOM      1  N   UNL     1      -6.329   1.169   1.513  0.00  0.00    -0.305 N 
ATOM      2  C   UNL     1      -5.045   1.513   1.289  0.00  0.00    +0.214 C 
ATOM      3  O   UNL     1      -4.457   2.214   2.085  0.00  0.00    -0.276 OA
ATOM      4  H   UNL     1      -6.799   0.608   0.875  0.00  0.00    +0.149 HD
ENDROOT
BRANCH   1   5
ATOM      5  C   UNL     1      -7.014   1.641   2.718  0.00  0.00    +0.224 C 
BRANCH   5   6
ATOM      6  C   UNL     1      -8.428   1.119   2.729  0.00  0.00    +0.325 C 
ATOM      7  O   UNL     1      -8.823   0.424   1.822  0.00  0.00    -0.249 OA
BRANCH   6   8
ATOM      8  O   UNL     1      -9.249   1.427   3.745  0.00  0.00    -0.454 OA
BRANCH   8   9
ATOM      9  C   UNL     1     -10.597   0.890   3.689  0.00  0.00    +0.327 C 
BRANCH   9  16
ATOM     10  C   UNL     1     -14.815  -0.655   5.912  0.00  0.00    +0.003 C 
ATOM     11  C   UNL     1     -14.001   0.146   6.931  0.00  0.00    +0.019 C 
ATOM     12  C   UNL     1     -13.413   1.385   6.248  0.00  0.00    +0.108 C 
ATOM     13  N   UNL     1     -12.650   0.957   5.068  0.00  0.00    -0.299 N 
ATOM     14  C   UNL     1     -13.313   0.111   4.066  0.00  0.00    +0.108 C 
ATOM     15  C   UNL     1     -13.900  -1.118   4.776  0.00  0.00    +0.019 C 
ATOM     16  C   UNL     1     -11.367   1.337   4.905  0.00  0.00    +0.253 C 
ATOM     17  O   UNL     1     -10.832   2.040   5.737  0.00  0.00    -0.272 OA
ENDBRANCH   9  16
ENDBRANCH   8   9
ENDBRANCH   6   8
ENDBRANCH   5   6
ENDBRANCH   1   5
BRANCH   2  18
ATOM     18  C   UNL     1      -4.340   1.027   0.049  0.00  0.00    +0.102 C 
BRANCH  18  19
ATOM     19  C   UNL     1      -2.904   1.556   0.038  0.00  0.00    -0.020 C 
ATOM     20  C   UNL     1      -2.188   1.063  -1.221  0.00  0.00    +0.011 C 
ATOM     21  C   UNL     1      -0.753   1.593  -1.232  0.00  0.00    -0.010 C 
ATOM     22  C   UNL     1      -0.013   1.086   0.008  0.00  0.00    +0.007 C 
ATOM     23  C   UNL     1      -0.729   1.579   1.267  0.00  0.00    -0.010 C 
ATOM     24  C   UNL     1      -2.164   1.050   1.278  0.00  0.00    +0.011 C 
ATOM     25  C   UNL     1      -0.750   3.109   1.275  0.00  0.00    +0.007 C 
ATOM     26  C   UNL     1      -1.490   3.616   0.036  0.00  0.00    -0.010 C 
ATOM     27  C   UNL     1      -0.773   3.123  -1.223  0.00  0.00    +0.007 C 
ATOM     28  C   UNL     1      -2.925   3.086   0.047  0.00  0.00    +0.011 C 
ENDBRANCH  18  19
ENDBRANCH   2  18
TORSDOF 7
