REMARK  Name = ZINC09429575
REMARK  7 active torsions:
REMARK  status: ('A' for Active; 'I' for Inactive)
REMARK    1  A    between atoms: C_1  and  C_2
REMARK    2  A    between atoms: C_7  and  N_8
REMARK    3  A    between atoms: C_9  and  C_11
REMARK    4  A    between atoms: N_16  and  S_18
REMARK    5  A    between atoms: S_18  and  C_21
REMARK    6  A    between atoms: C_28  and  C_36
REMARK    7  A    between atoms: C_31  and  C_33
REMARK                            x       y       z     vdW  Elec       q    Type
REMARK                         _______ _______ _______ _____ _____    ______ ____
ROOT
ATOM      1  C   UNL     1       4.872   4.236  -0.261  0.00  0.00    +0.091 C 
ATOM      2  C   UNL     1       5.743   3.963   0.968  0.00  0.00    +0.015 C 
ATOM      3  C   UNL     1       7.071   4.712   0.831  0.00  0.00    +0.018 C 
ATOM      4  C   UNL     1       6.797   6.218   0.757  0.00  0.00    +0.109 C 
ATOM      5  N   UNL     1       5.845   6.472  -0.333  0.00  0.00    -0.176 NA
ATOM      6  C   UNL     1       4.574   5.736  -0.347  0.00  0.00    +0.122 C 
ENDROOT
BRANCH   1   8
ATOM      7  N   UNL     1       3.596   2.127  -0.049  0.00  0.00    -0.285 N 
ATOM      8  C   UNL     1       3.579   3.472  -0.140  0.00  0.00    +0.222 C 
ATOM      9  O   UNL     1       2.522   4.067  -0.125  0.00  0.00    -0.275 OA
ATOM     10  H   UNL     1       4.442   1.657   0.020  0.00  0.00    +0.155 HD
BRANCH   7  17
ATOM     11  C   UNL     1       3.559  -0.439   1.178  0.00  0.00    +0.046 C 
ATOM     12  C   UNL     1       2.332   0.153   0.534  0.00  0.00    -0.027 A 
ATOM     13  C   UNL     1       1.145  -0.553   0.528  0.00  0.00    +0.043 A 
ATOM     14  C   UNL     1       0.017  -0.009  -0.063  0.00  0.00    +0.124 A 
ATOM     15  C   UNL     1       0.077   1.244  -0.650  0.00  0.00    +0.040 A 
ATOM     16  C   UNL     1       1.262   1.953  -0.647  0.00  0.00    +0.026 A 
ATOM     17  C   UNL     1       2.394   1.409  -0.054  0.00  0.00    +0.036 A 
ATOM     18  F   UNL     1      -1.143  -0.701  -0.068  0.00  0.00    -0.205 F 
ENDBRANCH   7  17
ENDBRANCH   1   8
BRANCH   5  19
ATOM     19  S   UNL     1       6.199   7.569  -1.523  0.00  0.00    +0.061 S 
ATOM     20  O   UNL     1       7.615   7.676  -1.569  0.00  0.00    -0.153 OA
ATOM     21  O   UNL     1       5.425   7.201  -2.657  0.00  0.00    -0.153 OA
BRANCH  19  22
ATOM     22  C   UNL     1       5.593   9.133  -0.986  0.00  0.00    +0.106 A 
ATOM     23  C   UNL     1       4.304   9.524  -1.301  0.00  0.00    +0.030 A 
ATOM     24  C   UNL     1       3.826  10.745  -0.879  0.00  0.00    +0.026 A 
ATOM     25  C   UNL     1       4.641  11.602  -0.137  0.00  0.00    +0.040 A 
ATOM     26  C   UNL     1       5.932  11.204   0.170  0.00  0.00    -0.022 A 
ATOM     27  C   UNL     1       6.406   9.977  -0.252  0.00  0.00    +0.034 A 
ATOM     28  C   UNL     1       6.596  12.301   0.972  0.00  0.00    +0.059 C 
ATOM     29  C   UNL     1       5.523  13.395   1.095  0.00  0.00    +0.083 C 
ATOM     30  N   UNL     1       4.356  12.870   0.380  0.00  0.00    -0.268 N 
ATOM     31  C   UNL     1       3.181  13.515   0.241  0.00  0.00    +0.223 C 
ATOM     32  O   UNL     1       2.243  12.958  -0.289  0.00  0.00    -0.275 OA
ATOM     33  C   UNL     1       5.181  13.640   2.566  0.00  0.00    +0.029 C 
BRANCH  31  34
ATOM     34  C   UNL     1       3.033  14.928   0.744  0.00  0.00    +0.076 C 
ATOM     35  C   UNL     1       2.028  15.175   1.871  0.00  0.00    +0.013 C 
ATOM     36  C   UNL     1       1.715  15.648   0.451  0.00  0.00    +0.013 C 
ENDBRANCH  31  34
ENDBRANCH  19  22
ENDBRANCH   5  19
TORSDOF 5
