REMARK  Name = ZINC41074247
REMARK  5 active torsions:
REMARK  status: ('A' for Active; 'I' for Inactive)
REMARK    1  A    between atoms: C_1  and  C_2
REMARK    2  A    between atoms: C_4  and  C_29
REMARK    3  A    between atoms: C_9  and  C_14
REMARK    4  A    between atoms: N_18  and  C_22
REMARK    5  A    between atoms: C_22  and  C_23
REMARK                            x       y       z     vdW  Elec       q    Type
REMARK                         _______ _______ _______ _____ _____    ______ ____
ROOT
ATOM      1  C   UNL     1       0.090  -4.963   3.612  0.00  0.00    +0.033 C 
ATOM      2  C   UNL     1       0.006  -6.320   3.573  0.00  0.00    +0.077 C 
ATOM      3  C   UNL     1      -0.101  -7.288   4.681  0.00  0.00    +0.259 C 
ATOM      4  O   UNL     1      -0.126  -6.928   5.844  0.00  0.00    -0.269 OA
ATOM      5  N   UNL     1      -0.168  -8.566   4.348  0.00  0.00    -0.251 N 
ATOM      6  C   UNL     1      -0.139  -8.960   3.059  0.00  0.00    +0.121 C 
ATOM      7  S   UNL     1      -0.214 -10.552   2.432  0.00  0.00    -0.027 S 
ATOM      8  S   UNL     1      -0.013  -7.420   2.164  0.00  0.00    -0.061 S 
ENDROOT
BRANCH   1  17
ATOM      9  C   UNL     1      -3.026  -3.417  -2.922  0.00  0.00    +0.044 C 
ATOM     10  C   UNL     1      -1.966  -3.166  -1.881  0.00  0.00    -0.050 A 
ATOM     11  C   UNL     1      -1.010  -2.181  -2.096  0.00  0.00    +0.008 A 
ATOM     12  C   UNL     1      -0.031  -1.935  -1.158  0.00  0.00    -0.026 A 
ATOM     13  C   UNL     1       0.005  -2.678   0.019  0.00  0.00    +0.052 A 
ATOM     14  C   UNL     1      -0.966  -3.676   0.235  0.00  0.00    -0.000 A 
ATOM     15  C   UNL     1      -1.955  -3.904  -0.734  0.00  0.00    +0.013 A 
ATOM     16  C   UNL     1      -0.944  -4.440   1.426  0.00  0.00    +0.023 A 
ATOM     17  C   UNL     1       0.041  -4.191   2.369  0.00  0.00    +0.041 A 
ATOM     18  C   UNL     1       1.035  -3.140   2.105  0.00  0.00    +0.256 A 
ATOM     19  O   UNL     1       1.907  -2.909   2.923  0.00  0.00    -0.267 OA
ATOM     20  N   UNL     1       0.983  -2.434   0.961  0.00  0.00    -0.321 N 
ATOM     21  H   UNL     1       1.643  -1.742   0.796  0.00  0.00    +0.169 HD
ATOM     22  C   UNL     1       0.999  -0.864  -1.405  0.00  0.00    +0.046 C 
ENDBRANCH   1  17
BRANCH   5  23
ATOM     23  C   UNL     1      -0.275  -9.576   5.404  0.00  0.00    +0.150 C 
BRANCH  23  24
ATOM     24  C   UNL     1      -1.728  -9.833   5.708  0.00  0.00    -0.030 A 
ATOM     25  C   UNL     1      -2.376  -9.083   6.672  0.00  0.00    +0.005 A 
ATOM     26  C   UNL     1      -3.709  -9.319   6.950  0.00  0.00    +0.000 A 
ATOM     27  C   UNL     1      -4.395 -10.304   6.264  0.00  0.00    +0.000 A 
ATOM     28  C   UNL     1      -3.747 -11.053   5.300  0.00  0.00    +0.000 A 
ATOM     29  C   UNL     1      -2.415 -10.815   5.018  0.00  0.00    +0.005 A 
ENDBRANCH  23  24
ENDBRANCH   5  23
TORSDOF 3
