REMARK  Name = ZINC36704398
REMARK  12 active torsions:
REMARK  status: ('A' for Active; 'I' for Inactive)
REMARK    1  A    between atoms: C_1  and  C_2
REMARK    2  A    between atoms: C_2  and  N_3
REMARK    3  A    between atoms: N_3  and  C_4
REMARK    4  A    between atoms: N_3  and  C_6
REMARK    5  A    between atoms: C_4  and  C_5
REMARK    6  A    between atoms: C_6  and  C_7
REMARK    7  A    between atoms: C_7  and  N_8
REMARK    8  A    between atoms: C_12  and  C_19
REMARK    9  A    between atoms: C_15  and  C_18
REMARK   10  A    between atoms: C_20  and  C_22
REMARK   11  A    between atoms: N_27  and  S_28
REMARK   12  A    between atoms: S_28  and  C_31
REMARK                            x       y       z     vdW  Elec       q    Type
REMARK                         _______ _______ _______ _____ _____    ______ ____
ROOT
ATOM      1  N   UNL     1      -0.725  -3.707  -1.726  0.00  0.00    -0.251 N 
ATOM      2  C   UNL     1      -0.590  -4.354  -0.508  0.00  0.00    +0.168 A 
ATOM      3  N   UNL     1      -0.597  -3.842   0.701  0.00  0.00    -0.224 NA
ATOM      4  C   UNL     1      -0.453  -4.599   1.810  0.00  0.00    +0.083 A 
ATOM      5  C   UNL     1      -0.443  -4.177   3.160  0.00  0.00    -0.024 A 
ATOM      6  C   UNL     1      -0.284  -5.083   4.176  0.00  0.00    +0.006 A 
ATOM      7  C   UNL     1      -0.130  -6.438   3.921  0.00  0.00    +0.005 A 
ATOM      8  C   UNL     1      -0.136  -6.886   2.613  0.00  0.00    -0.035 A 
ATOM      9  C   UNL     1      -0.294  -5.986   1.589  0.00  0.00    +0.044 A 
ATOM     10  S   UNL     1      -0.369  -6.097  -0.183  0.00  0.00    -0.052 S 
ATOM     11  C   UNL     1       0.031  -8.354   2.313  0.00  0.00    +0.045 C 
ATOM     12  C   UNL     1      -0.606  -2.715   3.485  0.00  0.00    +0.046 C 
ATOM     13  C   UNL     1      -0.805  -4.425  -2.864  0.00  0.00    +0.240 C 
ATOM     14  O   UNL     1      -0.830  -3.859  -3.937  0.00  0.00    -0.273 OA
ENDROOT
BRANCH  13  15
ATOM     15  C   UNL     1      -0.863  -5.929  -2.804  0.00  0.00    +0.166 C 
ATOM     16  C   UNL     1      -2.228  -6.380  -2.244  0.00  0.00    +0.031 C 
ATOM     17  C   UNL     1      -3.042  -6.697  -3.526  0.00  0.00    +0.019 C 
ATOM     18  C   UNL     1      -1.948  -7.282  -4.453  0.00  0.00    +0.110 C 
ATOM     19  N   UNL     1      -0.736  -6.489  -4.158  0.00  0.00    -0.164 NA
BRANCH  19  20
ATOM     20  S   UNL     1       0.548  -6.264  -5.179  0.00  0.00    +0.068 S 
ATOM     21  O   UNL     1       0.058  -6.465  -6.498  0.00  0.00    -0.152 OA
ATOM     22  O   UNL     1       1.180  -5.056  -4.777  0.00  0.00    -0.152 OA
BRANCH  20  23
ATOM     23  C   UNL     1       1.696  -7.563  -4.865  0.00  0.00    +0.143 A 
ATOM     24  C   UNL     1       1.782  -8.785  -5.444  0.00  0.00    +0.036 A 
ATOM     25  C   UNL     1       2.777  -9.652  -5.035  0.00  0.00    +0.010 A 
ATOM     26  C   UNL     1       3.639  -9.255  -4.067  0.00  0.00    +0.047 A 
ATOM     27  S   UNL     1       3.054  -7.607  -3.707  0.00  0.00    -0.077 S 
ENDBRANCH  20  23
ENDBRANCH  19  20
ENDBRANCH  13  15
BRANCH   1  28
ATOM     28  C   UNL     1      -0.781  -2.244  -1.776  0.00  0.00    +0.097 C 
BRANCH  28  29
ATOM     29  C   UNL     1       0.619  -1.689  -2.046  0.00  0.00    -0.059 C 
BRANCH  29  30
ATOM     30  N   UNL     1       0.581  -0.221  -1.998  0.00  0.00    +0.380 N 
ATOM     31  H   UNL     1      -0.117   0.118  -2.642  0.00  0.00    -0.082 HD
BRANCH  30  33
ATOM     32  C   UNL     1       0.067   1.735  -0.618  0.00  0.00    -0.017 C 
ATOM     33  C   UNL     1       0.245   0.216  -0.636  0.00  0.00    -0.082 C 
ENDBRANCH  30  33
BRANCH  30  34
ATOM     34  C   UNL     1       1.896   0.315  -2.374  0.00  0.00    -0.082 C 
ATOM     35  C   UNL     1       2.182  -0.018  -3.839  0.00  0.00    -0.017 C 
ENDBRANCH  30  34
ENDBRANCH  29  30
ENDBRANCH  28  29
ENDBRANCH   1  28
TORSDOF 8
