REMARK  Name = ZINC13959730
REMARK  9 active torsions:
REMARK  status: ('A' for Active; 'I' for Inactive)
REMARK    1  A    between atoms: C_1  and  C_2
REMARK    2  A    between atoms: C_2  and  N_3
REMARK    3  A    between atoms: C_6  and  C_8
REMARK    4  A    between atoms: C_15  and  C_36
REMARK    5  A    between atoms: C_16  and  C_27
REMARK    6  A    between atoms: C_17  and  C_19
REMARK    7  A    between atoms: C_22  and  O_25
REMARK    8  A    between atoms: O_25  and  C_26
REMARK    9  A    between atoms: N_29  and  C_30
REMARK                            x       y       z     vdW  Elec       q    Type
REMARK                         _______ _______ _______ _____ _____    ______ ____
ROOT
ATOM      1  C   UNL     1      10.852   5.444  -0.106  0.00  0.00    +0.050 C 
ATOM      2  C   UNL     1       9.505   5.539  -0.233  0.00  0.00    +0.082 A 
ATOM      3  C   UNL     1       8.540   4.546  -0.726  0.00  0.00    +0.268 A 
ATOM      4  O   UNL     1       8.906   3.446  -1.097  0.00  0.00    -0.266 OA
ATOM      5  N   UNL     1       7.245   4.887  -0.753  0.00  0.00    -0.275 N 
ATOM      6  C   UNL     1       6.884   6.143  -0.322  0.00  0.00    +0.178 A 
ATOM      7  N   UNL     1       5.652   6.585  -0.305  0.00  0.00    -0.228 NA
ATOM      8  C   UNL     1       4.592   5.891  -0.701  0.00  0.00    +0.051 C 
ATOM      9  C   UNL     1       4.731   4.613  -1.161  0.00  0.00    +0.063 C 
ATOM     10  C   UNL     1       6.122   4.024  -1.215  0.00  0.00    +0.160 C 
ATOM     11  C   UNL     1       3.223   6.517  -0.638  0.00  0.00    +0.066 C 
ATOM     12  S   UNL     1       8.422   6.907   0.153  0.00  0.00    -0.046 S 
ENDROOT
BRANCH  10  13
ATOM     13  C   UNL     1       6.401   3.625  -2.642  0.00  0.00    -0.020 A 
ATOM     14  C   UNL     1       6.686   4.593  -3.586  0.00  0.00    +0.009 A 
ATOM     15  C   UNL     1       6.948   4.230  -4.893  0.00  0.00    +0.046 A 
ATOM     16  C   UNL     1       6.913   2.892  -5.260  0.00  0.00    +0.120 A 
ATOM     17  C   UNL     1       6.621   1.923  -4.311  0.00  0.00    +0.046 A 
ATOM     18  C   UNL     1       6.365   2.291  -3.005  0.00  0.00    +0.009 A 
BRANCH  16  19
ATOM     19  O   UNL     1       7.165   2.532  -6.546  0.00  0.00    -0.495 OA
ATOM     20  C   UNL     1       7.458   3.584  -7.468  0.00  0.00    +0.277 C 
ENDBRANCH  16  19
ENDBRANCH  10  13
BRANCH   1  24
ATOM     21  N   UNL     1      11.917   2.023  -0.723  0.00  0.00    -0.271 N 
ATOM     22  C   UNL     1      13.125   2.614  -0.541  0.00  0.00    +0.109 A 
ATOM     23  C   UNL     1      12.916   3.925  -0.299  0.00  0.00    +0.049 A 
ATOM     24  C   UNL     1      11.521   4.153  -0.324  0.00  0.00    +0.087 A 
ATOM     25  N   UNL     1      10.925   3.003  -0.583  0.00  0.00    -0.172 NA
BRANCH  21  27
ATOM     26  C   UNL     1      10.731   0.018   0.023  0.00  0.00    +0.029 C 
ATOM     27  C   UNL     1      11.689   0.605  -1.015  0.00  0.00    +0.140 C 
ENDBRANCH  21  27
ENDBRANCH   1  24
BRANCH   9  28
ATOM     28  C   UNL     1       3.613   3.868  -1.578  0.00  0.00    +0.248 C 
ATOM     29  O   UNL     1       3.014   3.170  -0.779  0.00  0.00    -0.270 OA
ATOM     30  N   UNL     1       3.204   3.927  -2.861  0.00  0.00    -0.282 N 
ATOM     31  H   UNL     1       3.715   4.437  -3.510  0.00  0.00    +0.155 HD
BRANCH  30  32
ATOM     32  C   UNL     1       2.044   3.254  -3.257  0.00  0.00    +0.034 A 
ATOM     33  C   UNL     1       1.207   2.690  -2.303  0.00  0.00    +0.023 A 
ATOM     34  C   UNL     1       0.062   2.026  -2.697  0.00  0.00    +0.002 A 
ATOM     35  C   UNL     1      -0.251   1.921  -4.040  0.00  0.00    +0.000 A 
ATOM     36  C   UNL     1       0.581   2.481  -4.993  0.00  0.00    +0.002 A 
ATOM     37  C   UNL     1       1.727   3.147  -4.605  0.00  0.00    +0.023 A 
ENDBRANCH  30  32
ENDBRANCH   9  28
TORSDOF 6
