REMARK  Name = ZINC14186513
REMARK  2 active torsions:
REMARK  status: ('A' for Active; 'I' for Inactive)
REMARK    1  A    between atoms: C_9  and  C_12
REMARK    2  A    between atoms: N_14  and  C_15
REMARK                            x       y       z     vdW  Elec       q    Type
REMARK                         _______ _______ _______ _____ _____    ______ ____
ROOT
ATOM      1  C   UNL     1       4.674   2.757   0.266  0.00  0.00    +0.255 C 
ATOM      2  O   UNL     1       4.832   3.589   1.134  0.00  0.00    -0.272 OA
ATOM      3  N   UNL     1       5.688   1.935  -0.071  0.00  0.00    -0.307 N 
ATOM      4  H   UNL     1       5.561   1.270  -0.766  0.00  0.00    +0.149 HD
ENDROOT
BRANCH   1  13
ATOM      5  C   UNL     1      -1.233   3.136   0.030  0.00  0.00    +0.023 A 
ATOM      6  C   UNL     1      -0.048   3.843   0.026  0.00  0.00    +0.047 A 
ATOM      7  C   UNL     1       1.170   3.170   0.014  0.00  0.00    +0.125 A 
ATOM      8  C   UNL     1       1.170   1.781   0.000  0.00  0.00    -0.000 A 
ATOM      9  C   UNL     1      -0.013   1.076   0.008  0.00  0.00    +0.027 A 
ATOM     10  C   UNL     1      -1.221   1.752   0.017  0.00  0.00    +0.041 A 
ATOM     11 CL   UNL     1      -2.715   0.868   0.020  0.00  0.00    -0.084 Cl
ATOM     12  C   UNL     1       2.620   1.337  -0.033  0.00  0.00    +0.093 C 
ATOM     13  C   UNL     1       3.345   2.643  -0.435  0.00  0.00    +0.263 C 
ATOM     14  O   UNL     1       2.440   3.663   0.019  0.00  0.00    -0.479 OA
ENDBRANCH   1  13
BRANCH   3  15
ATOM     15  C   UNL     1       6.979   2.047   0.610  0.00  0.00    +0.035 C 
ATOM     16  C   UNL     1       7.552   3.449   0.392  0.00  0.00    +0.029 C 
ATOM     17  C   UNL     1       8.901   3.565   1.104  0.00  0.00    -0.008 C 
ATOM     18  C   UNL     1       9.869   2.525   0.536  0.00  0.00    +0.007 C 
ATOM     19  C   UNL     1       9.296   1.123   0.755  0.00  0.00    -0.008 C 
ATOM     20  C   UNL     1       7.947   1.006   0.043  0.00  0.00    +0.029 C 
ATOM     21  C   UNL     1       9.105   0.878   2.253  0.00  0.00    +0.007 C 
ATOM     22  C   UNL     1       8.137   1.918   2.821  0.00  0.00    -0.008 C 
ATOM     23  C   UNL     1       8.710   3.320   2.602  0.00  0.00    +0.007 C 
ATOM     24  C   UNL     1       6.788   1.802   2.108  0.00  0.00    +0.029 C 
ENDBRANCH   3  15
TORSDOF 2
