REMARK  Name = ZINC57291954
REMARK  8 active torsions:
REMARK  status: ('A' for Active; 'I' for Inactive)
REMARK    1  A    between atoms: C_1  and  C_2
REMARK    2  A    between atoms: C_5  and  S_8
REMARK    3  A    between atoms: S_8  and  C_11
REMARK    4  A    between atoms: C_11  and  N_15
REMARK    5  A    between atoms: N_18  and  C_19
REMARK    6  A    between atoms: C_19  and  C_20
REMARK    7  A    between atoms: C_19  and  C_21
REMARK    8  A    between atoms: C_19  and  C_22
REMARK                            x       y       z     vdW  Elec       q    Type
REMARK                         _______ _______ _______ _____ _____    ______ ____
ROOT
ATOM      1  C   UNL     1       1.794  -4.954   0.073  0.00  0.00    +0.186 C 
ATOM      2  C   UNL     1       2.480  -5.295  -1.002  0.00  0.00    +0.146 C 
ATOM      3 CL   UNL     1       4.179  -5.629  -0.878  0.00  0.00    -0.067 Cl
ATOM      4 CL   UNL     1       1.683  -5.409  -2.540  0.00  0.00    -0.067 Cl
ENDROOT
BRANCH   1   5
ATOM      5  N   UNL     1       2.435  -4.863   1.311  0.00  0.00    -0.252 N 
ATOM      6  C   UNL     1       3.039  -3.714   1.673  0.00  0.00    +0.305 C 
ATOM      7  O   UNL     1       3.086  -2.780   0.896  0.00  0.00    -0.252 OA
ATOM      8  N   UNL     1       3.592  -3.600   2.897  0.00  0.00    -0.294 N 
ATOM      9  H   UNL     1       2.445  -5.626   1.909  0.00  0.00    +0.158 HD
ATOM     10  H   UNL     1       3.555  -4.345   3.517  0.00  0.00    +0.151 HD
BRANCH   8  11
ATOM     11  C   UNL     1       4.249  -2.351   3.291  0.00  0.00    +0.028 C 
ATOM     12  C   UNL     1       3.239  -1.204   3.234  0.00  0.00    +0.031 C 
ATOM     13  C   UNL     1       4.787  -2.486   4.717  0.00  0.00    +0.031 C 
ATOM     14  C   UNL     1       5.406  -2.060   2.334  0.00  0.00    +0.031 C 
ENDBRANCH   8  11
ENDBRANCH   1   5
BRANCH   1  15
ATOM     15  S   UNL     1       0.069  -4.615  -0.053  0.00  0.00    +0.041 S 
ATOM     16  O   UNL     1      -0.179  -4.274  -1.409  0.00  0.00    -0.163 OA
ATOM     17  O   UNL     1      -0.253  -3.745   1.023  0.00  0.00    -0.163 OA
BRANCH  15  22
ATOM     18  C   UNL     1      -2.851  -9.792   0.985  0.00  0.00    +0.044 C 
ATOM     19  C   UNL     1      -2.122  -8.499   0.726  0.00  0.00    -0.050 A 
ATOM     20  C   UNL     1      -1.737  -7.698   1.785  0.00  0.00    +0.005 A 
ATOM     21  C   UNL     1      -1.068  -6.512   1.547  0.00  0.00    +0.027 A 
ATOM     22  C   UNL     1      -0.783  -6.127   0.250  0.00  0.00    +0.095 A 
ATOM     23  C   UNL     1      -1.166  -6.929  -0.809  0.00  0.00    +0.027 A 
ATOM     24  C   UNL     1      -1.832  -8.117  -0.571  0.00  0.00    +0.005 A 
ENDBRANCH  15  22
ENDBRANCH   1  15
TORSDOF 4
