REMARK  Name = ZINC15730984
REMARK  7 active torsions:
REMARK  status: ('A' for Active; 'I' for Inactive)
REMARK    1  A    between atoms: C_1  and  C_2
REMARK    2  A    between atoms: C_10  and  S_15
REMARK    3  A    between atoms: S_15  and  N_18
REMARK    4  A    between atoms: N_18  and  C_19
REMARK    5  A    between atoms: C_19  and  C_20
REMARK    6  A    between atoms: C_25  and  C_26
REMARK    7  A    between atoms: C_25  and  N_57
REMARK                            x       y       z     vdW  Elec       q    Type
REMARK                         _______ _______ _______ _____ _____    ______ ____
ROOT
ATOM      1  S   UNL     1       1.216  -2.446  -0.025  0.00  0.00    +0.058 S 
ATOM      2  O   UNL     1       2.469  -2.849   0.512  0.00  0.00    -0.153 OA
ATOM      3  O   UNL     1      -0.021  -2.864   0.534  0.00  0.00    -0.153 OA
ENDROOT
BRANCH   1  12
ATOM      4  C   UNL     1       2.264   5.694   1.733  0.00  0.00    +0.020 C 
ATOM      5  C   UNL     1       1.744   4.255   1.693  0.00  0.00    +0.057 C 
ATOM      6  C   UNL     1       2.877   3.279   2.053  0.00  0.00    +0.110 C 
ATOM      7  C   UNL     1       3.798   3.092   0.884  0.00  0.00    +0.218 C 
ATOM      8  O   UNL     1       4.748   3.835   0.750  0.00  0.00    -0.275 OA
ATOM      9  N   UNL     1       3.593   2.121  -0.014  0.00  0.00    -0.284 N 
ATOM     10  C   UNL     1       2.391   1.396  -0.011  0.00  0.00    +0.049 A 
ATOM     11  C   UNL     1       2.402   0.011  -0.020  0.00  0.00    +0.053 A 
ATOM     12  C   UNL     1       1.206  -0.685  -0.013  0.00  0.00    +0.107 A 
ATOM     13  C   UNL     1       0.002  -0.004   0.002  0.00  0.00    +0.030 A 
ATOM     14  C   UNL     1      -0.017   1.379   0.010  0.00  0.00    +0.018 A 
ATOM     15  C   UNL     1       1.178   2.080   0.002  0.00  0.00    +0.029 A 
ATOM     16  S   UNL     1       1.185   3.844   0.006  0.00  0.00    -0.120 S 
ATOM     17  H   UNL     1       4.277   1.918  -0.671  0.00  0.00    +0.155 HD
ENDBRANCH   1  12
BRANCH   1  18
ATOM     18  N   UNL     1       1.205  -2.926  -1.610  0.00  0.00    -0.190 NA
ATOM     19  H   UNL     1       0.444  -3.410  -1.965  0.00  0.00    +0.148 HD
BRANCH  18  20
ATOM     20  C   UNL     1       2.346  -2.618  -2.477  0.00  0.00    +0.109 C 
BRANCH  20  21
ATOM     21  C   UNL     1       2.266  -3.468  -3.746  0.00  0.00    +0.001 C 
ATOM     22  C   UNL     1       2.431  -4.946  -3.382  0.00  0.00    -0.014 C 
ATOM     23  C   UNL     1       2.412  -5.786  -4.662  0.00  0.00    -0.078 C 
ATOM     24  C   UNL     1       3.339  -3.953  -5.948  0.00  0.00    -0.078 C 
ATOM     25  C   UNL     1       3.386  -3.059  -4.707  0.00  0.00    -0.014 C 
ATOM     26  N   UNL     1       3.528  -5.360  -5.533  0.00  0.00    +0.384 N 
ATOM     27  H   UNL     1       4.407  -5.437  -5.009  0.00  0.00    -0.081 HD
BRANCH  26  28
ATOM     28  C   UNL     1       3.600  -6.232  -6.723  0.00  0.00    -0.003 C 
BRANCH  28  29
ATOM     29  C   UNL     1       4.009  -7.615  -6.287  0.00  0.00    +0.089 A 
ATOM     30  C   UNL     1       3.173  -8.611  -5.944  0.00  0.00    +0.042 A 
ATOM     31  C   UNL     1       3.977  -9.723  -5.606  0.00  0.00    +0.041 A 
ATOM     32  C   UNL     1       5.257  -9.341  -5.762  0.00  0.00    +0.195 A 
ATOM     33  O   UNL     1       5.270  -8.064  -6.181  0.00  0.00    -0.470 OA
ENDBRANCH  28  29
ENDBRANCH  26  28
ENDBRANCH  20  21
ENDBRANCH  18  20
ENDBRANCH   1  18
TORSDOF 6
