REMARK  Name = ZINC39666593
REMARK  9 active torsions:
REMARK  status: ('A' for Active; 'I' for Inactive)
REMARK    1  A    between atoms: C_1  and  C_2
REMARK    2  A    between atoms: C_4  and  C_11
REMARK    3  A    between atoms: C_5  and  C_7
REMARK    4  A    between atoms: C_15  and  C_24
REMARK    5  A    between atoms: N_26  and  C_27
REMARK    6  A    between atoms: C_27  and  C_28
REMARK    7  A    between atoms: C_28  and  C_30
REMARK    8  A    between atoms: C_28  and  O_31
REMARK    9  A    between atoms: O_31  and  C_32
REMARK                            x       y       z     vdW  Elec       q    Type
REMARK                         _______ _______ _______ _____ _____    ______ ____
ROOT
ATOM      1  C   UNL     1      -1.284  -3.179   0.049  0.00  0.00    +0.250 C 
ATOM      2  O   UNL     1      -0.694  -4.237  -0.056  0.00  0.00    -0.270 OA
ATOM      3  N   UNL     1      -2.628  -3.164   0.148  0.00  0.00    -0.296 N 
ATOM      4  C   UNL     1      -3.525  -1.984   0.160  0.00  0.00    +0.121 C 
ATOM      5  C   UNL     1      -4.749  -2.416  -0.679  0.00  0.00    +0.100 C 
ATOM      6  C   UNL     1      -4.756  -3.951  -0.602  0.00  0.00    -0.004 C 
ATOM      7  C   UNL     1      -3.544  -4.324   0.264  0.00  0.00    +0.115 C 
ATOM      8  C   UNL     1      -4.606  -4.552  -1.996  0.00  0.00    -0.010 C 
ATOM      9  C   UNL     1      -4.673  -6.079  -1.900  0.00  0.00    -0.082 C 
ATOM     10  N   UNL     1      -5.957  -6.477  -1.310  0.00  0.00    +0.379 N 
ATOM     11  C   UNL     1      -6.054  -5.973   0.066  0.00  0.00    -0.082 C 
ATOM     12  C   UNL     1      -6.045  -4.441   0.052  0.00  0.00    -0.010 C 
ATOM     13  H   UNL     1      -6.712  -6.095  -1.860  0.00  0.00    -0.086 HD
ATOM     14  H   UNL     1      -6.025  -7.483  -1.303  0.00  0.00    -0.086 HD
ENDROOT
BRANCH   1  18
ATOM     15  C   UNL     1       0.087   1.663   0.884  0.00  0.00    +0.086 C 
ATOM     16  C   UNL     1       0.057   0.222   0.445  0.00  0.00    +0.103 A 
ATOM     17  C   UNL     1      -0.943  -0.641   0.678  0.00  0.00    +0.058 A 
ATOM     18  C   UNL     1      -0.530  -1.913   0.068  0.00  0.00    +0.087 A 
ATOM     19  C   UNL     1       0.698  -1.677  -0.478  0.00  0.00    +0.220 A 
ATOM     20  O   UNL     1       1.024  -0.402  -0.246  0.00  0.00    -0.455 OA
BRANCH  19  21
ATOM     21  C   UNL     1       1.541  -2.681  -1.220  0.00  0.00    +0.451 C 
ATOM     22  F   UNL     1       1.229  -2.634  -2.583  0.00  0.00    -0.163 F 
ATOM     23  F   UNL     1       2.895  -2.378  -1.041  0.00  0.00    -0.163 F 
ATOM     24  F   UNL     1       1.281  -3.964  -0.727  0.00  0.00    -0.163 F 
ENDBRANCH  19  21
ENDBRANCH   1  18
BRANCH   5  25
ATOM     25  C   UNL     1      -6.015  -1.852  -0.089  0.00  0.00    +0.218 C 
ATOM     26  O   UNL     1      -6.064  -1.575   1.091  0.00  0.00    -0.275 OA
ATOM     27  N   UNL     1      -7.094  -1.655  -0.872  0.00  0.00    -0.312 N 
ATOM     28  H   UNL     1      -7.056  -1.876  -1.816  0.00  0.00    +0.149 HD
BRANCH  27  29
ATOM     29  C   UNL     1      -8.326  -1.107  -0.298  0.00  0.00    +0.148 C 
BRANCH  29  30
ATOM     30  C   UNL     1      -9.388  -0.984  -1.392  0.00  0.00    +0.187 C 
ATOM     31  C   UNL     1     -10.674  -0.411  -0.793  0.00  0.00    +0.053 C 
BRANCH  30  32
ATOM     32  O   UNL     1      -8.914  -0.113  -2.421  0.00  0.00    -0.486 OA
BRANCH  32  33
ATOM     33  C   UNL     1      -9.296  -0.397  -3.695  0.00  0.00    +0.139 A 
ATOM     34  C   UNL     1     -10.209  -1.413  -3.936  0.00  0.00    +0.047 A 
ATOM     35  C   UNL     1     -10.597  -1.699  -5.231  0.00  0.00    +0.004 A 
ATOM     36  C   UNL     1     -10.074  -0.975  -6.286  0.00  0.00    +0.002 A 
ATOM     37  C   UNL     1      -9.164   0.038  -6.050  0.00  0.00    +0.023 A 
ATOM     38  C   UNL     1      -8.777   0.333  -4.755  0.00  0.00    +0.083 A 
ATOM     39 CL   UNL     1      -7.639   1.609  -4.458  0.00  0.00    -0.080 Cl
ENDBRANCH  32  33
ENDBRANCH  30  32
ENDBRANCH  29  30
ENDBRANCH  27  29
ENDBRANCH   5  25
TORSDOF 7
