REMARK  Name = ZINC28956127
REMARK  11 active torsions:
REMARK  status: ('A' for Active; 'I' for Inactive)
REMARK    1  A    between atoms: C_1  and  C_2
REMARK    2  A    between atoms: C_4  and  N_33
REMARK    3  A    between atoms: C_6  and  C_32
REMARK    4  A    between atoms: C_7  and  C_8
REMARK    5  A    between atoms: C_8  and  N_9
REMARK    6  A    between atoms: C_10  and  C_12
REMARK    7  A    between atoms: C_12  and  C_13
REMARK    8  A    between atoms: C_17  and  N_20
REMARK    9  A    between atoms: N_20  and  C_21
REMARK   10  A    between atoms: C_21  and  C_22
REMARK   11  A    between atoms: C_22  and  C_23
REMARK                            x       y       z     vdW  Elec       q    Type
REMARK                         _______ _______ _______ _____ _____    ______ ____
ROOT
ATOM      1  C   UNL     1      -3.017   1.789   5.899  0.00  0.00    +0.017 A 
ATOM      2  C   UNL     1      -2.990   1.068   7.080  0.00  0.00    +0.047 A 
ATOM      3  C   UNL     1      -2.989   1.727   8.296  0.00  0.00    +0.022 A 
ATOM      4  C   UNL     1      -3.014   3.108   8.336  0.00  0.00    +0.027 A 
ATOM      5  C   UNL     1      -3.040   3.835   7.154  0.00  0.00    +0.063 A 
ATOM      6  C   UNL     1      -3.036   3.171   5.932  0.00  0.00    +0.149 A 
ATOM      7  F   UNL     1      -3.057   3.875   4.779  0.00  0.00    -0.203 F 
ATOM      8 CL   UNL     1      -2.959  -0.667   7.035  0.00  0.00    -0.083 Cl
ENDROOT
BRANCH   5   9
ATOM      9  N   UNL     1      -3.066   5.234   7.192  0.00  0.00    -0.336 N 
ATOM     10  H   UNL     1      -3.084   5.741   6.365  0.00  0.00    +0.146 HD
BRANCH   9  11
ATOM     11  C   UNL     1      -3.065   5.931   8.480  0.00  0.00    +0.182 C 
BRANCH  11  12
ATOM     12  C   UNL     1      -3.096   7.442   8.241  0.00  0.00    +0.289 C 
ATOM     13  F   UNL     1      -1.969   7.821   7.505  0.00  0.00    -0.199 F 
ATOM     14  F   UNL     1      -4.253   7.779   7.529  0.00  0.00    -0.199 F 
BRANCH  12  15
ATOM     15  C   UNL     1      -3.095   8.161   9.566  0.00  0.00    +0.022 A 
ATOM     16  C   UNL     1      -4.292   8.462  10.189  0.00  0.00    +0.009 A 
ATOM     17  C   UNL     1      -4.291   9.121  11.405  0.00  0.00    +0.000 A 
ATOM     18  C   UNL     1      -3.094   9.477  11.997  0.00  0.00    +0.000 A 
ATOM     19  C   UNL     1      -1.897   9.175  11.374  0.00  0.00    +0.000 A 
ATOM     20  C   UNL     1      -1.898   8.512  10.161  0.00  0.00    +0.009 A 
ENDBRANCH  12  15
ENDBRANCH  11  12
ENDBRANCH   9  11
ENDBRANCH   5   9
BRANCH   1  21
ATOM     21  C   UNL     1      -3.019   1.067   4.576  0.00  0.00    +0.135 C 
BRANCH  21  23
ATOM     22  N   UNL     1      -1.355   0.216   2.956  0.00  0.00    -0.311 N 
ATOM     23  C   UNL     1      -1.599   0.847   4.121  0.00  0.00    +0.218 C 
ATOM     24  O   UNL     1      -0.676   1.237   4.805  0.00  0.00    -0.275 OA
ATOM     25  H   UNL     1      -2.093  -0.096   2.409  0.00  0.00    +0.149 HD
BRANCH  22  26
ATOM     26  C   UNL     1       0.025   0.001   2.514  0.00  0.00    +0.141 C 
BRANCH  26  33
ATOM     27  C   UNL     1      -0.018   1.503   0.010  0.00  0.00    +0.044 C 
ATOM     28  C   UNL     1       0.002  -0.004   0.002  0.00  0.00    -0.041 A 
ATOM     29  C   UNL     1       0.006  -0.705  -1.191  0.00  0.00    +0.045 A 
ATOM     30  C   UNL     1       0.026  -2.095  -1.158  0.00  0.00    +0.094 A 
ATOM     31  N   UNL     1       0.040  -2.742  -0.003  0.00  0.00    -0.347 N 
ATOM     32  C   UNL     1       0.036  -2.100   1.149  0.00  0.00    +0.019 A 
ATOM     33  C   UNL     1       0.023  -0.720   1.191  0.00  0.00    -0.008 A 
ATOM     34  C   UNL     1       0.053  -2.883   2.437  0.00  0.00    +0.063 C 
ATOM     35  H   UNL     1       0.054  -3.712  -0.004  0.00  0.00    +0.167 HD
BRANCH  30  36
ATOM     36  N   UNL     1       0.029  -2.812  -2.349  0.00  0.00    -0.345 N 
ATOM     37  H   UNL     1       0.019  -2.342  -3.198  0.00  0.00    +0.144 HD
ATOM     38  H   UNL     1       0.043  -3.782  -2.332  0.00  0.00    +0.144 HD
ENDBRANCH  30  36
ENDBRANCH  26  33
ENDBRANCH  22  26
ENDBRANCH  21  23
ENDBRANCH   1  21
TORSDOF 9
