REMARK  Name = ZINC09310829
REMARK  7 active torsions:
REMARK  status: ('A' for Active; 'I' for Inactive)
REMARK    1  A    between atoms: C_1  and  C_2
REMARK    2  A    between atoms: C_2  and  C_3
REMARK    3  A    between atoms: C_6  and  N_9
REMARK    4  A    between atoms: C_15  and  C_16
REMARK    5  A    between atoms: C_21  and  O_22
REMARK    6  A    between atoms: O_22  and  C_23
REMARK    7  A    between atoms: C_23  and  C_24
REMARK                            x       y       z     vdW  Elec       q    Type
REMARK                         _______ _______ _______ _____ _____    ______ ____
ROOT
ATOM      1  N   UNL     1      -5.642  -1.145   0.772  0.00  0.00    -0.226 NA
ATOM      2  C   UNL     1      -6.473  -0.769  -0.174  0.00  0.00    +0.166 C 
ATOM      3  N   UNL     1      -7.835  -0.971  -0.248  0.00  0.00    -0.260 N 
ATOM      4  C   UNL     1      -8.527  -0.521  -1.280  0.00  0.00    +0.256 C 
ATOM      5  O   UNL     1      -9.730  -0.690  -1.361  0.00  0.00    -0.269 OA
ATOM      6  C   UNL     1      -7.777   0.194  -2.329  0.00  0.00    +0.078 C 
ATOM      7  C   UNL     1      -8.227   0.753  -3.482  0.00  0.00    +0.032 C 
ATOM      8  S   UNL     1      -6.116   0.133  -1.672  0.00  0.00    -0.049 S 
ATOM      9  H   UNL     1      -8.289  -1.447   0.465  0.00  0.00    +0.157 HD
ENDROOT
BRANCH   7  10
ATOM     10  C   UNL     1      -9.617   0.544  -3.905  0.00  0.00    +0.019 A 
ATOM     11  C   UNL     1     -10.210  -0.718  -3.778  0.00  0.00    +0.026 A 
ATOM     12  C   UNL     1     -11.515  -0.906  -4.177  0.00  0.00    +0.019 A 
ATOM     13  C   UNL     1     -12.245   0.149  -4.703  0.00  0.00    +0.019 A 
ATOM     14  C   UNL     1     -11.672   1.399  -4.834  0.00  0.00    +0.047 A 
ATOM     15  C   UNL     1     -10.363   1.610  -4.433  0.00  0.00    +0.129 A 
ATOM     16 BR   UNL     1     -12.316  -2.611  -4.006  0.00  0.00    -0.050 Br
BRANCH  15  17
ATOM     17  O   UNL     1      -9.802   2.840  -4.556  0.00  0.00    -0.480 OA
BRANCH  17  18
ATOM     18  C   UNL     1     -10.621   3.876  -5.102  0.00  0.00    +0.353 C 
BRANCH  18  19
ATOM     19  C   UNL     1      -9.835   5.160  -5.162  0.00  0.00    +0.393 C 
ATOM     20  O   UNL     1      -8.679   5.186  -4.773  0.00  0.00    -0.243 OA
ATOM     21  O   UNL     1     -10.354   6.173  -5.599  0.00  0.00    -0.243 OA
ENDBRANCH  18  19
ENDBRANCH  17  18
ENDBRANCH  15  17
ENDBRANCH   7  10
BRANCH   1  25
ATOM     22  C   UNL     1      -1.616  -0.240   0.468  0.00  0.00    -0.047 A 
ATOM     23  C   UNL     1      -2.276  -0.046   1.668  0.00  0.00    +0.006 A 
ATOM     24  C   UNL     1      -3.618  -0.345   1.777  0.00  0.00    +0.028 A 
ATOM     25  C   UNL     1      -4.311  -0.845   0.671  0.00  0.00    +0.067 A 
ATOM     26  C   UNL     1      -3.637  -1.039  -0.537  0.00  0.00    +0.028 A 
ATOM     27  C   UNL     1      -2.296  -0.730  -0.633  0.00  0.00    +0.006 A 
BRANCH  22  29
ATOM     28  C   UNL     1       0.015   1.548  -0.074  0.00  0.00    +0.009 C 
ATOM     29  C   UNL     1      -0.149   0.089   0.357  0.00  0.00    +0.032 C 
ENDBRANCH  22  29
ENDBRANCH   1  25
TORSDOF 6
