REMARK  Name = ZINC32587133
REMARK  9 active torsions:
REMARK  status: ('A' for Active; 'I' for Inactive)
REMARK    1  A    between atoms: C_1  and  N_2
REMARK    2  A    between atoms: C_3  and  C_5
REMARK    3  A    between atoms: C_8  and  N_26
REMARK    4  A    between atoms: N_11  and  C_12
REMARK    5  A    between atoms: C_12  and  C_13
REMARK    6  A    between atoms: C_13  and  C_14
REMARK    7  A    between atoms: C_13  and  C_20
REMARK    8  A    between atoms: N_26  and  C_27
REMARK    9  A    between atoms: C_27  and  C_28
REMARK                            x       y       z     vdW  Elec       q    Type
REMARK                         _______ _______ _______ _____ _____    ______ ____
ROOT
ATOM      1  C   UNL     1       0.674  -3.650  -0.883  0.00  0.00    +0.142 C 
ATOM      2  C   UNL     1       1.710  -4.299   0.069  0.00  0.00    +0.014 C 
ATOM      3  C   UNL     1       2.463  -5.256  -0.893  0.00  0.00    -0.055 C 
ATOM      4  C   UNL     1       2.490  -4.466  -2.218  0.00  0.00    +0.069 C 
ATOM      5  N   UNL     1       1.389  -3.486  -2.167  0.00  0.00    -0.292 NA
ENDROOT
BRANCH   1   8
ATOM      6  C   UNL     1      -0.827  -0.929   1.351  0.00  0.00    +0.128 C 
ATOM      7  N   UNL     1      -0.404  -2.232   0.833  0.00  0.00    -0.317 N 
ATOM      8  C   UNL     1       0.239  -2.310  -0.349  0.00  0.00    +0.230 C 
ATOM      9  O   UNL     1       0.468  -1.302  -0.983  0.00  0.00    -0.274 OA
ATOM     10  H   UNL     1      -0.587  -3.038   1.340  0.00  0.00    +0.148 HD
ENDBRANCH   1   8
BRANCH   3  11
ATOM     11  N   UNL     1       3.825  -5.514  -0.409  0.00  0.00    +0.384 N 
ATOM     12  H   UNL     1       4.358  -4.657  -0.431  0.00  0.00    -0.085 HD
ATOM     13  H   UNL     1       3.786  -5.861   0.538  0.00  0.00    -0.085 HD
BRANCH  11  14
ATOM     14  C   UNL     1       4.471  -6.513  -1.271  0.00  0.00    -0.046 C 
BRANCH  14  15
ATOM     15  C   UNL     1       5.869  -6.777  -0.774  0.00  0.00    -0.064 A 
ATOM     16  C   UNL     1       6.925  -6.019  -1.246  0.00  0.00    +0.002 A 
ATOM     17  C   UNL     1       8.207  -6.261  -0.790  0.00  0.00    +0.000 A 
ATOM     18  C   UNL     1       8.434  -7.261   0.138  0.00  0.00    +0.000 A 
ATOM     19  C   UNL     1       7.378  -8.018   0.610  0.00  0.00    +0.000 A 
ATOM     20  C   UNL     1       6.095  -7.773   0.158  0.00  0.00    +0.002 A 
ENDBRANCH  14  15
ENDBRANCH  11  14
ENDBRANCH   3  11
BRANCH   5  21
ATOM     21  C   UNL     1       0.474  -3.657  -3.304  0.00  0.00    +0.098 C 
BRANCH  21  22
ATOM     22  C   UNL     1       1.181  -3.239  -4.595  0.00  0.00    +0.063 C 
BRANCH  22  23
ATOM     23  C   UNL     1       0.288  -3.529  -5.773  0.00  0.00    -0.039 A 
ATOM     24  C   UNL     1       0.767  -4.269  -6.838  0.00  0.00    +0.004 A 
ATOM     25  C   UNL     1      -0.052  -4.535  -7.919  0.00  0.00    +0.000 A 
ATOM     26  C   UNL     1      -1.351  -4.063  -7.935  0.00  0.00    +0.000 A 
ATOM     27  C   UNL     1      -1.831  -3.324  -6.870  0.00  0.00    +0.000 A 
ATOM     28  C   UNL     1      -1.013  -3.061  -5.787  0.00  0.00    +0.004 A 
ENDBRANCH  22  23
BRANCH  22  29
ATOM     29  C   UNL     1       1.483  -1.763  -4.545  0.00  0.00    -0.039 A 
ATOM     30  C   UNL     1       0.478  -0.861  -4.252  0.00  0.00    +0.004 A 
ATOM     31  C   UNL     1       0.756   0.493  -4.207  0.00  0.00    +0.000 A 
ATOM     32  C   UNL     1       2.039   0.944  -4.455  0.00  0.00    +0.000 A 
ATOM     33  C   UNL     1       3.044   0.041  -4.747  0.00  0.00    +0.000 A 
ATOM     34  C   UNL     1       2.767  -1.312  -4.788  0.00  0.00    +0.004 A 
ENDBRANCH  22  29
ENDBRANCH  21  22
ENDBRANCH   5  21
TORSDOF 8
