REMARK  Name = ZINC44938134
REMARK  9 active torsions:
REMARK  status: ('A' for Active; 'I' for Inactive)
REMARK    1  A    between atoms: C_1  and  C_2
REMARK    2  A    between atoms: C_6  and  N_8
REMARK    3  A    between atoms: N_8  and  S_9
REMARK    4  A    between atoms: S_9  and  C_12
REMARK    5  A    between atoms: C_15  and  O_18
REMARK    6  A    between atoms: O_18  and  C_19
REMARK    7  A    between atoms: C_22  and  S_25
REMARK    8  A    between atoms: S_25  and  N_28
REMARK    9  A    between atoms: C_31  and  C_34
REMARK                            x       y       z     vdW  Elec       q    Type
REMARK                         _______ _______ _______ _____ _____    ______ ____
ROOT
ATOM      1  O   UNL     1       0.141  -8.418   5.476  0.00  0.00    -0.456 OA
ENDROOT
BRANCH   1   5
ATOM      2  C   UNL     1       0.219  -5.160   2.946  0.00  0.00    +0.111 A 
ATOM      3  C   UNL     1      -0.968  -5.540   3.546  0.00  0.00    +0.032 A 
ATOM      4  C   UNL     1      -0.997  -6.631   4.393  0.00  0.00    +0.048 A 
ATOM      5  C   UNL     1       0.167  -7.345   4.643  0.00  0.00    +0.129 A 
ATOM      6  C   UNL     1       1.356  -6.961   4.040  0.00  0.00    +0.048 A 
ATOM      7  C   UNL     1       1.378  -5.873   3.189  0.00  0.00    +0.032 A 
BRANCH   2   8
ATOM      8  S   UNL     1       0.252  -3.769   1.865  0.00  0.00    +0.094 S 
ATOM      9  O   UNL     1       1.591  -3.294   1.856  0.00  0.00    -0.148 OA
ATOM     10  O   UNL     1      -0.846  -2.945   2.231  0.00  0.00    -0.148 OA
BRANCH   8  11
ATOM     11  N   UNL     1      -0.064  -4.328   0.339  0.00  0.00    -0.056 NA
BRANCH  11  17
ATOM     12  C   UNL     1      -0.529  -2.644  -4.247  0.00  0.00    +0.087 C 
ATOM     13  C   UNL     1      -0.306  -2.692  -2.757  0.00  0.00    +0.124 A 
ATOM     14  N   UNL     1      -0.033  -1.639  -1.968  0.00  0.00    -0.261 N 
ATOM     15  H   UNL     1       0.057  -0.714  -2.244  0.00  0.00    +0.190 HD
ATOM     16  N   UNL     1       0.096  -2.143  -0.663  0.00  0.00    -0.133 NA
ATOM     17  C   UNL     1      -0.101  -3.438  -0.736  0.00  0.00    +0.276 A 
ATOM     18  N   UNL     1      -0.350  -3.764  -2.008  0.00  0.00    -0.197 NA
ENDBRANCH  11  17
ENDBRANCH   8  11
ENDBRANCH   2   8
ENDBRANCH   1   5
BRANCH   1  19
ATOM     19  C   UNL     1      -1.048  -8.761   6.038  0.00  0.00    +0.129 A 
ATOM     20  C   UNL     1      -1.888  -9.657   5.393  0.00  0.00    +0.048 A 
ATOM     21  C   UNL     1      -3.096 -10.004   5.966  0.00  0.00    +0.032 A 
ATOM     22  C   UNL     1      -3.468  -9.459   7.182  0.00  0.00    +0.113 A 
ATOM     23  C   UNL     1      -2.632  -8.566   7.827  0.00  0.00    +0.032 A 
ATOM     24  C   UNL     1      -1.420  -8.221   7.261  0.00  0.00    +0.048 A 
BRANCH  22  25
ATOM     25  S   UNL     1      -5.010  -9.904   7.910  0.00  0.00    +0.102 S 
ATOM     26  O   UNL     1      -5.368  -8.841   8.783  0.00  0.00    -0.146 OA
ATOM     27  O   UNL     1      -5.851 -10.335   6.849  0.00  0.00    -0.146 OA
BRANCH  25  28
ATOM     28  N   UNL     1      -4.736 -11.229   8.865  0.00  0.00    -0.089 NA
ATOM     29  C   UNL     1      -5.723 -11.771   9.530  0.00  0.00    +0.265 A 
ATOM     30  N   UNL     1      -5.641 -12.849  10.350  0.00  0.00    -0.194 NA
ATOM     31  C   UNL     1      -6.814 -13.119  10.850  0.00  0.00    +0.150 A 
ATOM     32  N   UNL     1      -7.727 -12.228  10.380  0.00  0.00    -0.156 NA
ATOM     33  N   UNL     1      -7.039 -11.346   9.530  0.00  0.00    -0.242 N 
ATOM     34  C   UNL     1      -7.113 -14.248  11.803  0.00  0.00    +0.090 C 
ATOM     35  H   UNL     1      -7.411 -10.594   9.043  0.00  0.00    +0.192 HD
ENDBRANCH  25  28
ENDBRANCH  22  25
ENDBRANCH   1  19
TORSDOF 7
