REMARK  Name = ZINC12901869
REMARK  11 active torsions:
REMARK  status: ('A' for Active; 'I' for Inactive)
REMARK    1  A    between atoms: C_1  and  C_2
REMARK    2  A    between atoms: C_3  and  C_21
REMARK    3  A    between atoms: C_9  and  O_19
REMARK    4  A    between atoms: C_15  and  C_17
REMARK    5  A    between atoms: C_15  and  C_18
REMARK    6  A    between atoms: O_19  and  C_20
REMARK    7  A    between atoms: C_21  and  C_22
REMARK    8  A    between atoms: N_24  and  C_25
REMARK    9  A    between atoms: C_25  and  C_26
REMARK   10  A    between atoms: C_31  and  O_32
REMARK   11  A    between atoms: O_32  and  C_33
REMARK                            x       y       z     vdW  Elec       q    Type
REMARK                         _______ _______ _______ _____ _____    ______ ____
ROOT
ATOM      1  C   UNL     1      -1.881   1.064   3.325  0.00  0.00    +0.045 C 
ATOM      2  C   UNL     1      -1.980   2.561   3.467  0.00  0.00    -0.026 A 
ATOM      3  C   UNL     1      -2.634   3.115   4.521  0.00  0.00    +0.049 A 
ATOM      4  C   UNL     1      -2.717   4.516   4.638  0.00  0.00    +0.341 A 
ATOM      5  O   UNL     1      -3.306   5.005   5.586  0.00  0.00    -0.245 OA
ATOM      6  O   UNL     1      -2.158   5.323   3.720  0.00  0.00    -0.421 OA
ATOM      7  C   UNL     1      -1.499   4.812   2.656  0.00  0.00    +0.149 A 
ATOM      8  C   UNL     1      -1.393   3.418   2.501  0.00  0.00    +0.063 A 
ATOM      9  C   UNL     1      -0.709   2.891   1.392  0.00  0.00    +0.134 A 
ATOM     10  C   UNL     1      -0.142   3.748   0.473  0.00  0.00    +0.092 A 
ATOM     11  C   UNL     1      -0.251   5.131   0.629  0.00  0.00    +0.131 A 
ATOM     12  C   UNL     1      -0.925   5.659   1.716  0.00  0.00    +0.038 A 
ATOM     13  C   UNL     1      -1.061   7.148   1.910  0.00  0.00    +0.046 C 
ATOM     14  C   UNL     1      -0.026   7.878   1.051  0.00  0.00    +0.052 C 
ATOM     15  C   UNL     1      -0.081   7.294  -0.367  0.00  0.00    +0.105 C 
ATOM     16  O   UNL     1       0.328   5.927  -0.306  0.00  0.00    -0.486 OA
ATOM     17  C   UNL     1      -1.510   7.381  -0.905  0.00  0.00    +0.055 C 
ATOM     18  C   UNL     1       0.864   8.075  -1.282  0.00  0.00    +0.055 C 
ENDROOT
BRANCH   9  19
ATOM     19  O   UNL     1      -0.602   1.548   1.231  0.00  0.00    -0.494 OA
ATOM     20  C   UNL     1       0.108   1.087   0.079  0.00  0.00    +0.277 C 
ENDBRANCH   9  19
BRANCH   3  21
ATOM     21  C   UNL     1      -3.268   2.231   5.564  0.00  0.00    +0.138 C 
BRANCH  21  22
ATOM     22  C   UNL     1      -4.690   1.926   5.167  0.00  0.00    +0.218 C 
ATOM     23  O   UNL     1      -5.143   2.382   4.138  0.00  0.00    -0.275 OA
ATOM     24  N   UNL     1      -5.457   1.148   5.955  0.00  0.00    -0.311 N 
ATOM     25  H   UNL     1      -5.095   0.783   6.777  0.00  0.00    +0.149 HD
BRANCH  24  26
ATOM     26  C   UNL     1      -6.839   0.852   5.568  0.00  0.00    +0.143 C 
BRANCH  26  27
ATOM     27  C   UNL     1      -7.474  -0.032   6.611  0.00  0.00    +0.011 A 
ATOM     28  C   UNL     1      -7.579  -1.392   6.393  0.00  0.00    +0.009 A 
ATOM     29  C   UNL     1      -8.157  -2.204   7.351  0.00  0.00    +0.001 A 
ATOM     30  C   UNL     1      -8.641  -1.656   8.525  0.00  0.00    +0.004 A 
ATOM     31  C   UNL     1      -8.543  -0.296   8.745  0.00  0.00    +0.046 A 
ATOM     32  C   UNL     1      -7.958   0.520   7.787  0.00  0.00    +0.125 A 
BRANCH  32  33
ATOM     33  O   UNL     1      -7.861   1.859   8.001  0.00  0.00    -0.495 OA
ATOM     34  C   UNL     1      -8.381   2.358   9.235  0.00  0.00    +0.277 C 
ENDBRANCH  32  33
ENDBRANCH  26  27
ENDBRANCH  24  26
ENDBRANCH  21  22
ENDBRANCH   3  21
TORSDOF 6
