REMARK  Name = ZINC08970822
REMARK  8 active torsions:
REMARK  status: ('A' for Active; 'I' for Inactive)
REMARK    1  A    between atoms: C_1  and  O_2
REMARK    2  A    between atoms: O_2  and  C_3
REMARK    3  A    between atoms: C_3  and  C_4
REMARK    4  A    between atoms: C_4  and  C_5
REMARK    5  A    between atoms: C_5  and  N_6
REMARK    6  A    between atoms: C_11  and  C_28
REMARK    7  A    between atoms: C_28  and  C_29
REMARK    8  A    between atoms: C_29  and  C_30
REMARK                            x       y       z     vdW  Elec       q    Type
REMARK                         _______ _______ _______ _____ _____    ______ ____
ROOT
ATOM      1  N   UNL     1      -0.067   1.120  -2.437  0.00  0.00    -0.242 N 
ATOM      2  C   UNL     1      -0.359  -0.067  -3.062  0.00  0.00    +0.224 C 
ATOM      3  O   UNL     1      -1.323  -0.780  -2.883  0.00  0.00    -0.275 OA
ATOM      4  C   UNL     1       0.736  -0.279  -3.978  0.00  0.00    +0.073 C 
ATOM      5  C   UNL     1       1.058  -1.042  -5.198  0.00  0.00    -0.057 C 
ATOM      6  C   UNL     1       2.419   0.933  -5.044  0.00  0.00    +0.050 C 
ATOM      7  C   UNL     1       1.055   1.204  -4.431  0.00  0.00    +0.088 C 
ATOM      8  C   UNL     1       0.927   1.816  -3.063  0.00  0.00    +0.225 C 
ATOM      9  O   UNL     1       1.575   2.736  -2.611  0.00  0.00    -0.275 OA
ATOM     10  C   UNL     1       3.534   1.017  -4.040  0.00  0.00    -0.026 A 
ATOM     11  C   UNL     1       3.809   0.349  -2.868  0.00  0.00    +0.024 A 
ATOM     12  C   UNL     1       4.947   0.658  -2.142  0.00  0.00    +0.041 A 
ATOM     13  C   UNL     1       5.809   1.640  -2.599  0.00  0.00    +0.022 A 
ATOM     14  C   UNL     1       5.541   2.307  -3.776  0.00  0.00    +0.025 A 
ATOM     15  C   UNL     1       4.399   2.000  -4.513  0.00  0.00    +0.036 A 
ATOM     16  N   UNL     1       3.923   2.525  -5.716  0.00  0.00    -0.286 N 
ATOM     17  C   UNL     1       2.768   1.949  -6.100  0.00  0.00    +0.211 C 
ATOM     18  O   UNL     1       2.132   2.199  -7.102  0.00  0.00    -0.277 OA
ATOM     19 CL   UNL     1       5.291  -0.183  -0.663  0.00  0.00    -0.084 Cl
ATOM     20  H   UNL     1       4.372   3.223  -6.218  0.00  0.00    +0.155 HD
ATOM     21  N   UNL     1       2.338  -0.422  -5.628  0.00  0.00    +0.394 N 
ATOM     22  H   UNL     1       2.366  -0.360  -6.652  0.00  0.00    -0.083 HD
ATOM     23  H   UNL     1       3.127  -0.990  -5.297  0.00  0.00    -0.083 HD
ENDROOT
BRANCH   1  24
ATOM     24  C   UNL     1      -0.753   1.593  -1.232  0.00  0.00    +0.118 C 
BRANCH  24  25
ATOM     25  C   UNL     1      -0.013   1.086   0.008  0.00  0.00    +0.047 C 
BRANCH  25  26
ATOM     26  C   UNL     1      -0.729   1.579   1.267  0.00  0.00    +0.161 C 
BRANCH  26  28
ATOM     27  C   UNL     1      -0.628   1.513   3.661  0.00  0.00    +0.193 C 
ATOM     28  O   UNL     1      -0.038   1.106   2.425  0.00  0.00    -0.383 OA
ENDBRANCH  26  28
ENDBRANCH  25  26
ENDBRANCH  24  25
ENDBRANCH   1  24
BRANCH   5  29
ATOM     29  C   UNL     1      -0.013  -0.834  -6.271  0.00  0.00    -0.006 C 
BRANCH  29  30
ATOM     30  C   UNL     1       0.286  -1.734  -7.471  0.00  0.00    +0.094 C 
BRANCH  30  31
ATOM     31  C   UNL     1      -0.769  -1.530  -8.528  0.00  0.00    +0.210 C 
ATOM     32  O   UNL     1      -1.671  -0.741  -8.339  0.00  0.00    -0.276 OA
ATOM     33  N   UNL     1      -0.710  -2.223  -9.682  0.00  0.00    -0.329 N 
ATOM     34  H   UNL     1       0.012  -2.853  -9.833  0.00  0.00    +0.145 HD
ATOM     35  H   UNL     1      -1.388  -2.091 -10.362  0.00  0.00    +0.145 HD
ENDBRANCH  30  31
ENDBRANCH  29  30
ENDBRANCH   5  29
TORSDOF 7
