REMARK  Name = ZINC53114897
REMARK  7 active torsions:
REMARK  status: ('A' for Active; 'I' for Inactive)
REMARK    1  A    between atoms: C_1  and  C_2
REMARK    2  A    between atoms: C_7  and  C_9
REMARK    3  A    between atoms: C_7  and  N_11
REMARK    4  A    between atoms: C_9  and  O_10
REMARK    5  A    between atoms: N_11  and  C_12
REMARK    6  A    between atoms: C_15  and  C_19
REMARK    7  A    between atoms: C_17  and  N_18
REMARK                            x       y       z     vdW  Elec       q    Type
REMARK                         _______ _______ _______ _____ _____    ______ ____
ROOT
ATOM      1  C   UNL     1       1.415   2.173   2.022  0.00  0.00    +0.049 A 
ATOM      2  C   UNL     1       1.015   1.465   3.149  0.00  0.00    +0.025 A 
ATOM      3  C   UNL     1       0.439   2.124   4.212  0.00  0.00    +0.015 A 
ATOM      4  C   UNL     1       0.256   3.509   4.161  0.00  0.00    +0.038 A 
ATOM      5  C   UNL     1       0.658   4.224   3.029  0.00  0.00    +0.037 A 
ATOM      6  C   UNL     1       1.241   3.559   1.967  0.00  0.00    +0.046 A 
ENDROOT
BRANCH   4   7
ATOM      7  C   UNL     1      -0.361   4.215   5.300  0.00  0.00    +0.242 C 
ATOM      8  O   UNL     1      -0.520   5.420   5.254  0.00  0.00    -0.270 OA
ATOM      9  N   UNL     1      -0.749   3.525   6.391  0.00  0.00    -0.325 N 
ATOM     10  H   UNL     1      -0.622   2.564   6.427  0.00  0.00    +0.145 HD
ATOM     11  H   UNL     1      -1.155   3.989   7.139  0.00  0.00    +0.145 HD
ENDBRANCH   4   7
BRANCH   6  12
ATOM     12  N   UNL     1       1.650   4.272   0.833  0.00  0.00    -0.357 N 
ATOM     13  H   UNL     1       2.056   3.804   0.086  0.00  0.00    +0.142 HD
ATOM     14  H   UNL     1       1.529   5.233   0.795  0.00  0.00    +0.142 HD
ENDBRANCH   6  12
BRANCH   1  15
ATOM     15  N   UNL     1       1.997   1.502   0.949  0.00  0.00    -0.335 N 
ATOM     16  H   UNL     1       2.197   1.980   0.129  0.00  0.00    +0.147 HD
BRANCH  15  22
ATOM     17  C   UNL     1      -0.186   1.009  -0.164  0.00  0.00    +0.007 C 
ATOM     18  C   UNL     1       0.138  -0.482  -0.049  0.00  0.00    -0.012 C 
ATOM     19  C   UNL     1       0.893  -0.938  -1.299  0.00  0.00    +0.003 C 
ATOM     20  C   UNL     1       2.193  -0.142  -1.428  0.00  0.00    +0.002 C 
ATOM     21  C   UNL     1       3.062  -0.382  -0.191  0.00  0.00    +0.028 C 
ATOM     22  C   UNL     1       2.307   0.074   1.059  0.00  0.00    +0.055 C 
ATOM     23  C   UNL     1       1.006  -0.722   1.187  0.00  0.00    +0.031 C 
BRANCH  22  24
ATOM     24  C   UNL     1       3.176  -0.166   2.295  0.00  0.00    +0.181 C 
BRANCH  24  25
ATOM     25  O   UNL     1       4.360   0.629   2.206  0.00  0.00    -0.393 OA
ATOM     26  H   UNL     1       4.959   0.527   2.958  0.00  0.00    +0.209 HD
ENDBRANCH  24  25
ENDBRANCH  22  24
ENDBRANCH  15  22
ENDBRANCH   1  15
TORSDOF 6
