REMARK  Name = ZINC22988779
REMARK  10 active torsions:
REMARK  status: ('A' for Active; 'I' for Inactive)
REMARK    1  A    between atoms: C_1  and  C_2
REMARK    2  A    between atoms: C_2  and  C_4
REMARK    3  A    between atoms: C_2  and  S_19
REMARK    4  A    between atoms: C_6  and  C_9
REMARK    5  A    between atoms: C_13  and  C_15
REMARK    6  A    between atoms: S_19  and  C_20
REMARK    7  A    between atoms: C_23  and  C_26
REMARK    8  A    between atoms: N_24  and  N_25
REMARK    9  A    between atoms: C_26  and  O_27
REMARK   10  A    between atoms: O_27  and  C_28
REMARK                            x       y       z     vdW  Elec       q    Type
REMARK                         _______ _______ _______ _____ _____    ______ ____
ROOT
ATOM      1  S   UNL     1      -3.359   1.466  -4.103  0.00  0.00    -0.072 S 
ENDROOT
BRANCH   1   2
ATOM      2  C   UNL     1      -2.102   1.765  -2.905  0.00  0.00    +0.209 A 
ATOM      3  N   UNL     1      -1.321   2.817  -2.839  0.00  0.00    -0.121 NA
ATOM      4  N   UNL     1      -0.520   2.706  -1.840  0.00  0.00    -0.128 NA
ATOM      5  C   UNL     1      -0.742   1.585  -1.213  0.00  0.00    +0.189 A 
ATOM      6  N   UNL     1      -1.754   0.943  -1.872  0.00  0.00    -0.225 N 
BRANCH   6   7
ATOM      7  N   UNL     1      -2.303  -0.268  -1.559  0.00  0.00    -0.295 N 
ATOM      8  H   UNL     1      -1.929  -0.835  -0.694  0.00  0.00    +0.163 HD
ATOM      9  H   UNL     1      -3.120  -0.676  -2.173  0.00  0.00    +0.163 HD
ENDBRANCH   6   7
BRANCH   5  10
ATOM     10  C   UNL     1      -0.013   1.086   0.008  0.00  0.00    +0.306 C 
BRANCH  10  11
ATOM     11  O   UNL     1      -0.682   1.547   1.184  0.00  0.00    -0.484 OA
BRANCH  11  12
ATOM     12  C   UNL     1      -0.149   1.182   2.380  0.00  0.00    +0.121 A 
ATOM     13  C   UNL     1       0.991   0.392   2.420  0.00  0.00    +0.048 A 
ATOM     14  C   UNL     1       1.535   0.028   3.637  0.00  0.00    +0.042 A 
ATOM     15  C   UNL     1       0.937   0.440   4.815  0.00  0.00    +0.124 A 
ATOM     16  C   UNL     1      -0.204   1.223   4.776  0.00  0.00    +0.042 A 
ATOM     17  C   UNL     1      -0.747   1.595   3.561  0.00  0.00    +0.048 A 
ATOM     18  F   UNL     1       1.467   0.079   6.004  0.00  0.00    -0.205 F 
ENDBRANCH  11  12
ENDBRANCH  10  11
ENDBRANCH   5  10
ENDBRANCH   1   2
BRANCH   1  20
ATOM     19  C   UNL     1      -3.583   4.184  -4.256  0.00  0.00    +0.029 C 
ATOM     20  C   UNL     1      -3.204   2.967  -5.102  0.00  0.00    +0.140 C 
BRANCH  20  21
ATOM     21  C   UNL     1      -4.125   2.876  -6.292  0.00  0.00    +0.241 A 
ATOM     22  N   UNL     1      -3.830   3.185  -7.529  0.00  0.00    -0.190 NA
ATOM     23  C   UNL     1      -4.953   2.943  -8.242  0.00  0.00    +0.202 A 
ATOM     24  N   UNL     1      -5.858   2.514  -7.402  0.00  0.00    -0.056 NA
ATOM     25  O   UNL     1      -5.399   2.470  -6.280  0.00  0.00    -0.337 OA
BRANCH  23  26
ATOM     26  C   UNL     1      -5.128   3.135  -9.704  0.00  0.00    +0.023 A 
ATOM     27  C   UNL     1      -4.069   3.603 -10.479  0.00  0.00    +0.012 A 
ATOM     28  C   UNL     1      -4.237   3.780 -11.837  0.00  0.00    +0.001 A 
ATOM     29  C   UNL     1      -5.454   3.493 -12.429  0.00  0.00    +0.012 A 
ATOM     30  C   UNL     1      -6.508   3.028 -11.665  0.00  0.00    +0.055 A 
ATOM     31  C   UNL     1      -6.349   2.843 -10.306  0.00  0.00    +0.024 A 
BRANCH  30  32
ATOM     32  C   UNL     1      -7.831   2.718 -12.317  0.00  0.00    +0.417 C 
ATOM     33  F   UNL     1      -7.747   2.977 -13.689  0.00  0.00    -0.166 F 
ATOM     34  F   UNL     1      -8.145   1.369 -12.115  0.00  0.00    -0.166 F 
ATOM     35  F   UNL     1      -8.829   3.518 -11.751  0.00  0.00    -0.166 F 
ENDBRANCH  30  32
ENDBRANCH  23  26
ENDBRANCH  20  21
ENDBRANCH   1  20
TORSDOF 9
