REMARK  Name = ZINC35106491
REMARK  8 active torsions:
REMARK  status: ('A' for Active; 'I' for Inactive)
REMARK    1  A    between atoms: C_1  and  C_2
REMARK    2  A    between atoms: N_8  and  C_9
REMARK    3  A    between atoms: C_9  and  C_10
REMARK    4  A    between atoms: C_10  and  C_11
REMARK    5  A    between atoms: C_11  and  N_12
REMARK    6  A    between atoms: N_12  and  C_13
REMARK    7  A    between atoms: C_13  and  C_14
REMARK    8  A    between atoms: N_25  and  C_26
REMARK                            x       y       z     vdW  Elec       q    Type
REMARK                         _______ _______ _______ _____ _____    ______ ____
ROOT
ATOM      1  N   UNL     1       4.828  -0.120   3.795  0.00  0.00    -0.281 N 
ATOM      2  C   UNL     1       4.730   0.665   4.886  0.00  0.00    +0.307 C 
ATOM      3  O   UNL     1       5.292   0.347   5.917  0.00  0.00    -0.252 OA
ATOM      4  N   UNL     1       4.009   1.803   4.835  0.00  0.00    -0.268 N 
ATOM      5  H   UNL     1       3.629   2.099   3.993  0.00  0.00    +0.156 HD
ENDROOT
BRANCH   4   6
ATOM      6  C   UNL     1       3.809   2.558   5.997  0.00  0.00    +0.055 A 
ATOM      7  C   UNL     1       3.874   1.948   7.242  0.00  0.00    +0.025 A 
ATOM      8  C   UNL     1       3.677   2.695   8.387  0.00  0.00    +0.003 A 
ATOM      9  C   UNL     1       3.415   4.050   8.295  0.00  0.00    +0.021 A 
ATOM     10  C   UNL     1       3.350   4.662   7.056  0.00  0.00    +0.061 A 
ATOM     11  C   UNL     1       3.552   3.920   5.906  0.00  0.00    +0.080 A 
ATOM     12 CL   UNL     1       3.477   4.689   4.351  0.00  0.00    -0.080 Cl
ATOM     13 CL   UNL     1       3.020   6.363   6.945  0.00  0.00    -0.082 Cl
ENDBRANCH   4   6
BRANCH   1  14
ATOM     14  C   UNL     1       4.151   0.263   2.554  0.00  0.00    +0.108 C 
BRANCH  14  15
ATOM     15  C   UNL     1       2.741  -0.329   2.538  0.00  0.00    +0.000 C 
BRANCH  15  16
ATOM     16  C   UNL     1       2.034   0.071   1.242  0.00  0.00    -0.077 C 
BRANCH  16  23
ATOM     17  C   UNL     1      -0.054   1.514   0.041  0.00  0.00    -0.013 C 
ATOM     18  C   UNL     1      -0.039  -0.016   0.041  0.00  0.00    -0.072 C 
ATOM     19  C   UNL     1      -1.476  -0.540   0.063  0.00  0.00    -0.016 C 
ATOM     20  C   UNL     1      -1.456  -2.071   0.062  0.00  0.00    -0.003 C 
ATOM     21  C   UNL     1      -0.640  -2.562   1.262  0.00  0.00    -0.019 C 
ATOM     22  C   UNL     1       0.766  -1.962   1.195  0.00  0.00    -0.078 C 
ATOM     23  N   UNL     1       0.679  -0.498   1.226  0.00  0.00    +0.381 N 
ATOM     24  H   UNL     1       0.186  -0.208   2.058  0.00  0.00    -0.081 HD
ENDBRANCH  16  23
ENDBRANCH  15  16
ENDBRANCH  14  15
ENDBRANCH   1  14
BRANCH   1  25
ATOM     25  C   UNL     1       5.611  -1.357   3.851  0.00  0.00    +0.144 C 
BRANCH  25  26
ATOM     26  C   UNL     1       7.037  -1.066   3.460  0.00  0.00    -0.026 A 
ATOM     27  C   UNL     1       7.420  -1.150   2.134  0.00  0.00    +0.009 A 
ATOM     28  C   UNL     1       8.726  -0.884   1.770  0.00  0.00    +0.050 A 
ATOM     29  C   UNL     1       9.657  -0.533   2.735  0.00  0.00    +0.166 A 
ATOM     30  C   UNL     1       9.272  -0.449   4.070  0.00  0.00    +0.167 A 
ATOM     31  C   UNL     1       7.959  -0.711   4.427  0.00  0.00    +0.054 A 
ATOM     32  O   UNL     1      10.358  -0.090   4.815  0.00  0.00    -0.453 OA
ATOM     33  C   UNL     1      11.501  -0.353   3.981  0.00  0.00    +0.466 C 
ATOM     34  O   UNL     1      10.984  -0.227   2.643  0.00  0.00    -0.453 OA
ENDBRANCH  25  26
ENDBRANCH   1  25
TORSDOF 7
