REMARK  Name = ZINC12131897
REMARK  6 active torsions:
REMARK  status: ('A' for Active; 'I' for Inactive)
REMARK    1  A    between atoms: C_1  and  N_2
REMARK    2  A    between atoms: C_3  and  C_11
REMARK    3  A    between atoms: N_13  and  C_14
REMARK    4  A    between atoms: C_14  and  C_15
REMARK    5  A    between atoms: C_15  and  N_62
REMARK    6  A    between atoms: C_24  and  C_27
REMARK                            x       y       z     vdW  Elec       q    Type
REMARK                         _______ _______ _______ _____ _____    ______ ____
ROOT
ATOM      1  C   UNL     1       5.527   6.595   1.401  0.00  0.00    -0.039 C 
ATOM      2  C   UNL     1       6.636   7.579   1.720  0.00  0.00    -0.022 A 
ATOM      3  C   UNL     1       7.586   7.269   2.671  0.00  0.00    +0.005 A 
ATOM      4  C   UNL     1       8.582   8.182   2.967  0.00  0.00    +0.000 A 
ATOM      5  C   UNL     1       8.622   9.401   2.315  0.00  0.00    +0.004 A 
ATOM      6  C   UNL     1       7.674   9.709   1.358  0.00  0.00    +0.046 A 
ATOM      7  C   UNL     1       6.680   8.789   1.054  0.00  0.00    +0.123 A 
ATOM      8  O   UNL     1       5.771   9.061   0.078  0.00  0.00    -0.486 OA
ATOM      9  C   UNL     1       5.901   8.280  -1.116  0.00  0.00    +0.187 C 
ATOM     10  C   UNL     1       5.165   6.964  -0.979  0.00  0.00    -0.028 C 
ATOM     11  N   UNL     1       5.766   6.071   0.035  0.00  0.00    +0.386 N 
ATOM     12  H   UNL     1       6.779   6.022  -0.127  0.00  0.00    -0.081 HD
ENDROOT
BRANCH   9  13
ATOM     13  C   UNL     1       5.328   9.050  -2.277  0.00  0.00    -0.009 A 
ATOM     14  C   UNL     1       4.222   9.859  -2.092  0.00  0.00    +0.007 A 
ATOM     15  C   UNL     1       3.699  10.569  -3.156  0.00  0.00    +0.000 A 
ATOM     16  C   UNL     1       4.276  10.463  -4.408  0.00  0.00    +0.000 A 
ATOM     17  C   UNL     1       5.378   9.650  -4.595  0.00  0.00    +0.000 A 
ATOM     18  C   UNL     1       5.904   8.944  -3.529  0.00  0.00    +0.007 A 
ENDBRANCH   9  13
BRANCH  11  19
ATOM     19  C   UNL     1       5.198   4.719  -0.092  0.00  0.00    -0.059 C 
BRANCH  19  20
ATOM     20  C   UNL     1       3.676   4.745   0.066  0.00  0.00    +0.086 C 
BRANCH  20  23
ATOM     21  C   UNL     1       1.823   3.164   0.038  0.00  0.00    +0.262 C 
ATOM     22  O   UNL     1       1.056   4.102   0.145  0.00  0.00    -0.269 OA
ATOM     23  N   UNL     1       3.148   3.385  -0.067  0.00  0.00    -0.312 N 
ATOM     24  H   UNL     1       3.752   2.644  -0.230  0.00  0.00    +0.149 HD
BRANCH  21  27
ATOM     25  C   UNL     1       1.507   1.278   2.477  0.00  0.00    +0.173 C 
ATOM     26  N   UNL     1       1.160   0.947   1.093  0.00  0.00    -0.262 N 
ATOM     27  C   UNL     1       1.303   1.788   0.021  0.00  0.00    +0.126 A 
ATOM     28  C   UNL     1       0.863   1.083  -1.071  0.00  0.00    +0.006 A 
ATOM     29  C   UNL     1       0.469  -0.171  -0.585  0.00  0.00    +0.067 A 
ATOM     30  N   UNL     1       0.674  -0.180   0.700  0.00  0.00    -0.175 NA
ATOM     31  C   UNL     1      -0.089  -1.260  -1.467  0.00  0.00    +0.057 C 
ATOM     32  C   UNL     1      -0.522  -0.626  -2.795  0.00  0.00    +0.007 C 
ATOM     33  C   UNL     1       0.618   0.222  -3.363  0.00  0.00    +0.005 C 
ATOM     34  C   UNL     1       0.792   1.490  -2.517  0.00  0.00    +0.039 C 
ENDBRANCH  21  27
ENDBRANCH  20  23
ENDBRANCH  19  20
ENDBRANCH  11  19
TORSDOF 5
