REMARK  Name = ZINC27754457
REMARK  5 active torsions:
REMARK  status: ('A' for Active; 'I' for Inactive)
REMARK    1  A    between atoms: C_6  and  C_7
REMARK    2  A    between atoms: C_7  and  O_31
REMARK    3  A    between atoms: C_8  and  C_25
REMARK    4  A    between atoms: C_10  and  C_16
REMARK    5  A    between atoms: C_25  and  C_27
REMARK                            x       y       z     vdW  Elec       q    Type
REMARK                         _______ _______ _______ _____ _____    ______ ____
ROOT
ATOM      1  C   UNL     1      -4.520   0.390  -1.176  0.00  0.00    +0.172 C 
ATOM      2  C   UNL     1      -3.149   1.047  -1.371  0.00  0.00    +0.144 C 
ATOM      3  C   UNL     1      -2.382   0.979  -0.045  0.00  0.00    +0.120 C 
ATOM      4  N   UNL     1      -3.188   1.596   1.009  0.00  0.00    -0.292 N 
ATOM      5  C   UNL     1      -4.529   1.593   0.954  0.00  0.00    +0.302 C 
ATOM      6  O   UNL     1      -5.151   2.111   1.861  0.00  0.00    -0.253 OA
ATOM      7  N   UNL     1      -5.210   1.040  -0.060  0.00  0.00    -0.267 N 
ATOM      8  H   UNL     1      -2.695   2.074   1.869  0.00  0.00    +0.151 HD
ATOM      9  H   UNL     1      -6.309   1.082  -0.043  0.00  0.00    +0.153 HD
ENDROOT
BRANCH   3  10
ATOM     10  C   UNL     1      -1.077   1.719  -0.180  0.00  0.00    -0.023 A 
ATOM     11  C   UNL     1      -1.032   3.084   0.035  0.00  0.00    +0.009 A 
ATOM     12  C   UNL     1       0.162   3.768  -0.095  0.00  0.00    +0.050 A 
ATOM     13  C   UNL     1       1.319   3.086  -0.433  0.00  0.00    +0.166 A 
ATOM     14  C   UNL     1       1.276   1.710  -0.642  0.00  0.00    +0.167 A 
ATOM     15  C   UNL     1       0.075   1.030  -0.512  0.00  0.00    +0.055 A 
ATOM     16  O   UNL     1       2.531   1.277  -0.960  0.00  0.00    -0.453 OA
ATOM     17  C   UNL     1       3.259   2.458  -1.343  0.00  0.00    +0.466 C 
ATOM     18  O   UNL     1       2.601   3.515  -0.620  0.00  0.00    -0.453 OA
ENDBRANCH   3  10
BRANCH   1  24
ATOM     19  C   UNL     1      -6.152   1.647  -2.596  0.00  0.00    +0.011 A 
ATOM     20  C   UNL     1      -6.896   1.793  -3.751  0.00  0.00    +0.039 A 
ATOM     21  C   UNL     1      -6.833   0.827  -4.741  0.00  0.00    +0.123 A 
ATOM     22  C   UNL     1      -6.019  -0.281  -4.574  0.00  0.00    +0.039 A 
ATOM     23  C   UNL     1      -5.271  -0.421  -3.421  0.00  0.00    +0.011 A 
ATOM     24  C   UNL     1      -5.335   0.544  -2.433  0.00  0.00    +0.003 A 
ATOM     25  F   UNL     1      -7.565   0.964  -5.868  0.00  0.00    -0.205 F 
ENDBRANCH   1  24
BRANCH   2  26
ATOM     26  C   UNL     1      -3.332   2.487  -1.776  0.00  0.00    +0.245 C 
ATOM     27  O   UNL     1      -3.944   3.243  -1.060  0.00  0.00    -0.287 OA
BRANCH  26  28
ATOM     28  C   UNL     1      -2.750   2.984  -3.074  0.00  0.00    +0.451 C 
ATOM     29  F   UNL     1      -2.946   4.365  -3.175  0.00  0.00    -0.163 F 
ATOM     30  F   UNL     1      -1.379   2.703  -3.109  0.00  0.00    -0.163 F 
ATOM     31  F   UNL     1      -3.384   2.344  -4.145  0.00  0.00    -0.163 F 
ENDBRANCH  26  28
ENDBRANCH   2  26
BRANCH   1  32
ATOM     32  O   UNL     1      -4.346  -0.999  -0.886  0.00  0.00    -0.367 OA
ATOM     33  H   UNL     1      -3.774  -1.308   0.001  0.00  0.00    +0.212 HD
ENDBRANCH   1  32
TORSDOF 5
