REMARK  Name = ZINC16845890
REMARK  9 active torsions:
REMARK  status: ('A' for Active; 'I' for Inactive)
REMARK    1  A    between atoms: C_1  and  C_2
REMARK    2  A    between atoms: C_2  and  S_3
REMARK    3  A    between atoms: S_3  and  C_4
REMARK    4  A    between atoms: C_13  and  C_16
REMARK    5  A    between atoms: C_17  and  S_19
REMARK    6  A    between atoms: S_19  and  C_20
REMARK    7  A    between atoms: C_20  and  C_21
REMARK    8  A    between atoms: N_23  and  C_24
REMARK    9  A    between atoms: C_27  and  C_30
REMARK                            x       y       z     vdW  Elec       q    Type
REMARK                         _______ _______ _______ _____ _____    ______ ____
ROOT
ATOM      1  C   UNL     1      -0.240   0.453   7.681  0.00  0.00    +0.190 A 
ATOM      2  N   UNL     1      -0.954   1.547   7.405  0.00  0.00    -0.215 NA
ATOM      3  C   UNL     1      -1.032   1.900   6.137  0.00  0.00    +0.114 A 
ATOM      4  C   UNL     1      -0.406   1.183   5.087  0.00  0.00    +0.043 A 
ATOM      5  C   UNL     1      -0.597   1.717   3.748  0.00  0.00    -0.025 A 
ATOM      6  C   UNL     1      -1.349   2.836   3.642  0.00  0.00    -0.004 A 
ATOM      7  S   UNL     1      -1.835   3.231   5.304  0.00  0.00    -0.073 S 
ATOM      8  C   UNL     1      -1.695   3.582   2.391  0.00  0.00    +0.043 C 
ATOM      9  C   UNL     1      -0.765   3.104   1.266  0.00  0.00    +0.009 C 
ATOM     10  C   UNL     1      -0.740   1.573   1.270  0.00  0.00    -0.009 C 
ATOM     11  C   UNL     1       0.007   1.069   2.504  0.00  0.00    +0.040 C 
ATOM     12  C   UNL     1      -0.033   1.074   0.008  0.00  0.00    +0.008 C 
ATOM     13  C   UNL     1       0.340   0.024   5.451  0.00  0.00    +0.110 A 
ATOM     14  N   UNL     1       0.371  -0.265   6.750  0.00  0.00    -0.215 NA
ENDROOT
BRANCH   1  15
ATOM     15  S   UNL     1      -0.105  -0.061   9.361  0.00  0.00    -0.086 S 
BRANCH  15  17
ATOM     16  C   UNL     1       1.187  -2.167  10.526  0.00  0.00    +0.016 C 
ATOM     17  C   UNL     1       0.929  -1.532   9.158  0.00  0.00    +0.074 C 
ENDBRANCH  15  17
ENDBRANCH   1  15
BRANCH  13  18
ATOM     18  S   UNL     1       1.171  -0.967   4.254  0.00  0.00    -0.096 S 
BRANCH  18  19
ATOM     19  C   UNL     1       1.893  -2.226   5.335  0.00  0.00    +0.171 C 
BRANCH  19  20
ATOM     20  C   UNL     1       2.674  -3.213   4.505  0.00  0.00    +0.227 C 
ATOM     21  O   UNL     1       2.736  -3.077   3.301  0.00  0.00    -0.275 OA
ATOM     22  N   UNL     1       3.303  -4.245   5.100  0.00  0.00    -0.285 N 
ATOM     23  H   UNL     1       3.309  -4.316   6.067  0.00  0.00    +0.155 HD
BRANCH  22  24
ATOM     24  C   UNL     1       3.946  -5.215   4.323  0.00  0.00    +0.033 A 
ATOM     25  C   UNL     1       3.956  -6.541   4.733  0.00  0.00    +0.023 A 
ATOM     26  C   UNL     1       4.586  -7.497   3.960  0.00  0.00    +0.005 A 
ATOM     27  C   UNL     1       5.218  -7.132   2.785  0.00  0.00    -0.050 A 
ATOM     28  C   UNL     1       5.215  -5.811   2.377  0.00  0.00    +0.005 A 
ATOM     29  C   UNL     1       4.581  -4.851   3.142  0.00  0.00    +0.023 A 
ATOM     30  C   UNL     1       5.910  -8.176   1.948  0.00  0.00    +0.044 C 
ENDBRANCH  22  24
ENDBRANCH  19  20
ENDBRANCH  18  19
ENDBRANCH  13  18
TORSDOF 6
