REMARK  Name = ZINC04148164
REMARK  4 active torsions:
REMARK  status: ('A' for Active; 'I' for Inactive)
REMARK    1  A    between atoms: C_1  and  C_2
REMARK    2  A    between atoms: C_4  and  C_18
REMARK    3  A    between atoms: N_8  and  S_9
REMARK    4  A    between atoms: S_9  and  C_12
REMARK                            x       y       z     vdW  Elec       q    Type
REMARK                         _______ _______ _______ _____ _____    ______ ____
ROOT
ATOM      1  C   UNL     1      -0.018   1.503   0.010  0.00  0.00    +0.044 C 
ATOM      2  C   UNL     1       0.002  -0.004   0.002  0.00  0.00    -0.045 A 
ATOM      3  C   UNL     1      -1.204  -0.727   0.004  0.00  0.00    +0.024 A 
ATOM      4  C   UNL     1      -1.191  -2.076  -0.004  0.00  0.00    +0.015 A 
ATOM      5  N   UNL     1      -0.013  -2.762  -0.013  0.00  0.00    -0.343 N 
ATOM      6  C   UNL     1       1.183  -2.086  -0.015  0.00  0.00    +0.153 A 
ATOM      7  C   UNL     1       1.186  -0.671  -0.013  0.00  0.00    +0.051 A 
ATOM      8  N   UNL     1       2.320  -2.750  -0.024  0.00  0.00    -0.110 NA
ATOM      9  C   UNL     1      -2.494  -2.834  -0.001  0.00  0.00    +0.063 C 
ATOM     10  H   UNL     1      -0.019  -3.732  -0.018  0.00  0.00    +0.167 HD
ENDROOT
BRANCH   8  11
ATOM     11  S   UNL     1       2.311  -4.406  -0.032  0.00  0.00    +0.107 S 
ATOM     12  O   UNL     1       1.764  -4.816   1.214  0.00  0.00    -0.146 OA
ATOM     13  O   UNL     1       1.752  -4.803  -1.276  0.00  0.00    -0.146 OA
BRANCH  11  14
ATOM     14  C   UNL     1       3.991  -4.936  -0.042  0.00  0.00    +0.151 A 
ATOM     15  C   UNL     1       4.808  -5.204   1.005  0.00  0.00    +0.038 A 
ATOM     16  C   UNL     1       6.106  -5.611   0.757  0.00  0.00    +0.025 A 
ATOM     17  C   UNL     1       6.522  -5.731  -0.528  0.00  0.00    +0.057 A 
ATOM     18  S   UNL     1       5.056  -5.269  -1.436  0.00  0.00    -0.061 S 
ATOM     19 BR   UNL     1       8.214  -6.258  -1.187  0.00  0.00    -0.043 Br
ENDBRANCH  11  14
ENDBRANCH   8  11
TORSDOF 2
