REMARK  Name = ZINC02384365
REMARK  6 active torsions:
REMARK  status: ('A' for Active; 'I' for Inactive)
REMARK    1  A    between atoms: C_1  and  C_2
REMARK    2  A    between atoms: C_5  and  C_23
REMARK    3  A    between atoms: N_6  and  C_7
REMARK    4  A    between atoms: C_11  and  C_12
REMARK    5  A    between atoms: C_16  and  C_22
REMARK    6  A    between atoms: C_18  and  N_21
REMARK                            x       y       z     vdW  Elec       q    Type
REMARK                         _______ _______ _______ _____ _____    ______ ____
ROOT
ATOM      1  C   UNL     1      -1.132  -0.951   0.007  0.00  0.00    +0.104 A 
ATOM      2  C   UNL     1      -2.489  -0.601   0.022  0.00  0.00    +0.079 A 
ATOM      3  C   UNL     1      -3.223  -1.776   0.022  0.00  0.00    +0.158 A 
ATOM      4  N   UNL     1      -4.544  -2.016   0.034  0.00  0.00    -0.233 NA
ATOM      5  C   UNL     1      -5.009  -3.246   0.032  0.00  0.00    +0.044 A 
ATOM      6  C   UNL     1      -4.133  -4.332   0.017  0.00  0.00    +0.066 A 
ATOM      7  C   UNL     1      -2.783  -4.105   0.005  0.00  0.00    +0.122 A 
ATOM      8  N   UNL     1      -2.326  -2.814   0.008  0.00  0.00    -0.200 N 
ATOM      9  N   UNL     1      -1.037  -2.270  -0.007  0.00  0.00    -0.163 NA
ATOM     10  C   UNL     1      -6.497  -3.484   0.045  0.00  0.00    +0.066 C 
ENDROOT
BRANCH   1  15
ATOM     11  C   UNL     1       1.359  -0.270  -0.012  0.00  0.00    +0.063 A 
ATOM     12  C   UNL     1       2.236   0.799  -0.015  0.00  0.00    +0.034 A 
ATOM     13  C   UNL     1       1.740   2.062  -0.004  0.00  0.00    +0.048 A 
ATOM     14  S   UNL     1      -0.022   1.781   0.012  0.00  0.00    -0.093 S 
ATOM     15  C   UNL     1       0.002  -0.004   0.002  0.00  0.00    +0.063 A 
BRANCH  11  21
ATOM     16  C   UNL     1       1.906  -1.882  -2.565  0.00  0.00    +0.064 C 
ATOM     17  C   UNL     1       2.088  -2.336  -1.140  0.00  0.00    +0.021 A 
ATOM     18  C   UNL     1       2.532  -3.548  -0.747  0.00  0.00    +0.023 A 
ATOM     19  C   UNL     1       2.546  -3.556   0.662  0.00  0.00    +0.023 A 
ATOM     20  C   UNL     1       2.115  -2.347   1.078  0.00  0.00    +0.021 A 
ATOM     21  N   UNL     1       1.835  -1.592  -0.025  0.00  0.00    -0.317 N 
ATOM     22  C   UNL     1       1.968  -1.906   2.511  0.00  0.00    +0.064 C 
ENDBRANCH  11  21
ENDBRANCH   1  15
BRANCH   7  23
ATOM     23  N   UNL     1      -1.897  -5.161  -0.009  0.00  0.00    -0.343 N 
ATOM     24  H   UNL     1      -0.941  -4.992  -0.018  0.00  0.00    +0.144 HD
ATOM     25  H   UNL     1      -2.228  -6.072  -0.011  0.00  0.00    +0.144 HD
ENDBRANCH   7  23
TORSDOF 3
