REMARK  Name = ZINC39657760
REMARK  13 active torsions:
REMARK  status: ('A' for Active; 'I' for Inactive)
REMARK    1  A    between atoms: C_1  and  C_2
REMARK    2  A    between atoms: C_2  and  C_3
REMARK    3  A    between atoms: C_3  and  C_4
REMARK    4  A    between atoms: C_4  and  C_5
REMARK    5  A    between atoms: C_5  and  C_7
REMARK    6  A    between atoms: C_5  and  C_8
REMARK    7  A    between atoms: C_12  and  C_21
REMARK    8  A    between atoms: N_23  and  C_24
REMARK    9  A    between atoms: C_24  and  C_25
REMARK   10  A    between atoms: C_30  and  S_31
REMARK   11  A    between atoms: S_31  and  C_32
REMARK   12  A    between atoms: C_37  and  C_38
REMARK   13  A    between atoms: C_38  and  O_39
REMARK                            x       y       z     vdW  Elec       q    Type
REMARK                         _______ _______ _______ _____ _____    ______ ____
ROOT
ATOM      1  C   UNL     1       4.792  -6.413  -6.356  0.00  0.00    +0.218 C 
ATOM      2  O   UNL     1       4.210  -6.965  -7.266  0.00  0.00    -0.275 OA
ATOM      3  N   UNL     1       5.283  -5.170  -6.527  0.00  0.00    -0.311 N 
ATOM      4  H   UNL     1       5.748  -4.728  -5.800  0.00  0.00    +0.149 HD
ENDROOT
BRANCH   1   9
ATOM      5  C   UNL     1       3.692  -9.815  -2.983  0.00  0.00    +0.218 C 
ATOM      6  O   UNL     1       4.233 -10.817  -2.566  0.00  0.00    -0.275 OA
ATOM      7  N   UNL     1       4.209  -9.162  -4.043  0.00  0.00    -0.300 N 
ATOM      8  C   UNL     1       3.699  -7.929  -4.686  0.00  0.00    +0.121 C 
ATOM      9  C   UNL     1       4.967  -7.118  -5.036  0.00  0.00    +0.100 C 
ATOM     10  C   UNL     1       6.089  -8.165  -5.129  0.00  0.00    -0.004 C 
ATOM     11  C   UNL     1       5.419  -9.513  -4.824  0.00  0.00    +0.115 C 
ATOM     12  C   UNL     1       7.171  -7.875  -4.093  0.00  0.00    -0.010 C 
ATOM     13  C   UNL     1       8.302  -8.895  -4.244  0.00  0.00    -0.082 C 
ATOM     14  N   UNL     1       8.860  -8.814  -5.600  0.00  0.00    +0.379 N 
ATOM     15  C   UNL     1       7.838  -9.185  -6.585  0.00  0.00    -0.082 C 
ATOM     16  C   UNL     1       6.686  -8.177  -6.533  0.00  0.00    -0.010 C 
ATOM     17  H   UNL     1       9.171  -7.870  -5.778  0.00  0.00    -0.086 HD
ATOM     18  H   UNL     1       9.645  -9.444  -5.678  0.00  0.00    -0.086 HD
BRANCH   5  19
ATOM     19  C   UNL     1       2.443  -9.299  -2.316  0.00  0.00    +0.072 C 
ATOM     20  C   UNL     1       1.297  -9.274  -3.329  0.00  0.00    +0.017 C 
BRANCH  19  21
ATOM     21  C   UNL     1       2.073 -10.216  -1.149  0.00  0.00    +0.012 C 
BRANCH  21  22
ATOM     22  C   UNL     1       0.879  -9.626  -0.395  0.00  0.00    +0.000 C 
BRANCH  22  24
ATOM     23  C   UNL     1      -0.685  -9.953   1.526  0.00  0.00    +0.004 C 
ATOM     24  C   UNL     1       0.509 -10.543   0.772  0.00  0.00    -0.003 C 
ENDBRANCH  22  24
ENDBRANCH  21  22
ENDBRANCH  19  21
ENDBRANCH   5  19
ENDBRANCH   1   9
BRANCH   3  25
ATOM     25  C   UNL     1       5.113  -4.485  -7.811  0.00  0.00    +0.140 C 
BRANCH  25  26
ATOM     26  C   UNL     1       5.747  -3.120  -7.740  0.00  0.00    -0.017 A 
ATOM     27  C   UNL     1       4.963  -2.004  -7.521  0.00  0.00    +0.006 A 
ATOM     28  C   UNL     1       5.544  -0.751  -7.456  0.00  0.00    +0.000 A 
ATOM     29  C   UNL     1       6.912  -0.610  -7.610  0.00  0.00    +0.001 A 
ATOM     30  C   UNL     1       7.701  -1.721  -7.829  0.00  0.00    +0.015 A 
ATOM     31  C   UNL     1       7.122  -2.982  -7.889  0.00  0.00    +0.017 A 
BRANCH  31  32
ATOM     32  S   UNL     1       8.126  -4.404  -8.161  0.00  0.00    -0.089 S 
BRANCH  32  33
ATOM     33  C   UNL     1       9.773  -3.778  -8.113  0.00  0.00    +0.018 A 
ATOM     34  C   UNL     1      10.316  -3.336  -6.912  0.00  0.00    +0.015 A 
ATOM     35  C   UNL     1      11.606  -2.846  -6.879  0.00  0.00    +0.001 A 
ATOM     36  C   UNL     1      12.358  -2.794  -8.039  0.00  0.00    +0.000 A 
ATOM     37  C   UNL     1      11.821  -3.232  -9.235  0.00  0.00    +0.007 A 
ATOM     38  C   UNL     1      10.533  -3.730  -9.275  0.00  0.00    -0.008 A 
BRANCH  38  39
ATOM     39  C   UNL     1       9.951  -4.214 -10.578  0.00  0.00    +0.192 C 
BRANCH  39  40
ATOM     40  O   UNL     1      10.920  -4.062 -11.618  0.00  0.00    -0.390 OA
ATOM     41  H   UNL     1      10.613  -4.355 -12.487  0.00  0.00    +0.210 HD
ENDBRANCH  39  40
ENDBRANCH  38  39
ENDBRANCH  32  33
ENDBRANCH  31  32
ENDBRANCH  25  26
ENDBRANCH   3  25
TORSDOF 11
