REMARK  Name = ZINC27669627
REMARK  13 active torsions:
REMARK  status: ('A' for Active; 'I' for Inactive)
REMARK    1  A    between atoms: C_1  and  C_2
REMARK    2  A    between atoms: C_2  and  C_4
REMARK    3  A    between atoms: C_2  and  N_24
REMARK    4  A    between atoms: N_6  and  C_7
REMARK    5  A    between atoms: C_7  and  C_8
REMARK    6  A    between atoms: C_8  and  C_10
REMARK    7  A    between atoms: C_8  and  N_18
REMARK    8  A    between atoms: C_13  and  O_16
REMARK    9  A    between atoms: O_16  and  C_17
REMARK   10  A    between atoms: C_25  and  C_27
REMARK   11  A    between atoms: C_28  and  C_29
REMARK   12  A    between atoms: C_32  and  O_35
REMARK   13  A    between atoms: O_35  and  C_36
REMARK                            x       y       z     vdW  Elec       q    Type
REMARK                         _______ _______ _______ _____ _____    ______ ____
ROOT
ATOM      1  C   UNL     1      -1.952   3.988   3.558  0.00  0.00    +0.233 C 
ATOM      2  O   UNL     1      -2.861   3.549   4.230  0.00  0.00    -0.274 OA
ATOM      3  N   UNL     1      -1.050   3.148   3.013  0.00  0.00    -0.315 N 
ATOM      4  H   UNL     1      -0.225   3.546   2.404  0.00  0.00    +0.149 HD
ENDROOT
BRANCH   1   6
ATOM      5  C   UNL     1      -1.907   5.770   1.834  0.00  0.00    +0.038 C 
ATOM      6  C   UNL     1      -1.830   5.474   3.333  0.00  0.00    +0.156 C 
BRANCH   6   7
ATOM      7  N   UNL     1      -2.923   6.163   4.024  0.00  0.00    -0.301 N 
ATOM      8  C   UNL     1      -2.776   7.448   4.403  0.00  0.00    +0.237 C 
ATOM      9  O   UNL     1      -1.736   8.036   4.170  0.00  0.00    -0.271 OA
ATOM     10  H   UNL     1      -3.863   5.632   4.235  0.00  0.00    +0.150 HD
BRANCH   8  11
ATOM     11  C   UNL     1      -3.866   8.137   5.093  0.00  0.00    +0.068 C 
ATOM     12  C   UNL     1      -3.719   9.424   5.472  0.00  0.00    +0.013 C 
BRANCH  12  13
ATOM     13  C   UNL     1      -4.815  10.116   6.165  0.00  0.00    -0.025 A 
ATOM     14  C   UNL     1      -6.014   9.444   6.429  0.00  0.00    +0.011 A 
ATOM     15  C   UNL     1      -7.036  10.095   7.083  0.00  0.00    +0.046 A 
ATOM     16  C   UNL     1      -6.882  11.421   7.472  0.00  0.00    +0.120 A 
ATOM     17  C   UNL     1      -5.695  12.094   7.208  0.00  0.00    +0.046 A 
ATOM     18  C   UNL     1      -4.665  11.450   6.559  0.00  0.00    +0.011 A 
BRANCH  16  19
ATOM     19  O   UNL     1      -7.894  12.059   8.113  0.00  0.00    -0.495 OA
ATOM     20  C   UNL     1      -9.086  11.309   8.353  0.00  0.00    +0.277 C 
ENDBRANCH  16  19
ENDBRANCH  12  13
ENDBRANCH   8  11
ENDBRANCH   6   7
ENDBRANCH   1   6
BRANCH   3  21
ATOM     21  C   UNL     1      -1.168   1.704   3.232  0.00  0.00    +0.093 C 
BRANCH  21  22
ATOM     22  C   UNL     1      -0.095   0.976   2.420  0.00  0.00    -0.020 C 
BRANCH  22  23
ATOM     23  N   UNL     1      -0.194   1.375   1.009  0.00  0.00    +0.385 N 
ATOM     24  C   UNL     1      -1.577   1.716   0.654  0.00  0.00    -0.078 C 
ATOM     25  C   UNL     1      -1.619   2.264  -0.774  0.00  0.00    -0.019 C 
ATOM     26  C   UNL     1      -1.070   1.208  -1.737  0.00  0.00    -0.004 C 
ATOM     27  C   UNL     1       0.354   0.835  -1.316  0.00  0.00    -0.019 C 
ATOM     28  C   UNL     1       0.338   0.329   0.128  0.00  0.00    -0.078 C 
ATOM     29  H   UNL     1       0.420   2.277   0.868  0.00  0.00    -0.081 HD
ENDBRANCH  22  23
BRANCH  22  30
ATOM     30  C   UNL     1      -0.301  -0.512   2.536  0.00  0.00    -0.059 A 
ATOM     31  C   UNL     1      -1.492  -1.079   2.119  0.00  0.00    +0.005 A 
ATOM     32  C   UNL     1      -1.681  -2.444   2.219  0.00  0.00    +0.046 A 
ATOM     33  C   UNL     1      -0.680  -3.244   2.750  0.00  0.00    +0.120 A 
ATOM     34  C   UNL     1       0.512  -2.672   3.172  0.00  0.00    +0.046 A 
ATOM     35  C   UNL     1       0.698  -1.308   3.064  0.00  0.00    +0.005 A 
BRANCH  33  36
ATOM     36  O   UNL     1      -0.866  -4.586   2.855  0.00  0.00    -0.495 OA
ATOM     37  C   UNL     1      -2.117  -5.106   2.400  0.00  0.00    +0.277 C 
ENDBRANCH  33  36
ENDBRANCH  22  30
ENDBRANCH  21  22
ENDBRANCH   3  21
TORSDOF 10
