REMARK  Name = ZINC09281893
REMARK  6 active torsions:
REMARK  status: ('A' for Active; 'I' for Inactive)
REMARK    1  A    between atoms: C_1  and  C_2
REMARK    2  A    between atoms: C_5  and  N_8
REMARK    3  A    between atoms: C_23  and  C_29
REMARK    4  A    between atoms: N_31  and  C_32
REMARK    5  A    between atoms: C_37  and  O_38
REMARK    6  A    between atoms: O_38  and  C_39
REMARK                            x       y       z     vdW  Elec       q    Type
REMARK                         _______ _______ _______ _____ _____    ______ ____
ROOT
ATOM      1  N   UNL     1      -2.685   5.959  -2.594  0.00  0.00    -0.210 N 
ATOM      2  C   UNL     1      -2.739   7.256  -2.249  0.00  0.00    +0.232 C 
ATOM      3  O   UNL     1      -1.883   8.086  -2.470  0.00  0.00    -0.274 OA
ATOM      4  C   UNL     1      -4.053   7.504  -1.539  0.00  0.00    +0.113 C 
ATOM      5  C   UNL     1      -3.829   8.251  -0.227  0.00  0.00    +0.100 C 
ATOM      6  C   UNL     1      -2.634   9.166  -0.284  0.00  0.00    -0.021 A 
ATOM      7  C   UNL     1      -2.286   9.813  -1.447  0.00  0.00    +0.006 A 
ATOM      8  C   UNL     1      -1.180  10.646  -1.470  0.00  0.00    +0.000 A 
ATOM      9  C   UNL     1      -0.421  10.830  -0.328  0.00  0.00    +0.001 A 
ATOM     10  C   UNL     1      -0.759  10.186   0.845  0.00  0.00    +0.008 A 
ATOM     11  C   UNL     1      -1.874   9.346   0.878  0.00  0.00    -0.019 A 
ATOM     12  C   UNL     1      -2.248   8.655   2.128  0.00  0.00    +0.022 C 
ATOM     13  C   UNL     1      -3.083   7.598   2.076  0.00  0.00    +0.054 C 
ATOM     14  C   UNL     1      -3.783   5.909   0.284  0.00  0.00    +0.156 C 
ATOM     15  C   UNL     1      -4.435   6.061  -1.105  0.00  0.00    +0.118 C 
ATOM     16  C   UNL     1      -3.680   5.215  -2.087  0.00  0.00    +0.232 C 
ATOM     17  O   UNL     1      -3.917   4.060  -2.372  0.00  0.00    -0.274 OA
ATOM     18  N   UNL     1      -3.904   7.289   0.845  0.00  0.00    -0.383 NA
ATOM     19  H   UNL     1      -4.873   7.351   1.180  0.00  0.00    +0.127 HD
ENDROOT
BRANCH   1  24
ATOM     20  C   UNL     1       1.397   3.813  -5.902  0.00  0.00    +0.044 C 
ATOM     21  C   UNL     1       0.313   4.383  -5.024  0.00  0.00    -0.050 A 
ATOM     22  C   UNL     1      -0.997   4.395  -5.465  0.00  0.00    +0.005 A 
ATOM     23  C   UNL     1      -1.993   4.917  -4.662  0.00  0.00    +0.024 A 
ATOM     24  C   UNL     1      -1.677   5.429  -3.411  0.00  0.00    +0.044 A 
ATOM     25  C   UNL     1      -0.359   5.421  -2.973  0.00  0.00    +0.024 A 
ATOM     26  C   UNL     1       0.631   4.894  -3.778  0.00  0.00    +0.005 A 
ENDBRANCH   1  24
BRANCH  14  27
ATOM     27  C   UNL     1      -2.471   5.179   0.154  0.00  0.00    +0.237 C 
ATOM     28  O   UNL     1      -1.429   5.800   0.147  0.00  0.00    -0.273 OA
ATOM     29  N   UNL     1      -2.455   3.836   0.046  0.00  0.00    -0.281 N 
ATOM     30  H   UNL     1      -3.289   3.345  -0.029  0.00  0.00    +0.155 HD
BRANCH  29  31
ATOM     31  C   UNL     1      -1.235   3.147   0.043  0.00  0.00    +0.077 A 
ATOM     32  C   UNL     1      -0.117   3.710   0.642  0.00  0.00    +0.047 A 
ATOM     33  C   UNL     1       1.086   3.028   0.637  0.00  0.00    +0.043 A 
ATOM     34  C   UNL     1       1.178   1.785   0.036  0.00  0.00    +0.024 A 
ATOM     35  C   UNL     1       0.068   1.219  -0.562  0.00  0.00    +0.049 A 
ATOM     36  C   UNL     1      -1.140   1.898  -0.566  0.00  0.00    +0.141 A 
ATOM     37 CL   UNL     1       2.484   3.734   1.386  0.00  0.00    -0.083 Cl
BRANCH  36  38
ATOM     38  O   UNL     1      -2.231   1.344  -1.159  0.00  0.00    -0.493 OA
ATOM     39  C   UNL     1      -2.061   0.058  -1.759  0.00  0.00    +0.277 C 
ENDBRANCH  36  38
ENDBRANCH  29  31
ENDBRANCH  14  27
TORSDOF 4
