REMARK  Name = ZINC15126091
REMARK  14 active torsions:
REMARK  status: ('A' for Active; 'I' for Inactive)
REMARK    1  A    between atoms: C_1  and  C_2
REMARK    2  A    between atoms: C_2  and  C_3
REMARK    3  A    between atoms: C_3  and  C_5
REMARK    4  A    between atoms: C_3  and  N_76
REMARK    5  A    between atoms: C_8  and  S_17
REMARK    6  A    between atoms: N_9  and  C_10
REMARK    7  A    between atoms: C_10  and  C_11
REMARK    8  A    between atoms: S_17  and  C_18
REMARK    9  A    between atoms: C_18  and  C_19
REMARK   10  A    between atoms: N_21  and  C_22
REMARK   11  A    between atoms: C_22  and  C_24
REMARK   12  A    between atoms: C_22  and  C_25
REMARK   13  A    between atoms: C_35  and  N_76
REMARK   14  A    between atoms: C_36  and  N_76
REMARK                            x       y       z     vdW  Elec       q    Type
REMARK                         _______ _______ _______ _____ _____    ______ ____
ROOT
ATOM      1  C   UNL     1       0.334   0.142  -5.121  0.00  0.00    +0.121 A 
ATOM      2  N   UNL     1       0.788  -0.066  -3.918  0.00  0.00    -0.135 NA
ATOM      3  N   UNL     1      -0.152   0.096  -3.057  0.00  0.00    -0.123 NA
ATOM      4  C   UNL     1      -1.269   0.411  -3.670  0.00  0.00    +0.192 A 
ATOM      5  N   UNL     1      -0.993   0.454  -5.007  0.00  0.00    -0.303 N 
ENDROOT
BRANCH   1   6
ATOM      6  C   UNL     1       1.124   0.056  -6.401  0.00  0.00    +0.000 C 
BRANCH   6   9
ATOM      7  C   UNL     1       1.137  -2.349  -6.123  0.00  0.00    -0.096 C 
ATOM      8  C   UNL     1       2.706  -1.297  -7.638  0.00  0.00    -0.096 C 
ATOM      9  N   UNL     1       1.972  -1.154  -6.363  0.00  0.00    +0.383 N 
ATOM     10  H   UNL     1       2.650  -1.061  -5.597  0.00  0.00    -0.082 HD
ENDBRANCH   6   9
BRANCH   6  12
ATOM     11  C   UNL     1       2.997   1.333  -5.351  0.00  0.00    +0.002 C 
ATOM     12  C   UNL     1       2.023   1.287  -6.530  0.00  0.00    -0.011 C 
ENDBRANCH   6  12
ENDBRANCH   1   6
BRANCH   5  13
ATOM     13  C   UNL     1      -1.924   0.767  -6.093  0.00  0.00    +0.160 C 
BRANCH  13  14
ATOM     14  C   UNL     1      -1.911   2.252  -6.354  0.00  0.00    -0.028 A 
ATOM     15  C   UNL     1      -2.789   3.080  -5.679  0.00  0.00    +0.005 A 
ATOM     16  C   UNL     1      -2.773   4.442  -5.915  0.00  0.00    +0.000 A 
ATOM     17  C   UNL     1      -1.887   4.975  -6.832  0.00  0.00    +0.000 A 
ATOM     18  C   UNL     1      -1.012   4.146  -7.510  0.00  0.00    +0.000 A 
ATOM     19  C   UNL     1      -1.024   2.784  -7.271  0.00  0.00    +0.005 A 
ENDBRANCH  13  14
ENDBRANCH   5  13
BRANCH   4  20
ATOM     20  S   UNL     1      -2.828   0.727  -2.912  0.00  0.00    -0.077 S 
BRANCH  20  21
ATOM     21  C   UNL     1      -2.388   0.478  -1.174  0.00  0.00    +0.173 C 
BRANCH  21  22
ATOM     22  C   UNL     1      -3.603   0.702  -0.311  0.00  0.00    +0.224 C 
ATOM     23  O   UNL     1      -4.662   1.000  -0.822  0.00  0.00    -0.275 OA
ATOM     24  N   UNL     1      -3.513   0.570   1.027  0.00  0.00    -0.312 N 
ATOM     25  H   UNL     1      -2.666   0.332   1.435  0.00  0.00    +0.149 HD
BRANCH  24  26
ATOM     26  C   UNL     1      -4.694   0.788   1.865  0.00  0.00    +0.076 C 
ATOM     27  C   UNL     1      -5.511  -0.504   1.941  0.00  0.00    +0.028 C 
BRANCH  26  28
ATOM     28  C   UNL     1      -4.253   1.195   3.273  0.00  0.00    -0.010 C 
ATOM     29  C   UNL     1      -3.436   2.487   3.197  0.00  0.00    +0.012 C 
ATOM     30  C   UNL     1      -2.995   2.894   4.604  0.00  0.00    -0.010 C 
ATOM     31  C   UNL     1      -4.229   3.121   5.480  0.00  0.00    +0.007 C 
ATOM     32  C   UNL     1      -5.045   1.829   5.556  0.00  0.00    -0.010 C 
ATOM     33  C   UNL     1      -5.487   1.422   4.149  0.00  0.00    +0.012 C 
ATOM     34  C   UNL     1      -4.187   0.718   6.162  0.00  0.00    +0.007 C 
ATOM     35  C   UNL     1      -2.953   0.491   5.287  0.00  0.00    -0.010 C 
ATOM     36  C   UNL     1      -2.136   1.782   5.211  0.00  0.00    +0.007 C 
ATOM     37  C   UNL     1      -3.395   0.084   3.880  0.00  0.00    +0.012 C 
ENDBRANCH  26  28
ENDBRANCH  24  26
ENDBRANCH  21  22
ENDBRANCH  20  21
ENDBRANCH   4  20
TORSDOF 10
