REMARK  Name = ZINC36849630
REMARK  7 active torsions:
REMARK  status: ('A' for Active; 'I' for Inactive)
REMARK    1  A    between atoms: C_1  and  C_2
REMARK    2  A    between atoms: C_2  and  C_28
REMARK    3  A    between atoms: N_5  and  C_9
REMARK    4  A    between atoms: C_9  and  C_10
REMARK    5  A    between atoms: C_10  and  C_12
REMARK    6  A    between atoms: C_21  and  C_22
REMARK    7  A    between atoms: C_31  and  C_34
REMARK                            x       y       z     vdW  Elec       q    Type
REMARK                         _______ _______ _______ _____ _____    ______ ____
ROOT
ATOM      1  C   UNL     1      -2.569  -1.986   1.805  0.00  0.00    +0.197 C 
ENDROOT
BRANCH   1   6
ATOM      2  C   UNL     1      -0.019   1.526   0.010  0.00  0.00    +0.047 C 
ATOM      3  C   UNL     1       0.002  -0.004   0.002  0.00  0.00    +0.135 C 
ATOM      4  C   UNL     1      -1.403  -0.557   0.139  0.00  0.00    +0.251 C 
ATOM      5  O   UNL     1      -2.332  -0.392  -0.621  0.00  0.00    -0.272 OA
ATOM      6  N   UNL     1      -1.403  -1.272   1.282  0.00  0.00    -0.216 N 
ATOM      7  C   UNL     1      -0.206  -1.247   1.879  0.00  0.00    +0.310 C 
ATOM      8  O   UNL     1       0.040  -1.819   2.924  0.00  0.00    -0.252 OA
ATOM      9  N   UNL     1       0.695  -0.520   1.195  0.00  0.00    -0.281 N 
ATOM     10  H   UNL     1       1.621  -0.365   1.440  0.00  0.00    +0.152 HD
BRANCH   3  11
ATOM     11  C   UNL     1       0.657  -0.517  -1.255  0.00  0.00    -0.015 A 
ATOM     12  C   UNL     1      -0.111  -0.771  -2.377  0.00  0.00    +0.007 A 
ATOM     13  C   UNL     1       0.482  -1.241  -3.531  0.00  0.00    +0.019 A 
ATOM     14  C   UNL     1       1.861  -1.459  -3.564  0.00  0.00    +0.052 A 
ATOM     15  C   UNL     1       2.630  -1.200  -2.428  0.00  0.00    +0.019 A 
ATOM     16  C   UNL     1       2.024  -0.726  -1.282  0.00  0.00    +0.007 A 
BRANCH  14  17
ATOM     17  C   UNL     1       2.483  -1.947  -4.758  0.00  0.00    +0.099 C 
ATOM     18  N   UNL     1       2.976  -2.334  -5.705  0.00  0.00    -0.191 NA
ENDBRANCH  14  17
ENDBRANCH   3  11
ENDBRANCH   1   6
BRANCH   1  19
ATOM     19  C   UNL     1      -2.585  -3.391   1.260  0.00  0.00    +0.183 C 
ATOM     20  O   UNL     1      -1.706  -3.760   0.507  0.00  0.00    -0.290 OA
BRANCH  19  21
ATOM     21  C   UNL     1      -3.621  -4.280   1.625  0.00  0.00    +0.052 A 
ATOM     22  C   UNL     1      -4.760  -3.994   2.517  0.00  0.00    +0.011 A 
ATOM     23  C   UNL     1      -5.163  -2.868   3.232  0.00  0.00    +0.011 A 
ATOM     24  C   UNL     1      -6.308  -2.919   3.997  0.00  0.00    +0.001 A 
ATOM     25  C   UNL     1      -7.057  -4.085   4.057  0.00  0.00    +0.002 A 
ATOM     26  C   UNL     1      -6.670  -5.205   3.354  0.00  0.00    +0.026 A 
ATOM     27  C   UNL     1      -5.517  -5.174   2.575  0.00  0.00    +0.048 A 
ATOM     28  N   UNL     1      -4.897  -6.119   1.782  0.00  0.00    -0.354 N 
ATOM     29  H   UNL     1      -5.218  -7.025   1.648  0.00  0.00    +0.166 HD
ATOM     30  C   UNL     1      -3.776  -5.600   1.209  0.00  0.00    +0.058 A 
BRANCH  30  31
ATOM     31  C   UNL     1      -2.869  -6.322   0.296  0.00  0.00    -0.001 A 
ATOM     32  C   UNL     1      -2.404  -5.703  -0.866  0.00  0.00    +0.010 A 
ATOM     33  C   UNL     1      -1.556  -6.384  -1.715  0.00  0.00    +0.001 A 
ATOM     34  C   UNL     1      -1.167  -7.678  -1.417  0.00  0.00    +0.000 A 
ATOM     35  C   UNL     1      -1.623  -8.298  -0.267  0.00  0.00    +0.001 A 
ATOM     36  C   UNL     1      -2.466  -7.627   0.594  0.00  0.00    +0.010 A 
ENDBRANCH  30  31
ENDBRANCH  19  21
ENDBRANCH   1  19
TORSDOF 6
