REMARK  Name = ZINC39609090
REMARK  9 active torsions:
REMARK  status: ('A' for Active; 'I' for Inactive)
REMARK    1  A    between atoms: C_4  and  C_7
REMARK    2  A    between atoms: C_7  and  C_8
REMARK    3  A    between atoms: C_8  and  C_9
REMARK    4  A    between atoms: C_9  and  C_10
REMARK    5  A    between atoms: C_14  and  C_23
REMARK    6  A    between atoms: N_25  and  C_26
REMARK    7  A    between atoms: C_31  and  O_33
REMARK    8  A    between atoms: O_33  and  C_34
REMARK    9  A    between atoms: C_34  and  C_35
REMARK                            x       y       z     vdW  Elec       q    Type
REMARK                         _______ _______ _______ _____ _____    ______ ____
ROOT
ATOM      1  C   UNL     1       5.960  -1.996   2.924  0.00  0.00    +0.216 C 
ATOM      2  O   UNL     1       5.321  -1.587   3.870  0.00  0.00    -0.276 OA
ATOM      3  N   UNL     1       7.137  -2.621   3.126  0.00  0.00    -0.300 N 
ATOM      4  C   UNL     1       8.056  -3.179   2.106  0.00  0.00    +0.121 C 
ATOM      5  C   UNL     1       9.470  -2.836   2.626  0.00  0.00    +0.100 C 
ATOM      6  C   UNL     1       9.298  -2.660   4.144  0.00  0.00    -0.004 C 
ATOM      7  C   UNL     1       7.807  -2.901   4.418  0.00  0.00    +0.115 C 
ATOM      8  C   UNL     1       9.683  -1.244   4.559  0.00  0.00    -0.010 C 
ATOM      9  C   UNL     1       9.559  -1.111   6.079  0.00  0.00    -0.082 C 
ATOM     10  N   UNL     1      10.438  -2.089   6.731  0.00  0.00    +0.379 N 
ATOM     11  C   UNL     1      10.004  -3.451   6.401  0.00  0.00    -0.082 C 
ATOM     12  C   UNL     1      10.146  -3.683   4.894  0.00  0.00    -0.010 C 
ATOM     13  H   UNL     1      11.385  -1.953   6.412  0.00  0.00    -0.086 HD
ATOM     14  H   UNL     1      10.400  -1.959   7.731  0.00  0.00    -0.086 HD
ENDROOT
BRANCH   5  15
ATOM     15  C   UNL     1      10.425  -3.963   2.330  0.00  0.00    +0.218 C 
ATOM     16  O   UNL     1      10.024  -5.108   2.308  0.00  0.00    -0.275 OA
ATOM     17  N   UNL     1      11.725  -3.700   2.091  0.00  0.00    -0.310 N 
ATOM     18  H   UNL     1      12.046  -2.785   2.109  0.00  0.00    +0.149 HD
BRANCH  17  19
ATOM     19  C   UNL     1      12.654  -4.796   1.804  0.00  0.00    +0.102 C 
ATOM     20  C   UNL     1      13.219  -5.366   3.117  0.00  0.00    +0.025 C 
ATOM     21  C   UNL     1      14.747  -5.167   3.062  0.00  0.00    +0.004 C 
ATOM     22  C   UNL     1      15.064  -5.071   1.549  0.00  0.00    +0.033 C 
ATOM     23  C   UNL     1      13.859  -4.270   0.996  0.00  0.00    +0.139 C 
BRANCH  23  24
ATOM     24  O   UNL     1      13.680  -4.532  -0.397  0.00  0.00    -0.370 OA
BRANCH  24  25
ATOM     25  C   UNL     1      14.304  -3.573  -1.253  0.00  0.00    +0.195 C 
BRANCH  25  26
ATOM     26  C   UNL     1      14.052  -3.946  -2.692  0.00  0.00    -0.022 A 
ATOM     27  C   UNL     1      14.935  -4.777  -3.355  0.00  0.00    +0.006 A 
ATOM     28  C   UNL     1      14.704  -5.119  -4.675  0.00  0.00    +0.000 A 
ATOM     29  C   UNL     1      13.590  -4.629  -5.331  0.00  0.00    +0.000 A 
ATOM     30  C   UNL     1      12.707  -3.798  -4.667  0.00  0.00    +0.000 A 
ATOM     31  C   UNL     1      12.935  -3.460  -3.346  0.00  0.00    +0.006 A 
ENDBRANCH  25  26
ENDBRANCH  24  25
ENDBRANCH  23  24
ENDBRANCH  17  19
ENDBRANCH   5  15
BRANCH   1  32
ATOM     32  C   UNL     1       5.440  -1.804   1.523  0.00  0.00    +0.096 C 
BRANCH  32  33
ATOM     33  C   UNL     1       4.097  -1.072   1.573  0.00  0.00    +0.014 C 
BRANCH  33  34
ATOM     34  C   UNL     1       3.569  -0.877   0.151  0.00  0.00    +0.035 C 
BRANCH  34  38
ATOM     35  C   UNL     1      -0.180   1.167   0.289  0.00  0.00    +0.000 A 
ATOM     36  C   UNL     1       0.997   1.886   0.200  0.00  0.00    +0.000 A 
ATOM     37  C   UNL     1       2.210   1.225   0.155  0.00  0.00    +0.003 A 
ATOM     38  C   UNL     1       2.246  -0.156   0.200  0.00  0.00    -0.047 A 
ATOM     39  C   UNL     1       1.069  -0.876   0.291  0.00  0.00    +0.003 A 
ATOM     40  C   UNL     1      -0.144  -0.214   0.334  0.00  0.00    +0.000 A 
ENDBRANCH  34  38
ENDBRANCH  33  34
ENDBRANCH  32  33
ENDBRANCH   1  32
TORSDOF 9
