REMARK  Name = ZINC66982006
REMARK  4 active torsions:
REMARK  status: ('A' for Active; 'I' for Inactive)
REMARK    1  A    between atoms: C_1  and  C_2
REMARK    2  A    between atoms: N_19  and  C_20
REMARK    3  A    between atoms: C_22  and  N_28
REMARK    4  A    between atoms: C_29  and  C_31
REMARK                            x       y       z     vdW  Elec       q    Type
REMARK                         _______ _______ _______ _____ _____    ______ ____
ROOT
ATOM      1  C   UNL     1      -0.529   1.622   0.525  0.00  0.00    +0.035 C 
ATOM      2  C   UNL     1      -0.413   0.105   0.358  0.00  0.00    +0.121 C 
ATOM      3  C   UNL     1      -1.754  -0.544   0.620  0.00  0.00    +0.041 A 
ATOM      4  C   UNL     1      -1.921  -1.602   1.442  0.00  0.00    -0.016 A 
ATOM      5  C   UNL     1      -3.333  -1.931   1.425  0.00  0.00    +0.003 A 
ATOM      6  C   UNL     1      -4.083  -2.919   2.071  0.00  0.00    +0.010 A 
ATOM      7  C   UNL     1      -5.433  -2.938   1.817  0.00  0.00    +0.001 A 
ATOM      8  C   UNL     1      -6.034  -2.027   0.964  0.00  0.00    +0.002 A 
ATOM      9  C   UNL     1      -5.315  -1.040   0.312  0.00  0.00    +0.026 A 
ATOM     10  C   UNL     1      -3.943  -0.997   0.550  0.00  0.00    +0.047 A 
ATOM     11  N   UNL     1      -2.958  -0.174   0.084  0.00  0.00    -0.356 N 
ATOM     12  H   UNL     1      -3.092   0.561  -0.535  0.00  0.00    +0.166 HD
ATOM     13  C   UNL     1      -0.815  -2.274   2.216  0.00  0.00    +0.056 C 
ATOM     14  C   UNL     1       0.533  -1.883   1.598  0.00  0.00    +0.115 C 
ATOM     15  N   UNL     1       0.541  -0.435   1.341  0.00  0.00    -0.277 N 
ATOM     16  C   UNL     1       1.399   0.377   1.990  0.00  0.00    +0.307 C 
ATOM     17  O   UNL     1       1.331   1.581   1.836  0.00  0.00    -0.252 OA
ATOM     18  N   UNL     1       2.333  -0.146   2.809  0.00  0.00    -0.267 N 
ATOM     19  H   UNL     1       2.421  -1.108   2.893  0.00  0.00    +0.156 HD
ENDROOT
BRANCH  18  20
ATOM     20  C   UNL     1       3.177   0.702   3.541  0.00  0.00    +0.072 A 
ATOM     21  C   UNL     1       3.216   2.058   3.255  0.00  0.00    +0.052 A 
ATOM     22  C   UNL     1       4.051   2.895   3.981  0.00  0.00    +0.071 A 
ATOM     23  C   UNL     1       4.848   2.372   4.993  0.00  0.00    +0.147 A 
ATOM     24  C   UNL     1       4.808   1.018   5.276  0.00  0.00    +0.080 A 
ATOM     25  C   UNL     1       3.971   0.183   4.557  0.00  0.00    +0.147 A 
ATOM     26  F   UNL     1       3.930  -1.137   4.840  0.00  0.00    -0.203 F 
ATOM     27  F   UNL     1       5.662   3.186   5.700  0.00  0.00    -0.203 F 
BRANCH  22  28
ATOM     28  N   UNL     1       4.093   4.266   3.693  0.00  0.00    -0.283 N 
ATOM     29  C   UNL     1       2.992   4.891   3.231  0.00  0.00    +0.214 C 
ATOM     30  O   UNL     1       1.938   4.294   3.165  0.00  0.00    -0.276 OA
ATOM     31  C   UNL     1       3.070   6.331   2.794  0.00  0.00    +0.109 C 
ATOM     32  H   UNL     1       4.913   4.765   3.828  0.00  0.00    +0.155 HD
ENDBRANCH  22  28
ENDBRANCH  18  20
TORSDOF 2
