REMARK  Name = ZINC10042320
REMARK  14 active torsions:
REMARK  status: ('A' for Active; 'I' for Inactive)
REMARK    1  A    between atoms: C_1  and  C_2
REMARK    2  A    between atoms: C_2  and  C_3
REMARK    3  A    between atoms: C_2  and  C_4
REMARK    4  A    between atoms: C_4  and  C_6
REMARK    5  A    between atoms: C_4  and  N_24
REMARK    6  A    between atoms: N_8  and  N_9
REMARK    7  A    between atoms: C_10  and  C_11
REMARK    8  A    between atoms: C_13  and  O_22
REMARK    9  A    between atoms: C_14  and  O_18
REMARK   10  A    between atoms: O_18  and  C_19
REMARK   11  A    between atoms: C_19  and  C_20
REMARK   12  A    between atoms: C_19  and  C_21
REMARK   13  A    between atoms: O_22  and  C_23
REMARK   14  A    between atoms: C_25  and  C_27
REMARK                            x       y       z     vdW  Elec       q    Type
REMARK                         _______ _______ _______ _____ _____    ______ ____
ROOT
ATOM      1  C   UNL     1      -0.263  -8.898  -2.954  0.00  0.00    +0.253 C 
ATOM      2  O   UNL     1       0.706  -8.843  -2.226  0.00  0.00    -0.272 OA
ATOM      3  N   UNL     1      -0.905  -7.766  -3.307  0.00  0.00    -0.205 N 
ATOM      4  H   UNL     1      -1.633  -7.801  -3.946  0.00  0.00    +0.177 HD
ENDROOT
BRANCH   3   5
ATOM      5  N   UNL     1      -0.519  -6.539  -2.752  0.00  0.00    -0.188 NA
ATOM      6  C   UNL     1      -1.137  -5.450  -3.092  0.00  0.00    +0.138 C 
BRANCH   6   7
ATOM      7  C   UNL     1      -0.730  -4.159  -2.507  0.00  0.00    -0.001 A 
ATOM      8  C   UNL     1      -1.395  -2.985  -2.873  0.00  0.00    +0.059 A 
ATOM      9  C   UNL     1      -1.010  -1.777  -2.322  0.00  0.00    +0.163 A 
ATOM     10  C   UNL     1       0.038  -1.731  -1.405  0.00  0.00    +0.176 A 
ATOM     11  C   UNL     1       0.702  -2.896  -1.046  0.00  0.00    +0.064 A 
ATOM     12  C   UNL     1       0.319  -4.106  -1.587  0.00  0.00    +0.028 A 
ATOM     13 BR   UNL     1       2.128  -2.825   0.193  0.00  0.00    -0.046 Br
BRANCH   9  14
ATOM     14  O   UNL     1      -1.654  -0.632  -2.676  0.00  0.00    -0.491 OA
ATOM     15  C   UNL     1      -2.719  -0.753  -3.621  0.00  0.00    +0.277 C 
ENDBRANCH   9  14
BRANCH  10  16
ATOM     16  O   UNL     1       0.416  -0.542  -0.866  0.00  0.00    -0.485 OA
BRANCH  16  17
ATOM     17  C   UNL     1      -0.231  -0.144   0.345  0.00  0.00    +0.168 C 
ATOM     18  C   UNL     1      -0.295   1.383   0.412  0.00  0.00    +0.051 C 
ATOM     19  C   UNL     1       0.560  -0.674   1.543  0.00  0.00    +0.051 C 
ENDBRANCH  16  17
ENDBRANCH  10  16
ENDBRANCH   6   7
ENDBRANCH   3   5
BRANCH   1  20
ATOM     20  C   UNL     1      -0.750 -10.230  -3.462  0.00  0.00    +0.163 C 
BRANCH  20  21
ATOM     21  N   UNL     1      -0.415 -11.275  -2.492  0.00  0.00    -0.300 N 
ATOM     22  C   UNL     1      -1.141 -12.409  -2.446  0.00  0.00    +0.245 C 
ATOM     23  O   UNL     1      -2.074 -12.566  -3.209  0.00  0.00    -0.270 OA
ATOM     24  H   UNL     1       0.330 -11.151  -1.883  0.00  0.00    +0.150 HD
BRANCH  22  25
ATOM     25  C   UNL     1      -0.803 -13.464  -1.466  0.00  0.00    +0.038 A 
ATOM     26  C   UNL     1      -1.553 -14.640  -1.416  0.00  0.00    +0.013 A 
ATOM     27  C   UNL     1      -1.233 -15.621  -0.500  0.00  0.00    +0.002 A 
ATOM     28  C   UNL     1      -0.170 -15.442   0.367  0.00  0.00    +0.020 A 
ATOM     29  C   UNL     1       0.579 -14.278   0.323  0.00  0.00    +0.042 A 
ATOM     30  C   UNL     1       0.271 -13.291  -0.592  0.00  0.00    +0.033 A 
ATOM     31 CL   UNL     1       1.911 -14.063   1.415  0.00  0.00    -0.084 Cl
ENDBRANCH  22  25
ENDBRANCH  20  21
BRANCH  20  33
ATOM     32  C   UNL     1      -0.643 -11.847  -5.365  0.00  0.00    +0.009 C 
ATOM     33  C   UNL     1      -0.077 -10.542  -4.801  0.00  0.00    +0.012 C 
ATOM     34  C   UNL     1      -0.345  -9.402  -5.785  0.00  0.00    +0.009 C 
ENDBRANCH  20  33
ENDBRANCH   1  20
TORSDOF 9
