REMARK  Name = ZINC48277222
REMARK  7 active torsions:
REMARK  status: ('A' for Active; 'I' for Inactive)
REMARK    1  A    between atoms: C_1  and  C_2
REMARK    2  A    between atoms: C_6  and  C_15
REMARK    3  A    between atoms: C_10  and  C_11
REMARK    4  A    between atoms: C_11  and  O_13
REMARK    5  A    between atoms: O_13  and  C_14
REMARK    6  A    between atoms: N_16  and  C_17
REMARK    7  A    between atoms: C_22  and  C_25
REMARK                            x       y       z     vdW  Elec       q    Type
REMARK                         _______ _______ _______ _____ _____    ______ ____
ROOT
ATOM      1  C   UNL     1      -0.080   1.502   0.015  0.00  0.00    +0.046 C 
ATOM      2  C   UNL     1      -0.054  -0.005   0.007  0.00  0.00    -0.017 A 
ATOM      3  C   UNL     1      -0.127  -0.701  -1.206  0.00  0.00    +0.051 A 
ATOM      4  C   UNL     1      -0.232  -0.191  -2.535  0.00  0.00    +0.131 A 
ATOM      5  N   UNL     1      -0.289  -1.040  -3.549  0.00  0.00    -0.217 NA
ATOM      6  C   UNL     1      -0.253  -2.349  -3.376  0.00  0.00    +0.129 A 
ATOM      7  N   UNL     1      -0.157  -2.882  -2.173  0.00  0.00    -0.225 NA
ATOM      8  C   UNL     1      -0.095  -2.114  -1.105  0.00  0.00    +0.115 A 
ATOM      9  S   UNL     1       0.035  -2.395   0.642  0.00  0.00    -0.062 S 
ATOM     10  C   UNL     1       0.046  -0.693   1.178  0.00  0.00    +0.102 A 
ATOM     11  C   UNL     1      -0.324  -3.253  -4.580  0.00  0.00    +0.088 C 
ATOM     12  N   UNL     1      -0.273   1.169  -2.760  0.00  0.00    -0.326 N 
ATOM     13  H   UNL     1      -0.139   1.787  -2.024  0.00  0.00    +0.148 HD
ENDROOT
BRANCH  12  14
ATOM     14  C   UNL     1      -0.517   1.682  -4.111  0.00  0.00    +0.072 C 
ATOM     15  C   UNL     1      -2.025   1.742  -4.368  0.00  0.00    +0.022 C 
ATOM     16  C   UNL     1      -2.680   2.671  -3.344  0.00  0.00    +0.002 C 
ATOM     17  C   UNL     1      -2.084   4.074  -3.473  0.00  0.00    +0.012 C 
ATOM     18  C   UNL     1      -0.577   4.013  -3.216  0.00  0.00    +0.095 C 
ATOM     19  C   UNL     1       0.079   3.085  -4.240  0.00  0.00    +0.034 C 
BRANCH  18  20
ATOM     20  C   UNL     1       0.019   5.417  -3.345  0.00  0.00    +0.393 C 
ATOM     21  F   UNL     1      -0.580   6.266  -2.409  0.00  0.00    -0.170 F 
ATOM     22  F   UNL     1       1.397   5.362  -3.110  0.00  0.00    -0.170 F 
ATOM     23  F   UNL     1      -0.215   5.906  -4.635  0.00  0.00    -0.170 F 
ENDBRANCH  18  20
ENDBRANCH  12  14
BRANCH  10  24
ATOM     24  C   UNL     1       0.140  -0.165   2.543  0.00  0.00    +0.346 C 
ATOM     25  O   UNL     1       0.133   1.036   2.732  0.00  0.00    -0.244 OA
BRANCH  24  26
ATOM     26  O   UNL     1       0.234  -1.012   3.588  0.00  0.00    -0.464 OA
ATOM     27  C   UNL     1       0.321  -0.429   4.890  0.00  0.00    +0.280 C 
ENDBRANCH  24  26
ENDBRANCH  10  24
TORSDOF 4
