REMARK  Name = ZINC09239650
REMARK  8 active torsions:
REMARK  status: ('A' for Active; 'I' for Inactive)
REMARK    1  A    between atoms: C_1  and  C_2
REMARK    2  A    between atoms: C_2  and  C_3
REMARK    3  A    between atoms: C_3  and  C_4
REMARK    4  A    between atoms: C_10  and  C_26
REMARK    5  A    between atoms: C_12  and  C_15
REMARK    6  A    between atoms: N_17  and  C_18
REMARK    7  A    between atoms: C_23  and  C_24
REMARK    8  A    between atoms: C_29  and  C_32
REMARK                            x       y       z     vdW  Elec       q    Type
REMARK                         _______ _______ _______ _____ _____    ______ ____
ROOT
ATOM      1  C   UNL     1      -2.778   1.063  -2.374  0.00  0.00    +0.151 A 
ATOM      2  N   UNL     1      -3.948   0.629  -1.992  0.00  0.00    -0.132 NA
ATOM      3  N   UNL     1      -3.954   0.435  -0.718  0.00  0.00    -0.121 NA
ATOM      4  C   UNL     1      -2.784   0.734  -0.228  0.00  0.00    +0.209 A 
ATOM      5  N   UNL     1      -1.994   1.152  -1.260  0.00  0.00    -0.225 N 
ATOM      6  N   UNL     1      -0.704   1.571  -1.186  0.00  0.00    -0.272 N 
ATOM      7  C   UNL     1       0.003   1.095   0.004  0.00  0.00    +0.140 C 
ATOM      8  C   UNL     1      -0.708   1.579   1.274  0.00  0.00    +0.166 C 
ATOM      9  S   UNL     1      -2.247   0.635   1.451  0.00  0.00    -0.069 S 
ATOM     10  H   UNL     1      -0.198   1.335  -2.026  0.00  0.00    +0.167 HD
ENDROOT
BRANCH   7  11
ATOM     11  C   UNL     1       1.414   1.623  -0.010  0.00  0.00    -0.024 A 
ATOM     12  C   UNL     1       1.663   2.919  -0.420  0.00  0.00    +0.006 A 
ATOM     13  C   UNL     1       2.957   3.405  -0.428  0.00  0.00    +0.004 A 
ATOM     14  C   UNL     1       4.003   2.592  -0.036  0.00  0.00    -0.050 A 
ATOM     15  C   UNL     1       3.755   1.293   0.369  0.00  0.00    +0.004 A 
ATOM     16  C   UNL     1       2.460   0.809   0.382  0.00  0.00    +0.006 A 
ATOM     17  C   UNL     1       5.415   3.120  -0.049  0.00  0.00    +0.044 C 
ENDBRANCH   7  11
BRANCH   8  18
ATOM     18  C   UNL     1      -1.019   3.049   1.156  0.00  0.00    +0.233 C 
ATOM     19  O   UNL     1      -1.318   3.521   0.079  0.00  0.00    -0.274 OA
ATOM     20  N   UNL     1      -0.965   3.839   2.247  0.00  0.00    -0.284 N 
ATOM     21  H   UNL     1      -0.805   3.449   3.120  0.00  0.00    +0.155 HD
BRANCH  20  22
ATOM     22  C   UNL     1      -1.141   5.221   2.118  0.00  0.00    +0.038 A 
ATOM     23  C   UNL     1      -0.859   5.849   0.912  0.00  0.00    +0.023 A 
ATOM     24  C   UNL     1      -1.033   7.214   0.788  0.00  0.00    +0.003 A 
ATOM     25  C   UNL     1      -1.487   7.955   1.863  0.00  0.00    +0.020 A 
ATOM     26  C   UNL     1      -1.769   7.333   3.067  0.00  0.00    +0.046 A 
ATOM     27  C   UNL     1      -1.601   5.967   3.195  0.00  0.00    -0.011 A 
ATOM     28  C   UNL     1      -1.913   5.288   4.504  0.00  0.00    +0.047 C 
ATOM     29 CL   UNL     1      -2.338   8.268   4.414  0.00  0.00    -0.083 Cl
ENDBRANCH  20  22
ENDBRANCH   8  18
BRANCH   1  30
ATOM     30  C   UNL     1      -2.370   1.404  -3.784  0.00  0.00    +0.078 C 
BRANCH  30  32
ATOM     31  C   UNL     1      -1.377   0.507  -5.894  0.00  0.00    +0.004 C 
ATOM     32  C   UNL     1      -1.792   0.161  -4.463  0.00  0.00    +0.004 C 
ENDBRANCH  30  32
ENDBRANCH   1  30
TORSDOF 5
