REMARK  Name = ZINC39680197
REMARK  10 active torsions:
REMARK  status: ('A' for Active; 'I' for Inactive)
REMARK    1  A    between atoms: C_2  and  C_3
REMARK    2  A    between atoms: C_3  and  N_4
REMARK    3  A    between atoms: C_5  and  C_31
REMARK    4  A    between atoms: C_9  and  S_11
REMARK    5  A    between atoms: S_11  and  C_12
REMARK    6  A    between atoms: C_12  and  C_13
REMARK    7  A    between atoms: N_15  and  CA_16
REMARK    8  A    between atoms: CA_16  and  CB_18
REMARK    9  A    between atoms: CA_16  and  C_28
REMARK   10  A    between atoms: CB_18  and  CG_19
REMARK                            x       y       z     vdW  Elec       q    Type
REMARK                         _______ _______ _______ _____ _____    ______ ____
ROOT
ATOM      1  C   UNK A   0       3.014  -3.369   1.557  0.00  0.00    +0.224 C 
ATOM      2  O   UNK A   0       2.582  -2.815   2.546  0.00  0.00    -0.275 OA
ATOM      3  N   TRP A   1       4.219  -3.972   1.595  0.00  0.00    -0.301 N 
ATOM      4  H   TRP A   1       4.564  -4.415   0.804  0.00  0.00    +0.150 HD
ENDROOT
BRANCH   1   5
ATOM      5  C   UNK A   0       2.204  -3.383   0.286  0.00  0.00    +0.167 C 
BRANCH   5   6
ATOM      6  S   UNK A   0       0.645  -2.495   0.554  0.00  0.00    -0.116 S 
BRANCH   6  11
ATOM      7  N   UNK A   0      -1.391  -1.777  -1.074  0.00  0.00    -0.257 NA
ATOM      8  C   UNK A   0      -2.625  -2.593  -1.158  0.00  0.00    +0.144 C 
ATOM      9  N   UNK A   0      -2.162  -3.900  -1.695  0.00  0.00    -0.237 NA
ATOM     10  N   UNK A   0      -0.860  -4.088  -1.036  0.00  0.00    -0.229 NA
ATOM     11  C   UNK A   0      -0.266  -2.732  -0.997  0.00  0.00    +0.200 C 
ATOM     12  H   UNK A   0      -2.057  -3.862  -2.698  0.00  0.00    +0.142 HD
ATOM     13  H   UNK A   0      -0.976  -4.458  -0.104  0.00  0.00    +0.143 HD
BRANCH   8  14
ATOM     14  C   UNK A   0      -3.631  -1.946  -2.112  0.00  0.00    +0.022 C 
ATOM     15  C   UNK A   0      -3.993  -0.550  -1.601  0.00  0.00    +0.006 C 
ATOM     16  C   UNK A   0      -4.999   0.097  -2.554  0.00  0.00    +0.000 C 
ATOM     17  C   UNK A   0      -6.262  -0.763  -2.624  0.00  0.00    +0.000 C 
ATOM     18  C   UNK A   0      -5.901  -2.159  -3.135  0.00  0.00    +0.000 C 
ATOM     19  C   UNK A   0      -4.894  -2.807  -2.181  0.00  0.00    +0.006 C 
ENDBRANCH   8  14
BRANCH   7  20
ATOM     20  C   UNK A   0      -1.420  -0.900   0.104  0.00  0.00    +0.115 C 
BRANCH  20  22
ATOM     21  C   UNK A   0      -0.647   1.415   0.062  0.00  0.00    +0.005 C 
ATOM     22  C   UNK A   0      -0.341   0.145  -0.022  0.00  0.00    -0.019 C 
ENDBRANCH  20  22
ENDBRANCH   7  20
ENDBRANCH   6  11
ENDBRANCH   5   6
ENDBRANCH   1   5
BRANCH   3  23
ATOM     23  CA  TRP A   1       5.006  -3.958   2.830  0.00  0.00    +0.191 C 
BRANCH  23  24
ATOM     24  C   TRP A   1       5.804  -2.682   2.904  0.00  0.00    +0.376 C 
ATOM     25  O   TRP A   1       6.077  -2.195   3.988  0.00  0.00    -0.244 OA
ATOM     26  OXT TRP A   1       6.176  -2.136   1.879  0.00  0.00    -0.244 OA
ENDBRANCH  23  24
BRANCH  23  27
ATOM     27  CB  TRP A   1       5.958  -5.156   2.841  0.00  0.00    +0.071 C 
BRANCH  27  28
ATOM     28  CG  TRP A   1       5.159  -6.433   2.892  0.00  0.00    -0.020 A 
ATOM     29  CD2 TRP A   1       4.585  -7.147   1.749  0.00  0.00    +0.003 A 
ATOM     30  CE3 TRP A   1       4.576  -6.925   0.371  0.00  0.00    +0.010 A 
ATOM     31  CZ3 TRP A   1       3.932  -7.805  -0.453  0.00  0.00    +0.001 A 
ATOM     32  CH2 TRP A   1       3.287  -8.917   0.068  0.00  0.00    +0.002 A 
ATOM     33  CZ2 TRP A   1       3.283  -9.155   1.425  0.00  0.00    +0.026 A 
ATOM     34  CE2 TRP A   1       3.932  -8.274   2.283  0.00  0.00    +0.047 A 
ATOM     35  NE1 TRP A   1       4.105  -8.234   3.649  0.00  0.00    -0.360 N 
ATOM     36  CD1 TRP A   1       4.843  -7.134   3.992  0.00  0.00    +0.087 A 
ATOM     37  HE1 TRP A   1       3.759  -8.890   4.274  0.00  0.00    +0.165 HD
ENDBRANCH  27  28
ENDBRANCH  23  27
ENDBRANCH   3  23
TORSDOF 10
