REMARK  Name = ZINC64541244
REMARK  9 active torsions:
REMARK  status: ('A' for Active; 'I' for Inactive)
REMARK    1  A    between atoms: C_1  and  C_2
REMARK    2  A    between atoms: C_2  and  C_4
REMARK    3  A    between atoms: C_2  and  C_23
REMARK    4  A    between atoms: C_10  and  C_12
REMARK    5  A    between atoms: N_25  and  C_26
REMARK    6  A    between atoms: C_26  and  C_27
REMARK    7  A    between atoms: C_30  and  N_33
REMARK    8  A    between atoms: N_33  and  C_34
REMARK    9  A    between atoms: N_33  and  C_35
REMARK                            x       y       z     vdW  Elec       q    Type
REMARK                         _______ _______ _______ _____ _____    ______ ____
ROOT
ATOM      1  C   UNL     1      -1.421  -0.559   0.037  0.00  0.00    +0.004 C 
ATOM      2  C   UNL     1      -1.401  -2.089   0.010  0.00  0.00    +0.023 C 
ATOM      3  C   UNL     1      -2.840  -2.614  -0.013  0.00  0.00    +0.108 C 
ATOM      4  N   UNL     1      -3.571  -2.040   1.125  0.00  0.00    -0.300 N 
ATOM      5  C   UNL     1      -3.578  -0.581   1.297  0.00  0.00    +0.108 C 
ATOM      6  C   UNL     1      -2.131  -0.079   1.305  0.00  0.00    +0.023 C 
ATOM      7  C   UNL     1      -4.223  -2.837   1.994  0.00  0.00    +0.242 C 
ATOM      8  O   UNL     1      -4.210  -4.040   1.841  0.00  0.00    -0.273 OA
ENDROOT
BRANCH   7   9
ATOM      9  C   UNL     1      -4.969  -2.233   3.157  0.00  0.00    +0.190 C 
ATOM     10  C   UNL     1      -6.085  -1.345   2.655  0.00  0.00    +0.016 C 
ATOM     11  C   UNL     1      -7.232  -1.879   3.134  0.00  0.00    -0.002 A 
ATOM     12  C   UNL     1      -8.641  -1.488   3.003  0.00  0.00    +0.029 A 
ATOM     13  C   UNL     1      -9.589  -2.237   3.610  0.00  0.00    +0.042 A 
ATOM     14  C   UNL     1      -9.260  -3.376   4.361  0.00  0.00    +0.022 A 
ATOM     15  C   UNL     1      -7.989  -3.797   4.526  0.00  0.00    +0.027 A 
ATOM     16  C   UNL     1      -6.912  -3.084   3.931  0.00  0.00    +0.043 A 
ATOM     17  N   UNL     1      -5.615  -3.288   3.946  0.00  0.00    -0.370 N 
ATOM     18 CL   UNL     1     -11.257  -1.778   3.458  0.00  0.00    -0.084 Cl
ATOM     19  H   UNL     1      -5.160  -4.014   4.401  0.00  0.00    +0.161 HD
ENDBRANCH   7   9
BRANCH   1  21
ATOM     20  C   UNL     1      -0.005   1.500   0.051  0.00  0.00    +0.017 C 
ATOM     21  C   UNL     1       0.014  -0.030   0.025  0.00  0.00    +0.075 C 
BRANCH  21  22
ATOM     22  C   UNL     1       0.714  -0.502  -1.223  0.00  0.00    +0.216 C 
ATOM     23  O   UNL     1       0.122  -1.194  -2.025  0.00  0.00    -0.276 OA
ATOM     24  N   UNL     1       1.996  -0.156  -1.449  0.00  0.00    -0.311 N 
ATOM     25  H   UNL     1       2.470   0.397  -0.808  0.00  0.00    +0.149 HD
BRANCH  24  26
ATOM     26  C   UNL     1       2.676  -0.616  -2.663  0.00  0.00    +0.139 C 
BRANCH  26  27
ATOM     27  C   UNL     1       4.090  -0.095  -2.675  0.00  0.00    -0.030 A 
ATOM     28  C   UNL     1       4.369   1.130  -3.253  0.00  0.00    +0.007 A 
ATOM     29  C   UNL     1       5.664   1.610  -3.265  0.00  0.00    +0.023 A 
ATOM     30  C   UNL     1       6.686   0.862  -2.696  0.00  0.00    +0.029 A 
ATOM     31  C   UNL     1       6.402  -0.368  -2.116  0.00  0.00    +0.023 A 
ATOM     32  C   UNL     1       5.104  -0.840  -2.102  0.00  0.00    +0.007 A 
BRANCH  30  33
ATOM     33  N   UNL     1       7.997   1.344  -2.708  0.00  0.00    -0.336 N 
ATOM     34  C   UNL     1       8.317   2.579  -3.428  0.00  0.00    +0.129 C 
ATOM     35  C   UNL     1       9.052   0.616  -1.999  0.00  0.00    +0.129 C 
ENDBRANCH  30  33
ENDBRANCH  26  27
ENDBRANCH  24  26
ENDBRANCH  21  22
ENDBRANCH   1  21
TORSDOF 6
