REMARK  Name = ZINC23486459
REMARK  6 active torsions:
REMARK  status: ('A' for Active; 'I' for Inactive)
REMARK    1  A    between atoms: C_1  and  N_2
REMARK    2  A    between atoms: N_2  and  C_3
REMARK    3  A    between atoms: N_2  and  C_4
REMARK    4  A    between atoms: C_7  and  C_10
REMARK    5  A    between atoms: C_14  and  C_26
REMARK    6  A    between atoms: C_30  and  N_32
REMARK                            x       y       z     vdW  Elec       q    Type
REMARK                         _______ _______ _______ _____ _____    ______ ____
ROOT
ATOM      1  C   UNL     1      -0.006  -2.813  -4.924  0.00  0.00    +0.065 C 
ATOM      2  C   UNL     1      -1.258  -2.441  -5.731  0.00  0.00    +0.094 C 
ATOM      3  N   UNL     1      -1.123  -2.948  -7.104  0.00  0.00    -0.304 NA
ATOM      4  C   UNL     1      -0.120  -2.185  -7.863  0.00  0.00    +0.132 C 
ATOM      5  C   UNL     1       1.157  -2.139  -7.056  0.00  0.00    +0.043 A 
ATOM      6  C   UNL     1       1.205  -2.424  -5.734  0.00  0.00    -0.009 A 
ATOM      7  C   UNL     1       2.581  -2.279  -5.314  0.00  0.00    +0.004 A 
ATOM      8  C   UNL     1       3.222  -2.442  -4.082  0.00  0.00    +0.010 A 
ATOM      9  C   UNL     1       4.575  -2.215  -4.051  0.00  0.00    +0.001 A 
ATOM     10  C   UNL     1       5.285  -1.841  -5.180  0.00  0.00    +0.002 A 
ATOM     11  C   UNL     1       4.677  -1.672  -6.412  0.00  0.00    +0.026 A 
ATOM     12  C   UNL     1       3.304  -1.896  -6.474  0.00  0.00    +0.047 A 
ATOM     13  N   UNL     1       2.409  -1.819  -7.506  0.00  0.00    -0.356 N 
ATOM     14  H   UNL     1       2.629  -1.577  -8.419  0.00  0.00    +0.166 HD
ATOM     15  H   UNL     1      -0.905  -3.934  -7.106  0.00  0.00    +0.123 HD
ENDROOT
BRANCH   4  16
ATOM     16  C   UNL     1       0.137  -2.859  -9.186  0.00  0.00    -0.022 A 
ATOM     17  C   UNL     1       0.201  -4.239  -9.257  0.00  0.00    +0.007 A 
ATOM     18  C   UNL     1       0.435  -4.858 -10.470  0.00  0.00    +0.022 A 
ATOM     19  C   UNL     1       0.606  -4.097 -11.613  0.00  0.00    +0.071 A 
ATOM     20  C   UNL     1       0.541  -2.717 -11.541  0.00  0.00    +0.145 A 
ATOM     21  C   UNL     1       0.302  -2.099 -10.328  0.00  0.00    +0.039 A 
ATOM     22 CL   UNL     1       0.901  -4.875 -13.137  0.00  0.00    -0.081 Cl
BRANCH  20  23
ATOM     23  N   UNL     1       0.724  -1.903 -12.764  0.00  0.00    +0.058 N 
ATOM     24  O   UNL     1       0.668  -0.697 -12.701  0.00  0.00    -0.126 OA
ATOM     25  O   UNL     1       0.929  -2.444 -13.825  0.00  0.00    -0.126 OA
ENDBRANCH  20  23
ENDBRANCH   4  16
BRANCH   1  29
ATOM     26  C   UNL     1       0.000  -0.696  -1.211  0.00  0.00    +0.029 A 
ATOM     27  C   UNL     1       0.013  -2.085  -1.221  0.00  0.00    +0.023 A 
ATOM     28  C   UNL     1       0.010  -2.766  -2.422  0.00  0.00    +0.006 A 
ATOM     29  C   UNL     1      -0.005  -2.066  -3.615  0.00  0.00    -0.039 A 
ATOM     30  C   UNL     1      -0.018  -0.684  -3.609  0.00  0.00    +0.006 A 
ATOM     31  C   UNL     1      -0.021   0.004  -2.411  0.00  0.00    +0.023 A 
BRANCH  26  33
ATOM     32  C   UNL     1      -0.018   1.461   0.010  0.00  0.00    +0.129 C 
ATOM     33  N   UNL     1       0.002  -0.004   0.002  0.00  0.00    -0.336 N 
ATOM     34  C   UNL     1       0.024  -0.743   1.267  0.00  0.00    +0.129 C 
ENDBRANCH  26  33
ENDBRANCH   1  29
TORSDOF 4
