REMARK  Name = ZINC14478140
REMARK  7 active torsions:
REMARK  status: ('A' for Active; 'I' for Inactive)
REMARK    1  A    between atoms: C_1  and  C_2
REMARK    2  A    between atoms: C_2  and  C_3
REMARK    3  A    between atoms: C_3  and  N_4
REMARK    4  A    between atoms: N_4  and  S_5
REMARK    5  A    between atoms: S_5  and  C_8
REMARK    6  A    between atoms: C_21  and  C_24
REMARK    7  A    between atoms: C_29  and  N_30
REMARK                            x       y       z     vdW  Elec       q    Type
REMARK                         _______ _______ _______ _____ _____    ______ ____
ROOT
ATOM      1  C   UNL     1      -1.228   3.119   0.184  0.00  0.00    +0.106 A 
ATOM      2  C   UNL     1      -1.209   1.737   0.236  0.00  0.00    +0.030 A 
ATOM      3  C   UNL     1      -0.002   1.068   0.209  0.00  0.00    +0.025 A 
ATOM      4  C   UNL     1       1.187   1.781   0.119  0.00  0.00    +0.031 A 
ATOM      5  C   UNL     1       1.173   3.166   0.059  0.00  0.00    -0.018 A 
ATOM      6  C   UNL     1      -0.047   3.828   0.094  0.00  0.00    +0.034 A 
ATOM      7  C   UNL     1       2.426   3.975  -0.045  0.00  0.00    +0.049 C 
ATOM      8  C   UNL     1       2.764   4.641   1.268  0.00  0.00    -0.023 C 
ATOM      9  C   UNL     1       4.063   4.664   1.444  0.00  0.00    -0.030 C 
ATOM     10  C   UNL     1       4.770   4.021   0.267  0.00  0.00    +0.033 C 
ATOM     11  C   UNL     1       3.668   3.122  -0.368  0.00  0.00    +0.029 C 
ATOM     12  C   UNL     1       3.627   1.817   0.434  0.00  0.00    +0.107 C 
ATOM     13  N   UNL     1       2.402   1.088   0.092  0.00  0.00    -0.336 N 
ATOM     14  H   UNL     1       2.433   0.148  -0.146  0.00  0.00    +0.147 HD
ENDROOT
BRANCH  12  15
ATOM     15  C   UNL     1       4.829   0.975   0.089  0.00  0.00    +0.003 A 
ATOM     16  C   UNL     1       5.566   1.256  -1.046  0.00  0.00    +0.008 A 
ATOM     17  C   UNL     1       6.671   0.486  -1.360  0.00  0.00    +0.000 A 
ATOM     18  C   UNL     1       7.032  -0.570  -0.544  0.00  0.00    +0.002 A 
ATOM     19  C   UNL     1       6.291  -0.854   0.587  0.00  0.00    +0.033 A 
ATOM     20  C   UNL     1       5.189  -0.081   0.904  0.00  0.00    +0.131 A 
BRANCH  20  21
ATOM     21  N   UNL     1       4.396  -0.385   2.116  0.00  0.00    +0.057 N 
ATOM     22  O   UNL     1       4.772  -1.246   2.890  0.00  0.00    -0.126 OA
ATOM     23  O   UNL     1       3.366   0.226   2.339  0.00  0.00    -0.126 OA
ENDBRANCH  20  21
ENDBRANCH  12  15
BRANCH   1  24
ATOM     24  S   UNL     1      -2.765   3.979   0.227  0.00  0.00    +0.058 S 
ATOM     25  O   UNL     1      -3.696   3.114   0.863  0.00  0.00    -0.153 OA
ATOM     26  O   UNL     1      -2.487   5.286   0.709  0.00  0.00    -0.153 OA
BRANCH  24  27
ATOM     27  N   UNL     1      -3.273   4.151  -1.340  0.00  0.00    -0.190 NA
ATOM     28  H   UNL     1      -3.343   5.035  -1.733  0.00  0.00    +0.148 HD
BRANCH  27  29
ATOM     29  C   UNL     1      -3.617   2.968  -2.133  0.00  0.00    +0.105 C 
BRANCH  29  31
ATOM     30  C   UNL     1      -4.755   2.161  -4.206  0.00  0.00    +0.005 C 
ATOM     31  C   UNL     1      -4.395   3.397  -3.378  0.00  0.00    +0.013 C 
ENDBRANCH  29  31
ENDBRANCH  27  29
ENDBRANCH  24  27
ENDBRANCH   1  24
TORSDOF 6
