REMARK  Name = ZINC09613861
REMARK  12 active torsions:
REMARK  status: ('A' for Active; 'I' for Inactive)
REMARK    1  A    between atoms: C_1  and  C_2
REMARK    2  A    between atoms: C_2  and  N_69
REMARK    3  A    between atoms: C_3  and  C_4
REMARK    4  A    between atoms: C_3  and  N_69
REMARK    5  A    between atoms: C_5  and  C_6
REMARK    6  A    between atoms: C_5  and  N_69
REMARK    7  A    between atoms: C_10  and  C_16
REMARK    8  A    between atoms: C_11  and  C_15
REMARK    9  A    between atoms: N_17  and  C_18
REMARK   10  A    between atoms: N_17  and  C_19
REMARK   11  A    between atoms: C_19  and  C_20
REMARK   12  A    between atoms: C_33  and  C_35
REMARK                            x       y       z     vdW  Elec       q    Type
REMARK                         _______ _______ _______ _____ _____    ______ ____
ROOT
ATOM      1  C   UNL     1       7.213   2.143   0.695  0.00  0.00    +0.116 A 
ATOM      2  N   UNL     1       6.076   1.811   0.111  0.00  0.00    -0.219 NA
ATOM      3  C   UNL     1       5.700   0.550  -0.034  0.00  0.00    +0.133 A 
ATOM      4  C   UNL     1       6.549  -0.486   0.444  0.00  0.00    +0.051 A 
ATOM      5  C   UNL     1       6.371  -1.927   0.402  0.00  0.00    -0.028 A 
ATOM      6  C   UNL     1       7.319  -2.720   0.922  0.00  0.00    -0.008 A 
ATOM      7  S   UNL     1       8.544  -1.568   1.517  0.00  0.00    -0.074 S 
ATOM      8  C   UNL     1       7.749  -0.054   1.051  0.00  0.00    +0.114 A 
ATOM      9  N   UNL     1       8.042   1.227   1.157  0.00  0.00    -0.227 NA
ATOM     10  C   UNL     1       7.344  -4.225   0.988  0.00  0.00    +0.052 C 
ATOM     11  C   UNL     1       5.134  -2.524  -0.218  0.00  0.00    +0.045 C 
ATOM     12  N   UNL     1       4.498   0.244  -0.647  0.00  0.00    -0.309 N 
ATOM     13  C   UNL     1       4.529   0.600  -2.072  0.00  0.00    +0.131 C 
ENDROOT
BRANCH   1  14
ATOM     14  C   UNL     1       7.575   3.600   0.830  0.00  0.00    -0.001 C 
BRANCH  14  15
ATOM     15  N   UNL     1       8.296   4.024  -0.388  0.00  0.00    +0.384 N 
ATOM     16  H   UNL     1       7.799   3.666  -1.212  0.00  0.00    -0.081 HD
BRANCH  15  18
ATOM     17  C   UNL     1       8.890   5.912  -1.827  0.00  0.00    -0.017 C 
ATOM     18  C   UNL     1       8.342   5.500  -0.459  0.00  0.00    -0.082 C 
ENDBRANCH  15  18
BRANCH  15  19
ATOM     19  C   UNL     1       9.669   3.477  -0.379  0.00  0.00    -0.082 C 
ATOM     20  C   UNL     1      10.436   3.970   0.849  0.00  0.00    -0.017 C 
ENDBRANCH  15  19
ENDBRANCH  14  15
ENDBRANCH   1  14
BRANCH  12  21
ATOM     21  C   UNL     1       3.376   0.901   0.036  0.00  0.00    +0.202 C 
BRANCH  21  22
ATOM     22  C   UNL     1       2.076   0.358  -0.497  0.00  0.00    +0.237 C 
ATOM     23  O   UNL     1       2.083  -0.493  -1.361  0.00  0.00    -0.274 OA
ATOM     24  N   UNL     1       0.905   0.817  -0.014  0.00  0.00    -0.265 N 
ATOM     25  C   UNL     1       0.881   1.801   0.985  0.00  0.00    +0.058 A 
ATOM     26  C   UNL     1       1.249   1.497   2.285  0.00  0.00    +0.025 A 
ATOM     27  C   UNL     1       1.198   2.475   3.261  0.00  0.00    +0.002 A 
ATOM     28  C   UNL     1       0.779   3.755   2.945  0.00  0.00    +0.002 A 
ATOM     29  C   UNL     1       0.418   4.068   1.647  0.00  0.00    +0.025 A 
ATOM     30  C   UNL     1       0.478   3.097   0.661  0.00  0.00    +0.055 A 
ATOM     31  N   UNL     1       0.172   3.405  -0.669  0.00  0.00    -0.284 N 
ATOM     32  C   UNL     1      -0.661   2.615  -1.381  0.00  0.00    +0.219 C 
ATOM     33  O   UNL     1      -0.853   2.846  -2.556  0.00  0.00    -0.275 OA
ATOM     34  C   UNL     1      -1.353   1.450  -0.725  0.00  0.00    +0.118 C 
ATOM     35  C   UNL     1      -0.366   0.298  -0.522  0.00  0.00    +0.087 C 
ATOM     36  C   UNL     1      -0.949  -0.696   0.484  0.00  0.00    +0.029 C 
ATOM     37  H   UNL     1       0.561   4.192  -1.083  0.00  0.00    +0.155 HD
ENDBRANCH  21  22
ENDBRANCH  12  21
TORSDOF 6
