REMARK  Name = ZINC49150187
REMARK  7 active torsions:
REMARK  status: ('A' for Active; 'I' for Inactive)
REMARK    1  A    between atoms: C_1  and  C_2
REMARK    2  A    between atoms: C_2  and  C_3
REMARK    3  A    between atoms: C_4  and  C_20
REMARK    4  A    between atoms: N_8  and  S_9
REMARK    5  A    between atoms: S_9  and  C_12
REMARK    6  A    between atoms: C_13  and  C_19
REMARK    7  A    between atoms: C_17  and  N_18
REMARK                            x       y       z     vdW  Elec       q    Type
REMARK                         _______ _______ _______ _____ _____    ______ ____
ROOT
ATOM      1  S   UNL     1       4.800  -2.015   5.194  0.00  0.00    +0.103 S 
ATOM      2  O   UNL     1       4.780  -0.928   6.110  0.00  0.00    -0.146 OA
ATOM      3  O   UNL     1       4.527  -3.351   5.593  0.00  0.00    -0.146 OA
ENDROOT
BRANCH   1   9
ATOM      4  C   UNL     1       0.121  -1.264   3.965  0.00  0.00    +0.027 A 
ATOM      5  C   UNL     1      -0.068  -1.520   5.260  0.00  0.00    +0.009 A 
ATOM      6  S   UNL     1       1.598  -1.816   5.831  0.00  0.00    -0.053 S 
ATOM      7  C   UNL     1       2.437  -1.571   4.273  0.00  0.00    +0.192 A 
ATOM      8  N   UNL     1       1.379  -1.288   3.437  0.00  0.00    -0.336 N 
ATOM      9  N   UNL     1       3.716  -1.646   3.998  0.00  0.00    -0.103 NA
ATOM     10  C   UNL     1      -1.357  -1.551   6.040  0.00  0.00    +0.053 C 
ATOM     11  H   UNL     1       1.525  -1.107   2.496  0.00  0.00    +0.168 HD
BRANCH   4  13
ATOM     12  C   UNL     1      -1.232   0.564   2.976  0.00  0.00    +0.010 C 
ATOM     13  C   UNL     1      -1.059  -0.953   3.081  0.00  0.00    +0.050 C 
ENDBRANCH   4  13
ENDBRANCH   1   9
BRANCH   1  14
ATOM     14  C   UNL     1       6.402  -2.026   4.461  0.00  0.00    +0.136 A 
ATOM     15  C   UNL     1       7.183  -0.887   4.489  0.00  0.00    -0.022 A 
ATOM     16  C   UNL     1       8.440  -0.894   3.913  0.00  0.00    +0.005 A 
ATOM     17  C   UNL     1       8.920  -2.041   3.307  0.00  0.00    +0.002 A 
ATOM     18  C   UNL     1       8.144  -3.183   3.275  0.00  0.00    +0.025 A 
ATOM     19  C   UNL     1       6.883  -3.181   3.858  0.00  0.00    +0.052 A 
ATOM     20  C   UNL     1       6.665   0.365   5.149  0.00  0.00    +0.046 C 
BRANCH  19  21
ATOM     21  N   UNL     1       6.098  -4.336   3.832  0.00  0.00    -0.356 N 
ATOM     22  H   UNL     1       5.139  -4.273   3.964  0.00  0.00    +0.142 HD
ATOM     23  H   UNL     1       6.512  -5.200   3.682  0.00  0.00    +0.142 HD
ENDBRANCH  19  21
ENDBRANCH   1  14
TORSDOF 4
