REMARK  Name = ZINC35375374
REMARK  7 active torsions:
REMARK  status: ('A' for Active; 'I' for Inactive)
REMARK    1  A    between atoms: C_1  and  C_2
REMARK    2  A    between atoms: C_2  and  C_3
REMARK    3  A    between atoms: C_3  and  C_5
REMARK    4  A    between atoms: C_3  and  N_6
REMARK    5  A    between atoms: C_11  and  C_29
REMARK    6  A    between atoms: C_29  and  C_30
REMARK    7  A    between atoms: C_30  and  C_31
REMARK                            x       y       z     vdW  Elec       q    Type
REMARK                         _______ _______ _______ _____ _____    ______ ____
ROOT
ATOM      1  N   UNL     1      -0.055  -0.114  -2.441  0.00  0.00    -0.239 N 
ATOM      2  C   UNL     1      -1.315  -0.515  -2.643  0.00  0.00    +0.227 C 
ATOM      3  O   UNL     1      -1.953  -1.224  -1.895  0.00  0.00    -0.275 OA
ATOM      4  C   UNL     1      -1.820   0.053  -3.950  0.00  0.00    +0.107 C 
ATOM      5  C   UNL     1      -2.008  -1.097  -4.963  0.00  0.00    +0.068 C 
ATOM      6  N   UNL     1      -1.393  -0.600  -6.222  0.00  0.00    -0.295 NA
ATOM      7  C   UNL     1      -0.194   0.133  -5.772  0.00  0.00    +0.136 C 
ATOM      8  C   UNL     1      -0.608   0.872  -4.476  0.00  0.00    +0.122 C 
ATOM      9  C   UNL     1       0.440   0.671  -3.405  0.00  0.00    +0.228 C 
ATOM     10  O   UNL     1       1.556   1.145  -3.418  0.00  0.00    -0.275 OA
ATOM     11  C   UNL     1       0.965  -0.795  -5.544  0.00  0.00    +0.005 A 
ATOM     12  C   UNL     1       1.162  -1.880  -4.718  0.00  0.00    +0.027 A 
ATOM     13  C   UNL     1       2.372  -2.552  -4.736  0.00  0.00    +0.041 A 
ATOM     14  C   UNL     1       3.382  -2.130  -5.583  0.00  0.00    +0.022 A 
ATOM     15  C   UNL     1       3.188  -1.043  -6.410  0.00  0.00    +0.025 A 
ATOM     16  C   UNL     1       1.974  -0.362  -6.399  0.00  0.00    +0.039 A 
ATOM     17  N   UNL     1       1.543   0.748  -7.130  0.00  0.00    -0.283 N 
ATOM     18  C   UNL     1       0.281   1.102  -6.821  0.00  0.00    +0.243 C 
ATOM     19  O   UNL     1      -0.350   2.022  -7.295  0.00  0.00    -0.273 OA
ATOM     20 CL   UNL     1       2.623  -3.920  -3.697  0.00  0.00    -0.084 Cl
ATOM     21  H   UNL     1      -1.141  -1.366  -6.828  0.00  0.00    +0.123 HD
ATOM     22  H   UNL     1       2.090   1.210  -7.785  0.00  0.00    +0.155 HD
ENDROOT
BRANCH   1  23
ATOM     23  C   UNL     1       0.718  -0.497  -1.257  0.00  0.00    +0.081 C 
ATOM     24  C   UNL     1       0.849  -2.021  -1.205  0.00  0.00    +0.028 C 
BRANCH  23  26
ATOM     25  C   UNL     1      -0.019   1.526   0.010  0.00  0.00    +0.006 C 
ATOM     26  C   UNL     1       0.002  -0.004   0.002  0.00  0.00    +0.019 C 
ENDBRANCH  23  26
ENDBRANCH   1  23
BRANCH   5  27
ATOM     27  C   UNL     1      -3.497  -1.383  -5.172  0.00  0.00    +0.031 C 
BRANCH  27  28
ATOM     28  C   UNL     1      -3.658  -2.604  -6.080  0.00  0.00    +0.126 C 
BRANCH  28  29
ATOM     29  C   UNL     1      -5.124  -2.886  -6.286  0.00  0.00    +0.356 C 
ATOM     30  O   UNL     1      -5.962  -2.177  -5.756  0.00  0.00    -0.246 OA
ATOM     31  O   UNL     1      -5.472  -3.824  -6.983  0.00  0.00    -0.246 OA
ENDBRANCH  28  29
ENDBRANCH  27  28
ENDBRANCH   5  27
TORSDOF 5
