REMARK  Name = ZINC63596476
REMARK  6 active torsions:
REMARK  status: ('A' for Active; 'I' for Inactive)
REMARK    1  A    between atoms: C_1  and  C_2
REMARK    2  A    between atoms: C_2  and  N_3
REMARK    3  A    between atoms: C_4  and  C_20
REMARK    4  A    between atoms: C_8  and  S_9
REMARK    5  A    between atoms: S_9  and  C_10
REMARK    6  A    between atoms: C_10  and  C_11
REMARK                            x       y       z     vdW  Elec       q    Type
REMARK                         _______ _______ _______ _____ _____    ______ ____
ROOT
ATOM      1  N   UNL     1       0.688  -0.476  -1.203  0.00  0.00    -0.283 N 
ATOM      2  C   UNL     1       0.073  -0.766  -2.510  0.00  0.00    +0.244 C 
ATOM      3  N   UNL     1       1.205  -1.201  -3.345  0.00  0.00    -0.239 N 
ATOM      4  N   UNL     1       2.339  -1.143  -2.526  0.00  0.00    -0.162 NA
ATOM      5  C   UNL     1       2.044  -0.733  -1.339  0.00  0.00    +0.175 C 
ATOM      6  H   UNL     1       1.172  -1.473  -4.276  0.00  0.00    +0.171 HD
ENDROOT
BRANCH   2   7
ATOM      7  C   UNL     1      -0.948  -1.867  -2.382  0.00  0.00    +0.144 A 
ATOM      8  C   UNL     1      -1.271  -2.755  -3.339  0.00  0.00    +0.048 A 
ATOM      9  C   UNL     1      -2.265  -3.600  -2.795  0.00  0.00    +0.041 A 
ATOM     10  C   UNL     1      -2.490  -3.178  -1.537  0.00  0.00    +0.195 A 
ATOM     11  O   UNL     1      -1.685  -2.131  -1.291  0.00  0.00    -0.464 OA
ENDBRANCH   2   7
BRANCH   1  13
ATOM     12  C   UNL     1      -0.019   1.526   0.010  0.00  0.00    +0.024 C 
ATOM     13  C   UNL     1       0.002  -0.004   0.002  0.00  0.00    +0.106 C 
ENDBRANCH   1  13
BRANCH   5  14
ATOM     14  S   UNL     1       3.221  -0.530  -0.044  0.00  0.00    -0.085 S 
BRANCH  14  15
ATOM     15  C   UNL     1       4.797  -1.010  -0.804  0.00  0.00    +0.124 C 
BRANCH  15  16
ATOM     16  C   UNL     1       5.921  -0.878   0.226  0.00  0.00    +0.184 C 
ATOM     17  N   UNL     1       5.619  -1.694   1.409  0.00  0.00    -0.363 N 
ATOM     18  C   UNL     1       5.547  -0.890   2.430  0.00  0.00    +0.060 A 
ATOM     19  C   UNL     1       5.279  -1.110   3.858  0.00  0.00    +0.027 A 
ATOM     20  C   UNL     1       5.267  -0.059   4.702  0.00  0.00    +0.002 A 
ATOM     21  C   UNL     1       5.503   1.259   4.275  0.00  0.00    +0.002 A 
ATOM     22  C   UNL     1       5.758   1.571   2.988  0.00  0.00    +0.027 A 
ATOM     23  C   UNL     1       5.798   0.506   1.978  0.00  0.00    +0.060 A 
ATOM     24  N   UNL     1       6.015   0.511   0.694  0.00  0.00    -0.363 N 
ATOM     25  H   UNL     1       5.496  -2.656   1.426  0.00  0.00    +0.162 HD
ATOM     26  H   UNL     1       6.205   1.289   0.147  0.00  0.00    +0.162 HD
ENDBRANCH  15  16
ENDBRANCH  14  15
ENDBRANCH   5  14
TORSDOF 5
