REMARK  Name = ZINC62832735
REMARK  6 active torsions:
REMARK  status: ('A' for Active; 'I' for Inactive)
REMARK    1  A    between atoms: C_1  and  C_2
REMARK    2  A    between atoms: C_5  and  C_7
REMARK    3  A    between atoms: C_7  and  C_9
REMARK    4  A    between atoms: C_7  and  N_10
REMARK    5  A    between atoms: C_11  and  C_13
REMARK    6  A    between atoms: C_20  and  N_23
REMARK                            x       y       z     vdW  Elec       q    Type
REMARK                         _______ _______ _______ _____ _____    ______ ____
ROOT
ATOM      1  C   UNL     1       4.624  -3.690  -2.376  0.00  0.00    +0.062 A 
ATOM      2  C   UNL     1       5.102  -2.460  -2.720  0.00  0.00    +0.096 A 
ATOM      3  N   UNL     1       6.153  -2.596  -3.564  0.00  0.00    -0.360 N 
ATOM      4  H   UNL     1       6.657  -1.859  -3.944  0.00  0.00    +0.165 HD
ATOM      5  C   UNL     1       6.406  -3.932  -3.806  0.00  0.00    +0.047 A 
ATOM      6  C   UNL     1       5.469  -4.677  -3.072  0.00  0.00    +0.014 A 
ATOM      7  C   UNL     1       5.489  -6.069  -3.121  0.00  0.00    +0.033 A 
ATOM      8  C   UNL     1       6.439  -6.713  -3.893  0.00  0.00    +0.025 A 
ATOM      9  C   UNL     1       7.370  -5.972  -4.618  0.00  0.00    +0.025 A 
ATOM     10  C   UNL     1       7.351  -4.595  -4.582  0.00  0.00    +0.028 A 
ENDROOT
BRANCH   1  12
ATOM     11  N   UNL     1       2.811  -2.961  -0.914  0.00  0.00    -0.302 N 
ATOM     12  C   UNL     1       3.494  -3.975  -1.482  0.00  0.00    +0.247 C 
ATOM     13  O   UNL     1       3.174  -5.126  -1.254  0.00  0.00    -0.270 OA
ATOM     14  H   UNL     1       3.066  -2.043  -1.096  0.00  0.00    +0.150 HD
BRANCH  11  15
ATOM     15  C   UNL     1       1.684  -3.245  -0.023  0.00  0.00    +0.136 C 
ATOM     16  C   UNL     1       2.205  -3.494   1.394  0.00  0.00    +0.036 C 
BRANCH  15  21
ATOM     17  C   UNL     1      -0.018   1.503   0.010  0.00  0.00    +0.086 C 
ATOM     18  C   UNL     1       0.002  -0.004   0.002  0.00  0.00    +0.102 A 
ATOM     19  C   UNL     1      -1.078  -0.805   0.003  0.00  0.00    +0.045 A 
ATOM     20  C   UNL     1      -0.601  -2.136  -0.007  0.00  0.00    +0.047 A 
ATOM     21  C   UNL     1       0.742  -2.069  -0.013  0.00  0.00    +0.125 A 
ATOM     22  O   UNL     1       1.102  -0.775  -0.013  0.00  0.00    -0.463 OA
ENDBRANCH  15  21
ENDBRANCH  11  15
ENDBRANCH   1  12
BRANCH   8  23
ATOM     23  N   UNL     1       6.466  -8.111  -3.946  0.00  0.00    -0.358 N 
ATOM     24  H   UNL     1       5.818  -8.627  -3.442  0.00  0.00    +0.142 HD
ATOM     25  H   UNL     1       7.132  -8.563  -4.488  0.00  0.00    +0.142 HD
ENDBRANCH   8  23
TORSDOF 4
