REMARK  Name = ZINC05690150
REMARK  8 active torsions:
REMARK  status: ('A' for Active; 'I' for Inactive)
REMARK    1  A    between atoms: C_1  and  C_2
REMARK    2  A    between atoms: C_2  and  C_3
REMARK    3  A    between atoms: C_2  and  C_4
REMARK    4  A    between atoms: C_7  and  O_10
REMARK    5  A    between atoms: O_10  and  P_11
REMARK    6  A    between atoms: P_11  and  N_13
REMARK    7  A    between atoms: P_11  and  O_20
REMARK    8  A    between atoms: O_20  and  C_21
REMARK                            x       y       z     vdW  Elec       q    Type
REMARK                         _______ _______ _______ _____ _____    ______ ____
ROOT
ATOM      1  P   UNL     1      -6.343  -0.986  -0.683  0.00  0.00    +0.537 P 
ATOM      2  O   UNL     1      -6.109   0.411  -0.255  0.00  0.00    -0.213 OA
ENDROOT
BRANCH   1   3
ATOM      3  N   UNL     1      -6.163  -1.097  -2.309  0.00  0.00    -0.216 N 
ATOM      4  C   UNL     1      -6.335  -2.321  -2.946  0.00  0.00    +0.129 A 
ATOM      5  C   UNL     1      -6.174  -2.409  -4.325  0.00  0.00    +0.044 A 
ATOM      6  C   UNL     1      -6.349  -3.633  -4.945  0.00  0.00    +0.005 A 
ATOM      7  C   UNL     1      -6.679  -4.732  -4.162  0.00  0.00    +0.020 A 
ATOM      8  C   UNL     1      -6.822  -4.572  -2.799  0.00  0.00    +0.113 A 
ATOM      9  N   UNL     1      -6.645  -3.393  -2.233  0.00  0.00    -0.240 NA
ATOM     10  H   UNL     1      -5.936  -0.309  -2.827  0.00  0.00    +0.161 HD
ENDBRANCH   1   3
BRANCH   1  11
ATOM     11  O   UNL     1      -5.282  -1.955   0.043  0.00  0.00    -0.402 OA
BRANCH  11  15
ATOM     12  C   UNL     1      -1.412  -0.526   0.013  0.00  0.00    -0.045 A 
ATOM     13  C   UNL     1      -2.258  -0.203   1.057  0.00  0.00    +0.007 A 
ATOM     14  C   UNL     1      -3.555  -0.681   1.070  0.00  0.00    +0.046 A 
ATOM     15  C   UNL     1      -4.007  -1.484   0.033  0.00  0.00    +0.132 A 
ATOM     16  C   UNL     1      -3.156  -1.805  -1.015  0.00  0.00    +0.046 A 
ATOM     17  C   UNL     1      -1.862  -1.321  -1.025  0.00  0.00    +0.007 A 
BRANCH  12  19
ATOM     18  C   UNL     1      -0.019   1.526   0.010  0.00  0.00    +0.012 C 
ATOM     19  C   UNL     1       0.002  -0.004   0.002  0.00  0.00    +0.013 C 
ATOM     20  C   UNL     1       0.742  -0.511   1.242  0.00  0.00    +0.012 C 
ENDBRANCH  12  19
ENDBRANCH  11  15
ENDBRANCH   1  11
BRANCH   1  21
ATOM     21  O   UNL     1      -7.838  -1.429  -0.278  0.00  0.00    -0.399 OA
BRANCH  21  22
ATOM     22  C   UNL     1      -8.799  -0.547  -0.662  0.00  0.00    +0.167 A 
ATOM     23  C   UNL     1      -9.184  -0.478  -1.993  0.00  0.00    +0.049 A 
ATOM     24  C   UNL     1     -10.162   0.419  -2.382  0.00  0.00    +0.004 A 
ATOM     25  C   UNL     1     -10.755   1.246  -1.447  0.00  0.00    +0.003 A 
ATOM     26  C   UNL     1     -10.373   1.180  -0.120  0.00  0.00    +0.042 A 
ATOM     27  C   UNL     1      -9.400   0.280   0.277  0.00  0.00    +0.165 A 
ATOM     28  F   UNL     1      -9.031   0.211   1.575  0.00  0.00    -0.202 F 
ENDBRANCH  21  22
ENDBRANCH   1  21
TORSDOF 6
