REMARK  Name = ZINC12878639
REMARK  11 active torsions:
REMARK  status: ('A' for Active; 'I' for Inactive)
REMARK    1  A    between atoms: C_1  and  C_2
REMARK    2  A    between atoms: C_2  and  C_3
REMARK    3  A    between atoms: C_3  and  O_4
REMARK    4  A    between atoms: O_4  and  C_5
REMARK    5  A    between atoms: C_8  and  C_14
REMARK    6  A    between atoms: C_10  and  O_11
REMARK    7  A    between atoms: O_11  and  C_12
REMARK    8  A    between atoms: C_12  and  C_13
REMARK    9  A    between atoms: N_21  and  C_36
REMARK   10  A    between atoms: C_24  and  C_35
REMARK   11  A    between atoms: C_36  and  C_37
REMARK                            x       y       z     vdW  Elec       q    Type
REMARK                         _______ _______ _______ _____ _____    ______ ____
ROOT
ATOM      1  C   UNL     1       4.972   4.048  -0.024  0.00  0.00    +0.069 C 
ATOM      2  C   UNL     1       5.750   3.649  -1.284  0.00  0.00    +0.122 C 
ATOM      3  N   UNL     1       6.259   2.276  -1.114  0.00  0.00    -0.280 N 
ATOM      4  C   UNL     1       5.816   1.308  -1.921  0.00  0.00    +0.234 C 
ATOM      5  O   UNL     1       5.112   1.628  -2.856  0.00  0.00    -0.274 OA
ATOM      6  C   UNL     1       6.105  -0.146  -1.724  0.00  0.00    +0.203 C 
ATOM      7  N   UNL     1       6.906  -0.392  -0.536  0.00  0.00    -0.288 N 
ATOM      8  C   UNL     1       7.419   0.577   0.222  0.00  0.00    +0.245 C 
ATOM      9  O   UNL     1       8.068   0.258   1.195  0.00  0.00    -0.273 OA
ATOM     10  C   UNL     1       7.241   2.033  -0.057  0.00  0.00    +0.151 C 
ATOM     11  C   UNL     1       6.772   2.744   1.190  0.00  0.00    +0.054 A 
ATOM     12  C   UNL     1       5.761   3.643   1.194  0.00  0.00    -0.008 A 
ATOM     13  C   UNL     1       5.610   4.106   2.559  0.00  0.00    +0.004 A 
ATOM     14  C   UNL     1       4.742   5.024   3.158  0.00  0.00    +0.010 A 
ATOM     15  C   UNL     1       4.882   5.220   4.509  0.00  0.00    +0.001 A 
ATOM     16  C   UNL     1       5.835   4.546   5.256  0.00  0.00    +0.002 A 
ATOM     17  C   UNL     1       6.707   3.633   4.689  0.00  0.00    +0.026 A 
ATOM     18  C   UNL     1       6.589   3.414   3.318  0.00  0.00    +0.047 A 
ATOM     19  N   UNL     1       7.272   2.600   2.456  0.00  0.00    -0.356 N 
ATOM     20  H   UNL     1       8.002   2.010   2.704  0.00  0.00    +0.166 HD
ATOM     21  C   UNL     1       8.586   2.623  -0.486  0.00  0.00    +0.048 C 
ENDROOT
BRANCH   1  25
ATOM     22  C   UNL     1       1.186   2.059   0.002  0.00  0.00    +0.162 A 
ATOM     23  C   UNL     1       2.359   1.321  -0.013  0.00  0.00    +0.050 A 
ATOM     24  C   UNL     1       3.581   1.967  -0.021  0.00  0.00    +0.008 A 
ATOM     25  C   UNL     1       3.637   3.349  -0.015  0.00  0.00    -0.035 A 
ATOM     26  C   UNL     1       2.470   4.090   0.001  0.00  0.00    +0.053 A 
ATOM     27  C   UNL     1       1.242   3.449   0.003  0.00  0.00    +0.162 A 
BRANCH  22  28
ATOM     28  O   UNL     1      -0.017   1.425   0.010  0.00  0.00    -0.488 OA
BRANCH  28  29
ATOM     29  C   UNL     1       0.002  -0.004   0.002  0.00  0.00    +0.229 C 
BRANCH  29  31
ATOM     30  C   UNL     1      -1.413  -2.063   0.004  0.00  0.00    +0.007 C 
ATOM     31  C   UNL     1      -1.433  -0.534   0.013  0.00  0.00    +0.038 C 
ENDBRANCH  29  31
ENDBRANCH  28  29
ENDBRANCH  22  28
BRANCH  27  32
ATOM     32  O   UNL     1       0.093   4.177   0.012  0.00  0.00    -0.489 OA
BRANCH  32  33
ATOM     33  C   UNL     1       0.227   5.600   0.013  0.00  0.00    +0.226 C 
ATOM     34  C   UNL     1      -1.162   6.242   0.024  0.00  0.00    +0.048 C 
ENDBRANCH  32  33
ENDBRANCH  27  32
ENDBRANCH   1  25
BRANCH   7  35
ATOM     35  C   UNL     1       7.163  -1.781  -0.151  0.00  0.00    +0.140 C 
BRANCH  35  36
ATOM     36  C   UNL     1       6.058  -2.263   0.790  0.00  0.00    +0.136 C 
ATOM     37  C   UNL     1       6.320  -3.725   1.202  0.00  0.00    +0.035 C 
ATOM     38  C   UNL     1       6.414  -3.673   2.746  0.00  0.00    +0.031 C 
ATOM     39  C   UNL     1       5.675  -2.350   3.073  0.00  0.00    +0.160 C 
ATOM     40  O   UNL     1       6.060  -1.474   1.992  0.00  0.00    -0.375 OA
ENDBRANCH  35  36
ENDBRANCH   7  35
TORSDOF 8
