REMARK  Name = ZINC13079048
REMARK  6 active torsions:
REMARK  status: ('A' for Active; 'I' for Inactive)
REMARK    1  A    between atoms: C_1  and  C_2
REMARK    2  A    between atoms: C_4  and  C_22
REMARK    3  A    between atoms: C_6  and  S_9
REMARK    4  A    between atoms: C_7  and  C_8
REMARK    5  A    between atoms: S_9  and  N_12
REMARK    6  A    between atoms: C_21  and  N_42
REMARK                            x       y       z     vdW  Elec       q    Type
REMARK                         _______ _______ _______ _____ _____    ______ ____
ROOT
ATOM      1  S   UNL     1      -5.245   0.984   0.056  0.00  0.00    +0.074 S 
ATOM      2  O   UNL     1      -6.065   1.356  -1.043  0.00  0.00    -0.150 OA
ATOM      3  O   UNL     1      -4.819  -0.355   0.269  0.00  0.00    -0.150 OA
ENDROOT
BRANCH   1   4
ATOM      4  N   UNL     1      -6.051   1.447   1.426  0.00  0.00    -0.194 N 
ATOM      5  C   UNL     1      -6.579   2.726   1.521  0.00  0.00    +0.178 A 
ATOM      6  N   UNL     1      -7.326   3.245   2.475  0.00  0.00    -0.229 NA
ATOM      7  C   UNL     1      -7.757   4.502   2.428  0.00  0.00    +0.050 A 
ATOM      8  C   UNL     1      -7.394   5.218   1.332  0.00  0.00    -0.002 A 
ATOM      9  S   UNL     1      -6.432   4.054   0.408  0.00  0.00    -0.058 S 
ATOM     10  C   UNL     1      -7.744   6.634   1.024  0.00  0.00    -0.034 C 
ATOM     11  C   UNL     1      -8.530   6.680   3.315  0.00  0.00    -0.073 C 
ATOM     12  C   UNL     1      -8.616   5.162   3.501  0.00  0.00    +0.038 C 
ATOM     13  C   UNL     1      -9.112   8.481   1.805  0.00  0.00    -0.096 C 
ATOM     14  H   UNL     1      -6.154   0.825   2.163  0.00  0.00    +0.176 HD
ATOM     15  N   UNL     1      -8.861   7.028   1.919  0.00  0.00    +0.381 N 
ATOM     16  H   UNL     1      -9.708   6.520   1.639  0.00  0.00    -0.082 HD
ENDBRANCH   1   4
BRANCH   1  22
ATOM     17  C   UNL     1      -0.629   2.541   1.948  0.00  0.00    +0.044 C 
ATOM     18  C   UNL     1      -1.674   2.644   0.867  0.00  0.00    -0.045 A 
ATOM     19  C   UNL     1      -1.483   3.506  -0.194  0.00  0.00    +0.018 A 
ATOM     20  C   UNL     1      -2.452   3.601  -1.195  0.00  0.00    +0.065 A 
ATOM     21  C   UNL     1      -3.611   2.827  -1.111  0.00  0.00    +0.044 A 
ATOM     22  C   UNL     1      -3.787   1.966  -0.048  0.00  0.00    +0.112 A 
ATOM     23  C   UNL     1      -2.822   1.877   0.940  0.00  0.00    -0.021 A 
ATOM     24  C   UNL     1      -3.024   0.938   2.102  0.00  0.00    +0.046 C 
BRANCH  20  25
ATOM     25  C   UNL     1      -2.254   4.520  -2.334  0.00  0.00    +0.387 C 
ATOM     26  O   UNL     1      -3.099   4.601  -3.203  0.00  0.00    -0.241 OA
ATOM     27  O   UNL     1      -1.140   5.274  -2.406  0.00  0.00    -0.241 OA
ENDBRANCH  20  25
ENDBRANCH   1  22
TORSDOF 3
