REMARK  Name = ZINC54201693
REMARK  6 active torsions:
REMARK  status: ('A' for Active; 'I' for Inactive)
REMARK    1  A    between atoms: C_1  and  O_2
REMARK    2  A    between atoms: O_2  and  C_3
REMARK    3  A    between atoms: C_6  and  C_9
REMARK    4  A    between atoms: C_12  and  C_29
REMARK    5  A    between atoms: C_21  and  C_22
REMARK    6  A    between atoms: C_25  and  O_28
REMARK                            x       y       z     vdW  Elec       q    Type
REMARK                         _______ _______ _______ _____ _____    ______ ____
ROOT
ATOM      1  C   UNL     1       3.218  -2.668   5.188  0.00  0.00    +0.135 C 
ATOM      2  C   UNL     1       1.947  -3.197   5.882  0.00  0.00    +0.087 C 
ATOM      3  C   UNL     1       1.871  -4.644   5.450  0.00  0.00    +0.069 C 
ATOM      4  N   UNL     1       2.866  -4.915   4.677  0.00  0.00    -0.182 NA
ATOM      5  N   UNL     1       3.724  -3.837   4.451  0.00  0.00    -0.200 N 
ATOM      6  C   UNL     1       4.854  -3.861   3.670  0.00  0.00    +0.149 C 
ATOM      7  N   UNL     1       5.600  -2.805   3.519  0.00  0.00    -0.153 NA
ATOM      8  C   UNL     1       6.704  -2.814   2.761  0.00  0.00    +0.302 C 
ATOM      9  O   UNL     1       7.481  -1.900   2.541  0.00  0.00    -0.260 OA
ATOM     10  S   UNL     1       6.759  -4.493   2.153  0.00  0.00    -0.026 S 
ATOM     11  C   UNL     1       5.282  -5.085   2.969  0.00  0.00    +0.057 C 
ATOM     12  C   UNL     1       4.711  -6.320   2.947  0.00  0.00    +0.026 C 
ENDROOT
BRANCH   3  13
ATOM     13  C   UNL     1       0.821  -5.597   5.852  0.00  0.00    -0.002 A 
ATOM     14  C   UNL     1      -0.219  -5.174   6.702  0.00  0.00    +0.010 A 
ATOM     15  C   UNL     1      -1.196  -6.034   7.086  0.00  0.00    +0.009 A 
ATOM     16  C   UNL     1      -1.179  -7.367   6.635  0.00  0.00    -0.018 A 
ATOM     17  C   UNL     1      -2.180  -8.274   7.019  0.00  0.00    +0.008 A 
ATOM     18  C   UNL     1      -2.138  -9.557   6.567  0.00  0.00    +0.001 A 
ATOM     19  C   UNL     1      -1.114  -9.989   5.725  0.00  0.00    +0.001 A 
ATOM     20  C   UNL     1      -0.127  -9.139   5.332  0.00  0.00    +0.008 A 
ATOM     21  C   UNL     1      -0.137  -7.806   5.779  0.00  0.00    -0.017 A 
ATOM     22  C   UNL     1       0.862  -6.902   5.387  0.00  0.00    +0.018 A 
ENDBRANCH   3  13
BRANCH   1  26
ATOM     23  C   UNL     1       2.249   0.503   2.492  0.00  0.00    +0.120 A 
ATOM     24  C   UNL     1       2.799   0.790   3.733  0.00  0.00    +0.046 A 
ATOM     25  C   UNL     1       3.111  -0.237   4.603  0.00  0.00    +0.009 A 
ATOM     26  C   UNL     1       2.876  -1.550   4.237  0.00  0.00    -0.025 A 
ATOM     27  C   UNL     1       2.329  -1.838   3.001  0.00  0.00    +0.009 A 
ATOM     28  C   UNL     1       2.009  -0.814   2.130  0.00  0.00    +0.046 A 
BRANCH  23  30
ATOM     29  C   UNL     1       2.215   2.844   2.075  0.00  0.00    +0.277 C 
ATOM     30  O   UNL     1       1.941   1.512   1.635  0.00  0.00    -0.495 OA
ENDBRANCH  23  30
ENDBRANCH   1  26
BRANCH  12  31
ATOM     31  C   UNL     1       5.418  -7.444   2.324  0.00  0.00    -0.024 A 
ATOM     32  C   UNL     1       4.763  -8.668   2.133  0.00  0.00    +0.011 A 
ATOM     33  C   UNL     1       5.432  -9.720   1.548  0.00  0.00    +0.046 A 
ATOM     34  C   UNL     1       6.755  -9.569   1.148  0.00  0.00    +0.117 A 
ATOM     35  C   UNL     1       7.410  -8.357   1.335  0.00  0.00    +0.046 A 
ATOM     36  C   UNL     1       6.750  -7.297   1.913  0.00  0.00    +0.011 A 
BRANCH  34  37
ATOM     37  O   UNL     1       7.410 -10.609   0.573  0.00  0.00    -0.507 OA
ATOM     38  H   UNL     1       7.328 -10.642  -0.390  0.00  0.00    +0.292 HD
ENDBRANCH  34  37
ENDBRANCH  12  31
TORSDOF 5
