REMARK  Name = ZINC03404760
REMARK  8 active torsions:
REMARK  status: ('A' for Active; 'I' for Inactive)
REMARK    1  A    between atoms: C_1  and  C_2
REMARK    2  A    between atoms: C_5  and  O_27
REMARK    3  A    between atoms: C_6  and  N_8
REMARK    4  A    between atoms: C_9  and  C_22
REMARK    5  A    between atoms: N_11  and  C_14
REMARK    6  A    between atoms: C_14  and  N_52
REMARK    7  A    between atoms: C_18  and  O_21
REMARK    8  A    between atoms: O_27  and  C_28
REMARK                            x       y       z     vdW  Elec       q    Type
REMARK                         _______ _______ _______ _____ _____    ______ ____
ROOT
ATOM      1  N   UNL     1      -1.416   7.498   2.398  0.00  0.00    -0.267 N 
ATOM      2  C   UNL     1      -2.576   7.270   1.680  0.00  0.00    +0.174 A 
ATOM      3  N   UNL     1      -2.763   5.980   1.594  0.00  0.00    -0.151 NA
ATOM      4  N   UNL     1      -1.710   5.344   2.266  0.00  0.00    -0.257 N 
ATOM      5  C   UNL     1      -0.900   6.305   2.755  0.00  0.00    +0.181 A 
ATOM      6  S   UNL     1       0.530   6.055   3.663  0.00  0.00    -0.011 S 
ENDROOT
BRANCH   1  12
ATOM      7  C   UNL     1      -1.104  11.339   5.454  0.00  0.00    +0.044 C 
ATOM      8  C   UNL     1      -0.705  10.638   4.181  0.00  0.00    -0.048 A 
ATOM      9  C   UNL     1       0.197  11.234   3.319  0.00  0.00    +0.007 A 
ATOM     10  C   UNL     1       0.567  10.596   2.150  0.00  0.00    +0.048 A 
ATOM     11  C   UNL     1       0.038   9.353   1.841  0.00  0.00    +0.144 A 
ATOM     12  C   UNL     1      -0.874   8.754   2.707  0.00  0.00    +0.092 A 
ATOM     13  C   UNL     1      -1.241   9.401   3.878  0.00  0.00    +0.033 A 
BRANCH  11  14
ATOM     14  O   UNL     1       0.405   8.722   0.695  0.00  0.00    -0.493 OA
ATOM     15  C   UNL     1       1.344   9.395  -0.145  0.00  0.00    +0.277 C 
ENDBRANCH  11  14
ENDBRANCH   1  12
BRANCH   2  16
ATOM     16  C   UNL     1      -3.453   8.306   1.109  0.00  0.00    +0.057 A 
ATOM     17  C   UNL     1      -4.736   8.190   0.637  0.00  0.00    +0.019 A 
ATOM     18  C   UNL     1      -5.363   9.311   0.144  0.00  0.00    +0.008 A 
ATOM     19  C   UNL     1      -4.697  10.495   0.140  0.00  0.00    +0.046 A 
ATOM     20  S   UNL     1      -3.127  10.044   0.859  0.00  0.00    -0.094 S 
ENDBRANCH   2  16
BRANCH   4  21
ATOM     21  C   UNL     1      -1.526   3.899   2.415  0.00  0.00    +0.072 C 
BRANCH  21  27
ATOM     22  C   UNL     1       0.637   3.920   1.328  0.00  0.00    -0.076 C 
ATOM     23  C   UNL     1       1.390   3.485   0.068  0.00  0.00    -0.016 C 
ATOM     24  C   UNL     1       1.419   1.956  -0.001  0.00  0.00    +0.027 C 
ATOM     25  C   UNL     1      -0.017   1.425   0.010  0.00  0.00    +0.098 C 
ATOM     26  C   UNL     1      -0.729   1.919   1.271  0.00  0.00    -0.045 C 
ATOM     27  N   UNL     1      -0.744   3.398   1.265  0.00  0.00    +0.394 N 
ATOM     28  H   UNL     1      -1.184   3.723   0.396  0.00  0.00    -0.079 HD
BRANCH  25  29
ATOM     29  O   UNL     1       0.002  -0.004   0.002  0.00  0.00    -0.394 OA
ATOM     30  H   UNL     1       0.442  -0.387  -0.769  0.00  0.00    +0.210 HD
ENDBRANCH  25  29
ENDBRANCH  21  27
ENDBRANCH   4  21
TORSDOF 6
