REMARK  Name = ZINC43467143
REMARK  5 active torsions:
REMARK  status: ('A' for Active; 'I' for Inactive)
REMARK    1  A    between atoms: C_1  and  C_2
REMARK    2  A    between atoms: C_2  and  N_3
REMARK    3  A    between atoms: N_6  and  N_7
REMARK    4  A    between atoms: C_8  and  C_10
REMARK    5  A    between atoms: N_19  and  C_21
REMARK                            x       y       z     vdW  Elec       q    Type
REMARK                         _______ _______ _______ _____ _____    ______ ____
ROOT
ATOM      1  C   UNL     1       3.257  -0.771  -5.478  0.00  0.00    +0.155 A 
ATOM      2  C   UNL     1       3.829  -1.238  -6.750  0.00  0.00    +0.020 A 
ATOM      3  C   UNL     1       4.011  -2.585  -7.045  0.00  0.00    +0.011 A 
ATOM      4  C   UNL     1       4.554  -2.945  -8.260  0.00  0.00    +0.001 A 
ATOM      5  C   UNL     1       4.921  -1.979  -9.189  0.00  0.00    +0.001 A 
ATOM      6  C   UNL     1       4.750  -0.639  -8.917  0.00  0.00    +0.014 A 
ATOM      7  C   UNL     1       4.202  -0.255  -7.697  0.00  0.00    +0.051 A 
ATOM      8  C   UNL     1       3.985   1.150  -7.325  0.00  0.00    +0.280 A 
ATOM      9  O   UNL     1       4.282   2.049  -8.091  0.00  0.00    -0.265 OA
ATOM     10  N   UNL     1       3.449   1.420  -6.118  0.00  0.00    -0.196 N 
ATOM     11  N   UNL     1       3.113   0.517  -5.276  0.00  0.00    -0.158 NA
ENDROOT
BRANCH  10  12
ATOM     12  C   UNL     1       3.245   2.759  -5.769  0.00  0.00    +0.069 A 
ATOM     13  C   UNL     1       2.602   3.618  -6.651  0.00  0.00    +0.028 A 
ATOM     14  C   UNL     1       2.401   4.940  -6.303  0.00  0.00    +0.002 A 
ATOM     15  C   UNL     1       2.841   5.408  -5.078  0.00  0.00    +0.000 A 
ATOM     16  C   UNL     1       3.483   4.556  -4.198  0.00  0.00    +0.002 A 
ATOM     17  C   UNL     1       3.681   3.232  -4.537  0.00  0.00    +0.028 A 
ENDBRANCH  10  12
BRANCH   1  19
ATOM     18  N   UNL     1       2.317  -1.303  -3.283  0.00  0.00    -0.228 N 
ATOM     19  C   UNL     1       2.845  -1.740  -4.443  0.00  0.00    +0.281 C 
ATOM     20  O   UNL     1       2.982  -2.932  -4.638  0.00  0.00    -0.267 OA
ATOM     21  H   UNL     1       2.208  -0.352  -3.127  0.00  0.00    +0.173 HD
BRANCH  18  25
ATOM     22  N   UNL     1       1.246  -0.464  -0.925  0.00  0.00    -0.298 N 
ATOM     23  C   UNL     1       1.397  -1.786  -1.141  0.00  0.00    +0.316 C 
ATOM     24  O   UNL     1       1.058  -2.584  -0.289  0.00  0.00    -0.251 OA
ATOM     25  N   UNL     1       1.925  -2.223  -2.301  0.00  0.00    -0.218 N 
ATOM     26  H   UNL     1       1.516   0.173  -1.604  0.00  0.00    +0.150 HD
ATOM     27  H   UNL     1       2.034  -3.174  -2.457  0.00  0.00    +0.174 HD
BRANCH  22  29
ATOM     28  C   UNL     1       0.610   1.539   0.326  0.00  0.00    +0.024 C 
ATOM     29  C   UNL     1       0.671   0.011   0.337  0.00  0.00    +0.102 C 
ENDBRANCH  22  29
ENDBRANCH  18  25
ENDBRANCH   1  19
TORSDOF 4
