REMARK  Name = ZINC14200721
REMARK  8 active torsions:
REMARK  status: ('A' for Active; 'I' for Inactive)
REMARK    1  A    between atoms: C_1  and  C_2
REMARK    2  A    between atoms: C_3  and  C_27
REMARK    3  A    between atoms: C_4  and  C_24
REMARK    4  A    between atoms: C_5  and  S_9
REMARK    5  A    between atoms: C_7  and  C_8
REMARK    6  A    between atoms: S_9  and  C_10
REMARK    7  A    between atoms: C_10  and  C_12
REMARK    8  A    between atoms: C_10  and  C_13
REMARK                            x       y       z     vdW  Elec       q    Type
REMARK                         _______ _______ _______ _____ _____    ______ ____
ROOT
ATOM      1  C   UNL     1      -3.833   3.385  -2.384  0.00  0.00    +0.046 C 
ATOM      2  C   UNL     1      -3.121   2.983  -1.118  0.00  0.00    -0.026 A 
ATOM      3  C   UNL     1      -1.905   2.325  -1.181  0.00  0.00    -0.031 A 
ATOM      4  C   UNL     1      -1.280   1.966   0.018  0.00  0.00    +0.071 A 
ATOM      5  C   UNL     1      -1.906   2.296   1.233  0.00  0.00    +0.110 A 
ATOM      6  N   UNL     1      -3.069   2.931   1.236  0.00  0.00    -0.245 NA
ATOM      7  C   UNL     1      -3.675   3.273   0.116  0.00  0.00    +0.043 A 
ATOM      8  C   UNL     1      -4.997   3.995   0.181  0.00  0.00    +0.066 C 
ATOM      9  C   UNL     1      -1.271   2.001  -2.509  0.00  0.00    +0.045 C 
ENDROOT
BRANCH   4  10
ATOM     10  C   UNL     1       0.014   1.260   0.008  0.00  0.00    +0.244 C 
ATOM     11  O   UNL     1       0.043   0.044  -0.005  0.00  0.00    -0.270 OA
ATOM     12  N   UNL     1       1.165   1.961   0.008  0.00  0.00    -0.325 N 
ATOM     13  H   UNL     1       2.016   1.496  -0.002  0.00  0.00    +0.145 HD
ATOM     14  H   UNL     1       1.141   2.931   0.019  0.00  0.00    +0.145 HD
ENDBRANCH   4  10
BRANCH   5  15
ATOM     15  S   UNL     1      -1.141   1.863   2.760  0.00  0.00    -0.093 S 
BRANCH  15  16
ATOM     16  C   UNL     1      -2.364   2.519   3.922  0.00  0.00    +0.136 C 
ATOM     17  C   UNL     1      -3.677   1.748   3.771  0.00  0.00    +0.029 C 
BRANCH  16  18
ATOM     18  C   UNL     1      -1.851   2.366   5.331  0.00  0.00    +0.233 C 
ATOM     19  O   UNL     1      -1.048   1.496   5.593  0.00  0.00    -0.274 OA
ATOM     20  N   UNL     1      -2.284   3.197   6.300  0.00  0.00    -0.270 N 
ATOM     21  C   UNL     1      -3.323   4.217   6.129  0.00  0.00    +0.118 C 
ATOM     22  C   UNL     1      -3.457   4.889   7.505  0.00  0.00    +0.056 C 
ATOM     23  C   UNL     1      -2.444   4.181   8.376  0.00  0.00    -0.024 A 
ATOM     24  C   UNL     1      -1.804   3.217   7.613  0.00  0.00    +0.040 A 
ATOM     25  C   UNL     1      -0.818   2.428   8.206  0.00  0.00    +0.024 A 
ATOM     26  C   UNL     1      -0.488   2.607   9.533  0.00  0.00    +0.002 A 
ATOM     27  C   UNL     1      -1.132   3.571  10.286  0.00  0.00    +0.000 A 
ATOM     28  C   UNL     1      -2.110   4.358   9.704  0.00  0.00    +0.005 A 
ENDBRANCH  16  18
ENDBRANCH  15  16
ENDBRANCH   5  15
TORSDOF 4
