REMARK  Name = ZINC05153628
REMARK  7 active torsions:
REMARK  status: ('A' for Active; 'I' for Inactive)
REMARK    1  A    between atoms: C_1  and  C_2
REMARK    2  A    between atoms: C_6  and  N_16
REMARK    3  A    between atoms: C_17  and  C_19
REMARK    4  A    between atoms: C_19  and  C_20
REMARK    5  A    between atoms: C_20  and  C_21
REMARK    6  A    between atoms: C_20  and  C_22
REMARK    7  A    between atoms: C_20  and  C_23
REMARK                            x       y       z     vdW  Elec       q    Type
REMARK                         _______ _______ _______ _____ _____    ______ ____
ROOT
ATOM      1  C   UNL     1      -0.437   1.192   0.035  0.00  0.00    +0.022 C 
ATOM      2  C   UNL     1      -0.186  -0.317  -0.002  0.00  0.00    +0.104 C 
ATOM      3  C   UNL     1       0.638  -0.684  -1.213  0.00  0.00    -0.012 A 
ATOM      4  C   UNL     1       0.479  -0.586  -2.577  0.00  0.00    +0.029 A 
ATOM      5  C   UNL     1       1.485  -1.045  -3.422  0.00  0.00    +0.034 A 
ATOM      6  C   UNL     1       2.654  -1.603  -2.906  0.00  0.00    +0.028 A 
ATOM      7  C   UNL     1       2.811  -1.700  -1.548  0.00  0.00    -0.024 A 
ATOM      8  C   UNL     1       1.794  -1.238  -0.712  0.00  0.00    +0.043 A 
ATOM      9  N   UNL     1       1.796  -1.270   0.693  0.00  0.00    -0.270 N 
ATOM     10  C   UNL     1       0.666  -0.742   1.182  0.00  0.00    +0.227 C 
ATOM     11  O   UNL     1       0.376  -0.625   2.354  0.00  0.00    -0.275 OA
ATOM     12  C   UNL     1       2.954  -1.843   1.401  0.00  0.00    +0.114 C 
ATOM     13  C   UNL     1       3.615  -2.879   0.484  0.00  0.00    +0.024 C 
ATOM     14  C   UNL     1       4.022  -2.276  -0.863  0.00  0.00    +0.038 C 
ENDROOT
BRANCH   5  15
ATOM     15  N   UNL     1       1.321  -0.946  -4.809  0.00  0.00    -0.285 N 
ATOM     16  C   UNL     1       0.645   0.094  -5.335  0.00  0.00    +0.218 C 
ATOM     17  O   UNL     1       0.261   0.993  -4.617  0.00  0.00    -0.275 OA
ATOM     18  H   UNL     1       1.694  -1.626  -5.392  0.00  0.00    +0.155 HD
BRANCH  16  19
ATOM     19  C   UNL     1       0.365   0.140  -6.816  0.00  0.00    +0.102 C 
BRANCH  19  20
ATOM     20  C   UNL     1      -0.411   1.416  -7.148  0.00  0.00    -0.029 C 
ATOM     21  C   UNL     1       0.420   2.637  -6.748  0.00  0.00    +0.011 C 
ATOM     22  C   UNL     1      -0.695   1.463  -8.651  0.00  0.00    +0.011 C 
ATOM     23  C   UNL     1      -1.733   1.424  -6.379  0.00  0.00    +0.011 C 
ENDBRANCH  19  20
ENDBRANCH  16  19
ENDBRANCH   5  15
TORSDOF 3
