REMARK  Name = ZINC06083178
REMARK  7 active torsions:
REMARK  status: ('A' for Active; 'I' for Inactive)
REMARK    1  A    between atoms: C_1  and  C_2
REMARK    2  A    between atoms: C_2  and  C_3
REMARK    3  A    between atoms: C_2  and  C_4
REMARK    4  A    between atoms: C_2  and  N_5
REMARK    5  A    between atoms: C_9  and  C_11
REMARK    6  A    between atoms: C_11  and  S_12
REMARK    7  A    between atoms: S_12  and  C_13
REMARK                            x       y       z     vdW  Elec       q    Type
REMARK                         _______ _______ _______ _____ _____    ______ ____
ROOT
ATOM      1  C   UNL     1       0.093   4.341   0.024  0.00  0.00    +0.173 C 
ENDROOT
BRANCH   1   6
ATOM      2  N   UNL     1      -1.492   8.880   0.063  0.00  0.00    -0.294 N 
ATOM      3  C   UNL     1      -0.456   8.017   0.049  0.00  0.00    +0.306 C 
ATOM      4  O   UNL     1       0.684   8.437   0.040  0.00  0.00    -0.252 OA
ATOM      5  N   UNL     1      -0.686   6.689   0.044  0.00  0.00    -0.239 N 
ATOM      6  C   UNL     1       0.350   5.827   0.029  0.00  0.00    +0.231 C 
ATOM      7  O   UNL     1       1.487   6.245   0.020  0.00  0.00    -0.274 OA
ATOM      8  H   UNL     1      -2.402   8.545   0.070  0.00  0.00    +0.151 HD
ATOM      9  H   UNL     1      -1.596   6.354   0.051  0.00  0.00    +0.159 HD
BRANCH   2  11
ATOM     10  C   UNL     1      -0.457  10.710  -1.187  0.00  0.00    +0.031 C 
ATOM     11  C   UNL     1      -1.242  10.324   0.068  0.00  0.00    +0.028 C 
ATOM     12  C   UNL     1      -2.577  11.072   0.085  0.00  0.00    +0.031 C 
ATOM     13  C   UNL     1      -0.432  10.697   1.311  0.00  0.00    +0.031 C 
ENDBRANCH   2  11
ENDBRANCH   1   6
BRANCH   1  14
ATOM     14  S   UNL     1       1.675   3.454   0.004  0.00  0.00    -0.076 S 
BRANCH  14  15
ATOM     15  C   UNL     1       1.211   1.755  -0.000  0.00  0.00    +0.196 A 
ATOM     16  N   UNL     1      -0.015   1.282   0.009  0.00  0.00    -0.122 NA
ATOM     17  N   UNL     1       0.002  -0.004   0.002  0.00  0.00    -0.127 NA
ATOM     18  C   UNL     1       1.251  -0.432  -0.012  0.00  0.00    +0.180 A 
ATOM     19  N   UNL     1       2.058   0.686  -0.014  0.00  0.00    -0.275 N 
ATOM     20  C   UNL     1       3.420   0.558  -0.028  0.00  0.00    +0.115 A 
ATOM     21  C   UNL     1       3.991  -0.664  -0.040  0.00  0.00    +0.059 A 
ATOM     22  C   UNL     1       3.194  -1.825  -0.039  0.00  0.00    +0.045 A 
ATOM     23  C   UNL     1       1.838  -1.714  -0.025  0.00  0.00    +0.087 A 
ATOM     24 CL   UNL     1       0.842  -3.136  -0.024  0.00  0.00    -0.080 Cl
ATOM     25 CL   UNL     1       5.721  -0.807  -0.058  0.00  0.00    -0.082 Cl
ENDBRANCH  14  15
ENDBRANCH   1  14
TORSDOF 4
