REMARK  Name = ZINC12289767
REMARK  8 active torsions:
REMARK  status: ('A' for Active; 'I' for Inactive)
REMARK    1  A    between atoms: C_1  and  C_2
REMARK    2  A    between atoms: C_2  and  C_3
REMARK    3  A    between atoms: C_2  and  C_4
REMARK    4  A    between atoms: C_7  and  O_11
REMARK    5  A    between atoms: O_11  and  C_12
REMARK    6  A    between atoms: C_12  and  C_13
REMARK    7  A    between atoms: N_15  and  N_16
REMARK    8  A    between atoms: C_17  and  C_18
REMARK                            x       y       z     vdW  Elec       q    Type
REMARK                         _______ _______ _______ _____ _____    ______ ____
ROOT
ATOM      1  C   UNL     1       3.714  -0.859  -0.024  0.00  0.00    +0.270 C 
ATOM      2  O   UNL     1       4.665  -0.105  -0.022  0.00  0.00    -0.270 OA
ATOM      3  N   UNL     1       3.910  -2.192  -0.041  0.00  0.00    -0.204 N 
ATOM      4  H   UNL     1       3.150  -2.794  -0.043  0.00  0.00    +0.177 HD
ENDROOT
BRANCH   3   5
ATOM      5  N   UNL     1       5.213  -2.708  -0.057  0.00  0.00    -0.188 NA
ATOM      6  C   UNL     1       5.402  -3.993  -0.074  0.00  0.00    +0.139 C 
BRANCH   6   7
ATOM      7  C   UNL     1       6.770  -4.535  -0.090  0.00  0.00    +0.002 A 
ATOM      8  C   UNL     1       6.992  -5.904   0.004  0.00  0.00    +0.010 A 
ATOM      9  C   UNL     1       8.284  -6.412  -0.012  0.00  0.00    +0.001 A 
ATOM     10  C   UNL     1       9.373  -5.602  -0.119  0.00  0.00    +0.008 A 
ATOM     11  C   UNL     1       9.223  -4.209  -0.218  0.00  0.00    -0.017 A 
ATOM     12  C   UNL     1       7.923  -3.646  -0.212  0.00  0.00    -0.009 A 
ATOM     13  C   UNL     1       7.770  -2.257  -0.305  0.00  0.00    +0.009 A 
ATOM     14  C   UNL     1       8.873  -1.463  -0.410  0.00  0.00    +0.001 A 
ATOM     15  C   UNL     1      10.153  -2.014  -0.422  0.00  0.00    +0.001 A 
ATOM     16  C   UNL     1      10.338  -3.360  -0.328  0.00  0.00    +0.008 A 
ENDBRANCH   6   7
ENDBRANCH   3   5
BRANCH   1  17
ATOM     17  C   UNL     1       2.313  -0.304  -0.007  0.00  0.00    +0.326 C 
BRANCH  17  18
ATOM     18  O   UNL     1       2.366   1.124   0.010  0.00  0.00    -0.482 OA
BRANCH  18  22
ATOM     19  C   UNL     1      -1.238   3.133   0.059  0.00  0.00    -0.044 A 
ATOM     20  C   UNL     1      -1.218   1.751   0.037  0.00  0.00    +0.007 A 
ATOM     21  C   UNL     1      -0.012   1.076   0.026  0.00  0.00    +0.047 A 
ATOM     22  C   UNL     1       1.179   1.786   0.026  0.00  0.00    +0.135 A 
ATOM     23  C   UNL     1       1.157   3.174   0.043  0.00  0.00    +0.060 A 
ATOM     24  C   UNL     1      -0.052   3.844   0.059  0.00  0.00    +0.022 A 
ATOM     25 BR   UNL     1       2.779   4.146   0.042  0.00  0.00    -0.047 Br
BRANCH  19  27
ATOM     26  C   UNL     1      -3.359   3.499  -1.172  0.00  0.00    +0.012 C 
ATOM     27  C   UNL     1      -2.554   3.866   0.076  0.00  0.00    +0.013 C 
ATOM     28  C   UNL     1      -3.342   3.470   1.326  0.00  0.00    +0.012 C 
ENDBRANCH  19  27
ENDBRANCH  18  22
ENDBRANCH  17  18
ENDBRANCH   1  17
TORSDOF 6
