REMARK  Name = ZINC67468041
REMARK  10 active torsions:
REMARK  status: ('A' for Active; 'I' for Inactive)
REMARK    1  A    between atoms: C_1  and  C_2
REMARK    2  A    between atoms: C_2  and  N_3
REMARK    3  A    between atoms: C_4  and  C_29
REMARK    4  A    between atoms: C_5  and  C_9
REMARK    5  A    between atoms: C_6  and  C_8
REMARK    6  A    between atoms: C_9  and  N_10
REMARK    7  A    between atoms: N_13  and  C_14
REMARK    8  A    between atoms: C_14  and  C_16
REMARK    9  A    between atoms: C_14  and  C_17
REMARK   10  A    between atoms: C_21  and  C_23
REMARK                            x       y       z     vdW  Elec       q    Type
REMARK                         _______ _______ _______ _____ _____    ______ ____
ROOT
ATOM      1  N   UNL     1      -5.307  -0.498   1.874  0.00  0.00    -0.295 N 
ATOM      2  C   UNL     1      -6.396  -0.641   2.655  0.00  0.00    +0.300 C 
ATOM      3  O   UNL     1      -6.674  -1.731   3.117  0.00  0.00    -0.253 OA
ATOM      4  N   UNL     1      -7.176   0.424   2.925  0.00  0.00    -0.290 N 
ATOM      5  H   UNL     1      -5.085   0.371   1.506  0.00  0.00    +0.151 HD
ATOM      6  H   UNL     1      -6.954   1.294   2.557  0.00  0.00    +0.151 HD
ENDROOT
BRANCH   4   7
ATOM      7  C   UNL     1      -8.360   0.269   3.774  0.00  0.00    +0.135 C 
ATOM      8  C   UNL     1      -7.951   0.381   5.244  0.00  0.00    +0.036 C 
BRANCH   7   9
ATOM      9  C   UNL     1      -9.358   1.349   3.447  0.00  0.00    +0.105 A 
ATOM     10  N   UNL     1      -9.056   2.585   2.990  0.00  0.00    -0.348 N 
ATOM     11  H   UNL     1      -8.167   2.931   2.817  0.00  0.00    +0.167 HD
ATOM     12  C   UNL     1     -10.234   3.257   2.818  0.00  0.00    +0.110 A 
ATOM     13  C   UNL     1     -11.227   2.402   3.178  0.00  0.00    +0.064 A 
ATOM     14  N   UNL     1     -10.653   1.241   3.552  0.00  0.00    -0.342 N 
ATOM     15  H   UNL     1     -11.128   0.451   3.855  0.00  0.00    +0.167 HD
BRANCH  13  16
ATOM     16  C   UNL     1     -12.682   2.692   3.157  0.00  0.00    -0.000 A 
ATOM     17  C   UNL     1     -13.595   1.720   3.561  0.00  0.00    +0.010 A 
ATOM     18  C   UNL     1     -14.947   1.996   3.539  0.00  0.00    +0.001 A 
ATOM     19  C   UNL     1     -15.396   3.234   3.117  0.00  0.00    +0.000 A 
ATOM     20  C   UNL     1     -14.495   4.203   2.715  0.00  0.00    +0.001 A 
ATOM     21  C   UNL     1     -13.140   3.940   2.738  0.00  0.00    +0.010 A 
ENDBRANCH  13  16
ENDBRANCH   7   9
ENDBRANCH   4   7
BRANCH   1  22
ATOM     22  C   UNL     1      -4.459  -1.656   1.581  0.00  0.00    +0.144 C 
BRANCH  22  25
ATOM     23  N   UNL     1      -1.372  -0.511   0.012  0.00  0.00    -0.268 N 
ATOM     24  C   UNL     1      -2.109  -0.787   1.109  0.00  0.00    +0.041 A 
ATOM     25  C   UNL     1      -3.317  -1.231   0.694  0.00  0.00    +0.013 A 
ATOM     26  C   UNL     1      -3.320  -1.227  -0.705  0.00  0.00    +0.065 A 
ATOM     27  N   UNL     1      -2.156  -0.790  -1.114  0.00  0.00    -0.176 NA
ATOM     28  C   UNL     1      -4.467  -1.647  -1.588  0.00  0.00    +0.068 C 
ATOM     29  C   UNL     1      -1.664  -0.628   2.541  0.00  0.00    +0.065 C 
BRANCH  23  31
ATOM     30  C   UNL     1      -0.019   1.526   0.010  0.00  0.00    +0.029 C 
ATOM     31  C   UNL     1       0.002  -0.004   0.002  0.00  0.00    +0.140 C 
ENDBRANCH  23  31
ENDBRANCH  22  25
ENDBRANCH   1  22
TORSDOF 6
