REMARK  Name = ZINC38965262
REMARK  4 active torsions:
REMARK  status: ('A' for Active; 'I' for Inactive)
REMARK    1  A    between atoms: C_4  and  S_7
REMARK    2  A    between atoms: S_7  and  N_10
REMARK    3  A    between atoms: C_12  and  N_22
REMARK    4  A    between atoms: N_22  and  C_23
REMARK                            x       y       z     vdW  Elec       q    Type
REMARK                         _______ _______ _______ _____ _____    ______ ____
ROOT
ATOM      1  N   UNL     1       4.600  -0.972   1.383  0.00  0.00    -0.110 NA
ATOM      2  C   UNL     1       5.632  -1.666   1.764  0.00  0.00    +0.192 C 
ATOM      3  C   UNL     1       5.880  -1.928   3.232  0.00  0.00    +0.237 C 
ATOM      4  N   UNL     1       7.064  -2.721   3.598  0.00  0.00    -0.359 N 
ATOM      5  C   UNL     1       7.840  -3.157   2.645  0.00  0.00    +0.063 A 
ATOM      6  C   UNL     1       9.036  -3.953   2.958  0.00  0.00    +0.027 A 
ATOM      7  C   UNL     1       9.815  -4.388   1.944  0.00  0.00    +0.002 A 
ATOM      8  C   UNL     1       9.511  -4.099   0.603  0.00  0.00    +0.002 A 
ATOM      9  C   UNL     1       8.431  -3.374   0.238  0.00  0.00    +0.030 A 
ATOM     10  C   UNL     1       7.543  -2.867   1.221  0.00  0.00    +0.089 A 
ATOM     11  N   UNL     1       6.489  -2.165   0.859  0.00  0.00    -0.226 NA
ATOM     12  H   UNL     1       7.264  -2.914   4.528  0.00  0.00    +0.162 HD
ENDROOT
BRANCH   1  13
ATOM     13  S   UNL     1       4.337  -0.698  -0.229  0.00  0.00    +0.100 S 
ATOM     14  O   UNL     1       4.049  -1.961  -0.814  0.00  0.00    -0.146 OA
ATOM     15  O   UNL     1       5.403   0.125  -0.681  0.00  0.00    -0.146 OA
BRANCH  13  19
ATOM     16  C   UNL     1       0.560   1.774  -0.569  0.00  0.00    +0.000 A 
ATOM     17  C   UNL     1       1.788   2.400  -0.452  0.00  0.00    +0.002 A 
ATOM     18  C   UNL     1       2.941   1.644  -0.348  0.00  0.00    +0.029 A 
ATOM     19  C   UNL     1       2.867   0.264  -0.361  0.00  0.00    +0.113 A 
ATOM     20  C   UNL     1       1.639  -0.361  -0.476  0.00  0.00    +0.029 A 
ATOM     21  C   UNL     1       0.486   0.394  -0.582  0.00  0.00    +0.002 A 
ENDBRANCH  13  19
ENDBRANCH   1  13
BRANCH   3  22
ATOM     22  N   UNL     1       5.984  -0.632   3.906  0.00  0.00    -0.316 N 
ATOM     23  H   UNL     1       6.500   0.084   3.503  0.00  0.00    +0.148 HD
BRANCH  22  24
ATOM     24  C   UNL     1       5.341  -0.427   5.132  0.00  0.00    +0.065 A 
ATOM     25  C   UNL     1       4.710  -1.485   5.772  0.00  0.00    +0.027 A 
ATOM     26  C   UNL     1       4.076  -1.279   6.982  0.00  0.00    +0.017 A 
ATOM     27  C   UNL     1       4.068  -0.021   7.556  0.00  0.00    +0.021 A 
ATOM     28  C   UNL     1       4.695   1.037   6.922  0.00  0.00    +0.055 A 
ATOM     29  C   UNL     1       5.337   0.837   5.713  0.00  0.00    +0.145 A 
ATOM     30  F   UNL     1       5.955   1.868   5.096  0.00  0.00    -0.204 F 
ATOM     31 BR   UNL     1       3.198   0.255   9.213  0.00  0.00    -0.050 Br
ENDBRANCH  22  24
ENDBRANCH   3  22
TORSDOF 4
