REMARK  Name = ZINC39544303
REMARK  10 active torsions:
REMARK  status: ('A' for Active; 'I' for Inactive)
REMARK    1  A    between atoms: C_1  and  C_2
REMARK    2  A    between atoms: C_2  and  C_3
REMARK    3  A    between atoms: C_3  and  N_4
REMARK    4  A    between atoms: N_4  and  C_5
REMARK    5  A    between atoms: C_10  and  O_11
REMARK    6  A    between atoms: C_12  and  C_14
REMARK    7  A    between atoms: C_17  and  S_28
REMARK    8  A    between atoms: S_28  and  C_31
REMARK    9  A    between atoms: C_31  and  C_32
REMARK   10  A    between atoms: C_31  and  C_33
REMARK                            x       y       z     vdW  Elec       q    Type
REMARK                         _______ _______ _______ _____ _____    ______ ____
ROOT
ATOM      1  C   UNL     1       2.898  -1.873  -0.135  0.00  0.00    +0.150 C 
ATOM      2  C   UNL     1       3.441  -0.886  -1.188  0.00  0.00    +0.088 C 
ATOM      3  C   UNL     1       4.913  -1.217  -1.279  0.00  0.00    +0.102 C 
ATOM      4  C   UNL     1       5.193  -2.189  -0.449  0.00  0.00    +0.096 C 
ATOM      5  N   UNL     1       6.452  -2.794  -0.277  0.00  0.00    -0.302 N 
ATOM      6  C   UNL     1       6.414  -4.178  -0.035  0.00  0.00    +0.037 A 
ATOM      7  C   UNL     1       7.598  -4.898   0.035  0.00  0.00    +0.023 A 
ATOM      8  C   UNL     1       7.561  -6.257   0.284  0.00  0.00    +0.002 A 
ATOM      9  C   UNL     1       6.345  -6.891   0.461  0.00  0.00    +0.000 A 
ATOM     10  C   UNL     1       5.166  -6.175   0.387  0.00  0.00    +0.007 A 
ATOM     11  C   UNL     1       5.192  -4.813   0.134  0.00  0.00    -0.010 A 
ATOM     12  C   UNL     1       3.889  -4.063   0.034  0.00  0.00    +0.124 C 
ATOM     13  N   UNL     1       4.084  -2.632   0.291  0.00  0.00    -0.369 NA
ATOM     14  H   UNL     1       7.282  -2.294  -0.323  0.00  0.00    +0.153 HD
ATOM     15  H   UNL     1       4.248  -2.483   1.275  0.00  0.00    +0.129 HD
ENDROOT
BRANCH   1  17
ATOM     16  N   UNL     1       0.693  -2.994  -0.135  0.00  0.00    -0.267 N 
ATOM     17  C   UNL     1       1.875  -2.792  -0.751  0.00  0.00    +0.239 C 
ATOM     18  O   UNL     1       2.115  -3.350  -1.801  0.00  0.00    -0.273 OA
BRANCH  16  19
ATOM     19  C   UNL     1      -0.218  -3.922  -0.656  0.00  0.00    +0.078 A 
ATOM     20  C   UNL     1      -1.164  -3.520  -1.588  0.00  0.00    +0.027 A 
ATOM     21  C   UNL     1      -2.062  -4.437  -2.100  0.00  0.00    +0.002 A 
ATOM     22  C   UNL     1      -2.022  -5.755  -1.685  0.00  0.00    +0.004 A 
ATOM     23  C   UNL     1      -1.083  -6.163  -0.756  0.00  0.00    +0.047 A 
ATOM     24  C   UNL     1      -0.174  -5.251  -0.243  0.00  0.00    +0.138 A 
BRANCH  24  25
ATOM     25  O   UNL     1       0.754  -5.652   0.666  0.00  0.00    -0.505 OA
ATOM     26  H   UNL     1       0.460  -5.583   1.585  0.00  0.00    +0.292 HD
ENDBRANCH  24  25
ENDBRANCH  16  19
BRANCH  16  27
ATOM     27  C   UNL     1       0.362  -2.243   1.078  0.00  0.00    +0.113 C 
BRANCH  27  29
ATOM     28  C   UNL     1       0.420  -2.274   3.576  0.00  0.00    +0.005 C 
ATOM     29  C   UNL     1       0.766  -3.058   2.308  0.00  0.00    +0.016 C 
ENDBRANCH  27  29
ENDBRANCH  16  27
ENDBRANCH   1  17
BRANCH   3  30
ATOM     30  S   UNL     1       6.072  -0.419  -2.339  0.00  0.00    -0.002 S 
ATOM     31  O   UNL     1       7.288  -1.127  -2.145  0.00  0.00    -0.169 OA
ATOM     32  O   UNL     1       5.442  -0.395  -3.612  0.00  0.00    -0.169 OA
BRANCH  30  33
ATOM     33  C   UNL     1       6.219   1.266  -1.683  0.00  0.00    +0.130 C 
ATOM     34  C   UNL     1       6.812   1.215  -0.274  0.00  0.00    +0.032 C 
ATOM     35  C   UNL     1       7.134   2.089  -2.592  0.00  0.00    +0.032 C 
ENDBRANCH  30  33
ENDBRANCH   3  30
TORSDOF 7
