REMARK  Name = ZINC06442325
REMARK  9 active torsions:
REMARK  status: ('A' for Active; 'I' for Inactive)
REMARK    1  A    between atoms: C_1  and  C_2
REMARK    2  A    between atoms: C_7  and  C_15
REMARK    3  A    between atoms: C_13  and  C_14
REMARK    4  A    between atoms: C_15  and  C_17
REMARK    5  A    between atoms: C_15  and  N_74
REMARK    6  A    between atoms: N_21  and  C_22
REMARK    7  A    between atoms: C_22  and  C_23
REMARK    8  A    between atoms: C_31  and  C_34
REMARK    9  A    between atoms: C_34  and  C_35
REMARK                            x       y       z     vdW  Elec       q    Type
REMARK                         _______ _______ _______ _____ _____    ______ ____
ROOT
ATOM      1  C   UNL     1      -1.294  -0.772   0.010  0.00  0.00    +0.039 C 
ENDROOT
BRANCH   1   8
ATOM      2  C   UNL     1       4.553   4.616   0.636  0.00  0.00    +0.044 C 
ATOM      3  C   UNL     1       3.303   3.779   0.543  0.00  0.00    -0.046 A 
ATOM      4  C   UNL     1       2.059   4.390   0.635  0.00  0.00    +0.004 A 
ATOM      5  C   UNL     1       0.914   3.650   0.552  0.00  0.00    +0.010 A 
ATOM      6  C   UNL     1       0.995   2.264   0.374  0.00  0.00    -0.001 A 
ATOM      7  C   UNL     1      -0.212   1.441   0.282  0.00  0.00    +0.017 A 
ATOM      8  C   UNL     1      -0.072   0.103   0.109  0.00  0.00    +0.011 A 
ATOM      9  C   UNL     1       1.214  -0.471   0.021  0.00  0.00    +0.251 A 
ATOM     10  O   UNL     1       1.317  -1.676  -0.134  0.00  0.00    -0.268 OA
ATOM     11  N   UNL     1       2.328   0.277   0.105  0.00  0.00    -0.322 N 
ATOM     12  H   UNL     1       3.197  -0.150   0.040  0.00  0.00    +0.169 HD
ATOM     13  C   UNL     1       2.254   1.642   0.280  0.00  0.00    +0.052 A 
ATOM     14  C   UNL     1       3.407   2.417   0.366  0.00  0.00    -0.024 A 
ATOM     15  C   UNL     1       4.763   1.767   0.268  0.00  0.00    +0.046 C 
ENDBRANCH   1   8
BRANCH   1  21
ATOM     16  C   UNL     1      -2.401  -2.703   0.964  0.00  0.00    -0.077 C 
ATOM     17  C   UNL     1      -2.248  -3.835   1.982  0.00  0.00    -0.015 C 
ATOM     18  C   UNL     1      -2.166  -3.240   3.391  0.00  0.00    -0.010 C 
ATOM     19  C   UNL     1      -0.991  -2.261   3.455  0.00  0.00    -0.015 C 
ATOM     20  C   UNL     1      -1.180  -1.174   2.394  0.00  0.00    -0.077 C 
ATOM     21  N   UNL     1      -1.227  -1.810   1.060  0.00  0.00    +0.389 N 
ATOM     22  H   UNL     1      -0.374  -2.365   0.926  0.00  0.00    -0.080 HD
BRANCH  18  23
ATOM     23  C   UNL     1      -1.953  -4.362   4.409  0.00  0.00    +0.038 C 
BRANCH  23  24
ATOM     24  C   UNL     1      -3.166  -5.256   4.432  0.00  0.00    -0.047 A 
ATOM     25  C   UNL     1      -4.207  -4.987   5.301  0.00  0.00    +0.003 A 
ATOM     26  C   UNL     1      -5.321  -5.805   5.318  0.00  0.00    +0.000 A 
ATOM     27  C   UNL     1      -5.390  -6.898   4.474  0.00  0.00    +0.000 A 
ATOM     28  C   UNL     1      -4.346  -7.170   3.610  0.00  0.00    +0.000 A 
ATOM     29  C   UNL     1      -3.234  -6.349   3.589  0.00  0.00    +0.003 A 
ENDBRANCH  23  24
ENDBRANCH  18  23
ENDBRANCH   1  21
BRANCH   1  30
ATOM     30  C   UNL     1      -1.322  -1.444  -1.339  0.00  0.00    +0.143 A 
ATOM     31  N   UNL     1      -0.576  -2.449  -1.728  0.00  0.00    -0.115 NA
ATOM     32  N   UNL     1      -0.898  -2.737  -2.942  0.00  0.00    -0.023 NA
ATOM     33  N   UNL     1      -1.829  -1.941  -3.338  0.00  0.00    -0.044 NA
ATOM     34  N   UNL     1      -2.123  -1.133  -2.375  0.00  0.00    -0.228 N 
BRANCH  34  35
ATOM     35  C   UNL     1      -3.134  -0.074  -2.406  0.00  0.00    +0.178 C 
BRANCH  35  36
ATOM     36  C   UNL     1      -2.496   1.226  -2.902  0.00  0.00    +0.140 C 
ATOM     37  C   UNL     1      -3.561   2.347  -2.994  0.00  0.00    +0.035 C 
ATOM     38  C   UNL     1      -2.671   3.612  -2.859  0.00  0.00    +0.031 C 
ATOM     39  C   UNL     1      -1.565   3.133  -1.893  0.00  0.00    +0.160 C 
ATOM     40  O   UNL     1      -1.531   1.702  -1.950  0.00  0.00    -0.375 OA
ENDBRANCH  35  36
ENDBRANCH  34  35
ENDBRANCH   1  30
TORSDOF 7
