REMARK  Name = ZINC36057377
REMARK  4 active torsions:
REMARK  status: ('A' for Active; 'I' for Inactive)
REMARK    1  A    between atoms: C_1  and  O_2
REMARK    2  A    between atoms: O_2  and  C_3
REMARK    3  A    between atoms: C_8  and  N_9
REMARK    4  A    between atoms: N_9  and  C_10
REMARK                            x       y       z     vdW  Elec       q    Type
REMARK                         _______ _______ _______ _____ _____    ______ ____
ROOT
ATOM      1  C   UNL     1       0.060  -4.143  -0.140  0.00  0.00    +0.248 C 
ATOM      2  O   UNL     1       0.648  -4.814  -1.151  0.00  0.00    -0.270 OA
ATOM      3  C   UNL     1      -0.589  -4.835   0.861  0.00  0.00    +0.063 C 
ATOM      4  C   UNL     1      -0.544  -6.347   0.920  0.00  0.00    +0.066 C 
ATOM      5  C   UNL     1      -1.961  -6.854   1.013  0.00  0.00    +0.002 A 
ATOM      6  C   UNL     1      -2.802  -6.669  -0.074  0.00  0.00    +0.008 A 
ATOM      7  C   UNL     1      -4.109  -7.111  -0.028  0.00  0.00    +0.001 A 
ATOM      8  C   UNL     1      -4.587  -7.743   1.105  0.00  0.00    +0.004 A 
ATOM      9  C   UNL     1      -3.755  -7.933   2.189  0.00  0.00    +0.046 A 
ATOM     10  C   UNL     1      -2.437  -7.490   2.145  0.00  0.00    +0.122 A 
ATOM     11  O   UNL     1      -1.641  -7.703   3.225  0.00  0.00    -0.503 OA
ATOM     12  C   UNL     1      -0.524  -6.826   3.401  0.00  0.00    +0.085 C 
ATOM     13  C   UNL     1       0.272  -6.779   2.122  0.00  0.00    +0.027 C 
ATOM     14  C   UNL     1       1.487  -5.866   2.301  0.00  0.00    +0.006 C 
ATOM     15  C   UNL     1       2.368  -6.414   3.427  0.00  0.00    +0.000 C 
ATOM     16  C   UNL     1       1.557  -6.492   4.721  0.00  0.00    +0.002 C 
ATOM     17  C   UNL     1       0.367  -7.410   4.515  0.00  0.00    +0.028 C 
ATOM     18  N   UNL     1      -0.990  -5.509   3.843  0.00  0.00    +0.410 N 
ATOM     19  C   UNL     1      -1.997  -4.957   2.935  0.00  0.00    +0.004 C 
ATOM     20  C   UNL     1      -1.298  -4.169   1.846  0.00  0.00    +0.148 C 
ATOM     21  O   UNL     1      -1.362  -2.954   1.835  0.00  0.00    -0.294 OA
ATOM     22  H   UNL     1      -1.391  -5.594   4.765  0.00  0.00    -0.079 HD
ATOM     23  H   UNL     1      -0.204  -4.878   3.885  0.00  0.00    -0.079 HD
ENDROOT
BRANCH   1  24
ATOM     24  N   UNL     1       0.106  -2.778  -0.106  0.00  0.00    -0.279 N 
ATOM     25  H   UNL     1       0.491  -2.324   0.659  0.00  0.00    +0.155 HD
BRANCH  24  31
ATOM     26  C   UNL     1      -0.441  -0.643  -1.107  0.00  0.00    +0.141 A 
ATOM     27  C   UNL     1      -0.939   0.089  -2.173  0.00  0.00    +0.047 A 
ATOM     28  C   UNL     1      -1.403  -0.562  -3.301  0.00  0.00    +0.004 A 
ATOM     29  C   UNL     1      -1.370  -1.942  -3.370  0.00  0.00    +0.002 A 
ATOM     30  C   UNL     1      -0.874  -2.679  -2.312  0.00  0.00    +0.027 A 
ATOM     31  C   UNL     1      -0.402  -2.034  -1.178  0.00  0.00    +0.076 A 
BRANCH  26  33
ATOM     32  C   UNL     1      -0.056   1.423   0.007  0.00  0.00    +0.277 C 
ATOM     33  O   UNL     1       0.015  -0.004   0.004  0.00  0.00    -0.493 OA
ENDBRANCH  26  33
ENDBRANCH  24  31
ENDBRANCH   1  24
TORSDOF 3
