REMARK  Name = ZINC53915903
REMARK  6 active torsions:
REMARK  status: ('A' for Active; 'I' for Inactive)
REMARK    1  A    between atoms: C_1  and  N_2
REMARK    2  A    between atoms: N_2  and  C_3
REMARK    3  A    between atoms: C_3  and  C_4
REMARK    4  A    between atoms: C_9  and  O_10
REMARK    5  A    between atoms: C_11  and  C_13
REMARK    6  A    between atoms: C_16  and  C_18
REMARK                            x       y       z     vdW  Elec       q    Type
REMARK                         _______ _______ _______ _____ _____    ______ ____
ROOT
ATOM      1  C   UNL     1      -0.077   1.462   0.011  0.00  0.00    +0.132 C 
ATOM      2  N   UNL     1      -0.029  -0.003   0.004  0.00  0.00    -0.295 N 
ATOM      3  C   UNL     1      -0.102  -0.673  -1.163  0.00  0.00    +0.266 C 
ATOM      4  O   UNL     1      -0.149  -1.888  -1.165  0.00  0.00    -0.268 OA
ENDROOT
BRANCH   3   5
ATOM      5  C   UNL     1      -0.124   0.066  -2.437  0.00  0.00    +0.133 A 
ATOM      6  C   UNL     1      -0.336  -0.594  -3.619  0.00  0.00    +0.080 A 
ATOM      7  S   UNL     1      -0.272   0.652  -4.749  0.00  0.00    -0.072 S 
ATOM      8  C   UNL     1       0.033   2.002  -3.623  0.00  0.00    +0.144 A 
ATOM      9  N   UNL     1       0.056   1.380  -2.455  0.00  0.00    -0.231 NA
BRANCH   8  10
ATOM     10  C   UNL     1       0.209   3.433  -3.916  0.00  0.00    +0.160 A 
ATOM     11  C   UNL     1       0.162   4.009  -5.150  0.00  0.00    +0.052 A 
ATOM     12  C   UNL     1       0.380   5.387  -4.963  0.00  0.00    +0.042 A 
ATOM     13  C   UNL     1       0.548   5.585  -3.639  0.00  0.00    +0.196 A 
ATOM     14  O   UNL     1       0.438   4.404  -3.010  0.00  0.00    -0.461 OA
ENDBRANCH   8  10
ENDBRANCH   3   5
BRANCH   2  15
ATOM     15  C   UNL     1       0.098  -0.738   1.264  0.00  0.00    +0.146 C 
BRANCH  15  16
ATOM     16  C   UNL     1      -1.273  -1.037   1.812  0.00  0.00    +0.011 A 
ATOM     17  C   UNL     1      -1.805  -0.249   2.814  0.00  0.00    +0.009 A 
ATOM     18  C   UNL     1      -3.063  -0.523   3.317  0.00  0.00    +0.001 A 
ATOM     19  C   UNL     1      -3.793  -1.587   2.818  0.00  0.00    +0.004 A 
ATOM     20  C   UNL     1      -3.266  -2.377   1.816  0.00  0.00    +0.046 A 
ATOM     21  C   UNL     1      -2.006  -2.101   1.306  0.00  0.00    +0.122 A 
BRANCH  21  22
ATOM     22  O   UNL     1      -1.488  -2.874   0.315  0.00  0.00    -0.506 OA
ATOM     23  H   UNL     1      -0.980  -3.632   0.633  0.00  0.00    +0.292 HD
ENDBRANCH  21  22
ENDBRANCH  15  16
ENDBRANCH   2  15
TORSDOF 5
