REMARK  Name = ZINC09041075
REMARK  12 active torsions:
REMARK  status: ('A' for Active; 'I' for Inactive)
REMARK    1  A    between atoms: C_1  and  C_2
REMARK    2  A    between atoms: C_2  and  O_3
REMARK    3  A    between atoms: O_3  and  C_4
REMARK    4  A    between atoms: C_4  and  C_6
REMARK    5  A    between atoms: C_11  and  N_12
REMARK    6  A    between atoms: C_13  and  C_15
REMARK    7  A    between atoms: C_15  and  S_16
REMARK    8  A    between atoms: S_16  and  C_17
REMARK    9  A    between atoms: C_29  and  C_33
REMARK   10  A    between atoms: C_33  and  C_34
REMARK   11  A    between atoms: C_33  and  C_35
REMARK   12  A    between atoms: C_33  and  C_36
REMARK                            x       y       z     vdW  Elec       q    Type
REMARK                         _______ _______ _______ _____ _____    ______ ____
ROOT
ATOM      1  C   UNL     1       5.402  -2.992  -5.772  0.00  0.00    +0.170 A 
ATOM      2  N   UNL     1       4.290  -3.768  -5.645  0.00  0.00    -0.301 N 
ATOM      3  H   UNL     1       4.216  -4.565  -6.192  0.00  0.00    +0.171 HD
ATOM      4  C   UNL     1       3.282  -3.476  -4.789  0.00  0.00    +0.261 A 
ATOM      5  O   UNL     1       2.293  -4.183  -4.689  0.00  0.00    -0.267 OA
ATOM      6  C   UNL     1       3.448  -2.286  -4.008  0.00  0.00    +0.075 A 
ATOM      7  C   UNL     1       2.519  -1.755  -3.024  0.00  0.00    -0.023 A 
ATOM      8  C   UNL     1       2.883  -0.612  -2.401  0.00  0.00    -0.004 A 
ATOM      9  S   UNL     1       4.464  -0.190  -3.088  0.00  0.00    -0.073 S 
ATOM     10  C   UNL     1       4.635  -1.544  -4.207  0.00  0.00    +0.117 A 
ATOM     11  N   UNL     1       5.588  -1.885  -5.066  0.00  0.00    -0.216 NA
ATOM     12  C   UNL     1       2.114   0.136  -1.356  0.00  0.00    +0.046 C 
ATOM     13  C   UNL     1       0.668  -0.381  -1.353  0.00  0.00    -0.000 C 
ATOM     14  C   UNL     1       0.693  -1.912  -1.343  0.00  0.00    +0.009 C 
ATOM     15  C   UNL     1       1.193  -2.433  -2.690  0.00  0.00    +0.037 C 
ENDROOT
BRANCH  13  16
ATOM     16  C   UNL     1      -0.057   0.129  -0.105  0.00  0.00    -0.035 C 
ATOM     17  C   UNL     1      -0.072   1.659  -0.114  0.00  0.00    +0.011 C 
ATOM     18  C   UNL     1       0.671  -0.367   1.146  0.00  0.00    +0.011 C 
ATOM     19  C   UNL     1      -1.494  -0.396  -0.101  0.00  0.00    +0.011 C 
ENDBRANCH  13  16
BRANCH   1  20
ATOM     20  S   UNL     1       6.644  -3.479  -6.923  0.00  0.00    -0.078 S 
BRANCH  20  21
ATOM     21  C   UNL     1       7.838  -2.140  -6.682  0.00  0.00    +0.173 C 
BRANCH  21  23
ATOM     22  N   UNL     1      10.043  -1.473  -7.583  0.00  0.00    -0.284 N 
ATOM     23  C   UNL     1       9.021  -2.352  -7.590  0.00  0.00    +0.228 C 
ATOM     24  O   UNL     1       9.054  -3.314  -8.328  0.00  0.00    -0.275 OA
ATOM     25  H   UNL     1       9.988  -0.670  -7.041  0.00  0.00    +0.155 HD
BRANCH  22  31
ATOM     26  C   UNL     1      12.444  -1.342  -7.881  0.00  0.00    +0.080 A 
ATOM     27  C   UNL     1      13.574  -1.593  -8.663  0.00  0.00    +0.017 A 
ATOM     28  C   UNL     1      13.438  -2.206  -9.890  0.00  0.00    +0.001 A 
ATOM     29  C   UNL     1      12.186  -2.576 -10.352  0.00  0.00    +0.002 A 
ATOM     30  C   UNL     1      11.061  -2.339  -9.589  0.00  0.00    +0.024 A 
ATOM     31  C   UNL     1      11.177  -1.717  -8.353  0.00  0.00    +0.047 A 
BRANCH  26  32
ATOM     32  C   UNL     1      12.582  -0.686  -6.568  0.00  0.00    +0.341 C 
ATOM     33  O   UNL     1      11.611  -0.558  -5.848  0.00  0.00    -0.245 OA
BRANCH  32  34
ATOM     34  O   UNL     1      13.784  -0.230  -6.166  0.00  0.00    -0.461 OA
BRANCH  34  36
ATOM     35  C   UNL     1      15.281   0.854  -4.580  0.00  0.00    +0.048 C 
ATOM     36  C   UNL     1      13.846   0.404  -4.861  0.00  0.00    +0.229 C 
ENDBRANCH  34  36
ENDBRANCH  32  34
ENDBRANCH  26  32
ENDBRANCH  22  31
ENDBRANCH  21  23
ENDBRANCH  20  21
ENDBRANCH   1  20
TORSDOF 8
