REMARK  Name = ZINC04209406
REMARK  8 active torsions:
REMARK  status: ('A' for Active; 'I' for Inactive)
REMARK    1  A    between atoms: C_1  and  C_2
REMARK    2  A    between atoms: C_5  and  S_8
REMARK    3  A    between atoms: S_8  and  N_11
REMARK    4  A    between atoms: N_11  and  N_12
REMARK    5  A    between atoms: C_13  and  C_14
REMARK    6  A    between atoms: C_19  and  O_20
REMARK    7  A    between atoms: O_20  and  C_21
REMARK    8  A    between atoms: C_21  and  C_23
REMARK                            x       y       z     vdW  Elec       q    Type
REMARK                         _______ _______ _______ _____ _____    ______ ____
ROOT
ATOM      1  C   UNL     1      -1.356   3.204   0.505  0.00  0.00    +0.037 A 
ATOM      2  C   UNL     1      -1.361   1.829   0.748  0.00  0.00    +0.013 A 
ATOM      3  C   UNL     1      -0.176   1.173   1.013  0.00  0.00    +0.001 A 
ATOM      4  C   UNL     1       1.019   1.871   1.029  0.00  0.00    +0.004 A 
ATOM      5  C   UNL     1       1.037   3.232   0.786  0.00  0.00    +0.047 A 
ATOM      6  C   UNL     1      -0.143   3.907   0.523  0.00  0.00    +0.141 A 
ENDROOT
BRANCH   1   8
ATOM      7  N   UNL     1      -3.749   3.279   0.306  0.00  0.00    -0.174 NA
ATOM      8  C   UNL     1      -2.619   3.912   0.226  0.00  0.00    +0.143 C 
BRANCH   7   9
ATOM      9  N   UNL     1      -4.939   3.921  -0.060  0.00  0.00    -0.137 N 
ATOM     10  H   UNL     1      -4.928   4.860  -0.304  0.00  0.00    +0.197 HD
BRANCH   9  11
ATOM     11  S   UNL     1      -6.364   3.078  -0.077  0.00  0.00    +0.086 S 
ATOM     12  O   UNL     1      -7.402   4.038  -0.215  0.00  0.00    -0.149 OA
ATOM     13  O   UNL     1      -6.190   2.005  -0.993  0.00  0.00    -0.149 OA
BRANCH  11  18
ATOM     14  C   UNL     1      -7.029   0.593   5.381  0.00  0.00    +0.044 C 
ATOM     15  C   UNL     1      -6.863   1.214   4.018  0.00  0.00    -0.050 A 
ATOM     16  C   UNL     1      -7.455   2.431   3.736  0.00  0.00    +0.005 A 
ATOM     17  C   UNL     1      -7.302   3.000   2.486  0.00  0.00    +0.029 A 
ATOM     18  C   UNL     1      -6.558   2.353   1.517  0.00  0.00    +0.110 A 
ATOM     19  C   UNL     1      -5.970   1.133   1.798  0.00  0.00    +0.029 A 
ATOM     20  C   UNL     1      -6.119   0.566   3.050  0.00  0.00    +0.005 A 
ENDBRANCH  11  18
ENDBRANCH   9  11
ENDBRANCH   7   9
ENDBRANCH   1   8
BRANCH   6  21
ATOM     21  O   UNL     1      -0.126   5.244   0.284  0.00  0.00    -0.421 OA
BRANCH  21  22
ATOM     22  C   UNL     1      -0.409   6.055   1.324  0.00  0.00    +0.353 C 
ATOM     23  O   UNL     1      -0.603   5.584   2.428  0.00  0.00    -0.244 OA
BRANCH  22  24
ATOM     24  C   UNL     1      -0.484   7.506   1.123  0.00  0.00    +0.116 A 
ATOM     25  C   UNL     1      -0.659   8.484   2.054  0.00  0.00    +0.070 A 
ATOM     26  C   UNL     1      -0.699   9.833   1.655  0.00  0.00    +0.008 A 
ATOM     27  C   UNL     1      -0.867  10.984   2.466  0.00  0.00    +0.010 A 
ATOM     28  C   UNL     1      -0.888  12.225   1.916  0.00  0.00    +0.001 A 
ATOM     29  C   UNL     1      -0.748  12.417   0.546  0.00  0.00    +0.001 A 
ATOM     30  C   UNL     1      -0.583  11.325  -0.280  0.00  0.00    +0.016 A 
ATOM     31  C   UNL     1      -0.558  10.058   0.265  0.00  0.00    +0.022 A 
ATOM     32  S   UNL     1      -0.374   8.424  -0.403  0.00  0.00    -0.080 S 
ATOM     33 CL   UNL     1      -0.829   8.068   3.731  0.00  0.00    -0.082 Cl
ENDBRANCH  22  24
ENDBRANCH  21  22
ENDBRANCH   6  21
TORSDOF 7
