REMARK  Name = ZINC16741689
REMARK  12 active torsions:
REMARK  status: ('A' for Active; 'I' for Inactive)
REMARK    1  A    between atoms: C_1  and  C_2
REMARK    2  A    between atoms: C_2  and  O_3
REMARK    3  A    between atoms: O_3  and  C_4
REMARK    4  A    between atoms: C_4  and  C_6
REMARK    5  A    between atoms: N_9  and  S_12
REMARK    6  A    between atoms: S_12  and  C_15
REMARK    7  A    between atoms: C_19  and  C_21
REMARK    8  A    between atoms: N_25  and  C_26
REMARK    9  A    between atoms: N_32  and  C_33
REMARK   10  A    between atoms: C_33  and  C_34
REMARK   11  A    between atoms: C_34  and  C_35
REMARK   12  A    between atoms: C_35  and  O_36
REMARK                            x       y       z     vdW  Elec       q    Type
REMARK                         _______ _______ _______ _____ _____    ______ ____
ROOT
ATOM      1  C   UNL     1       0.061   4.135   2.005  0.00  0.00    +0.106 A 
ATOM      2  C   UNL     1       1.013   4.708   1.181  0.00  0.00    +0.028 A 
ATOM      3  C   UNL     1       0.915   6.041   0.823  0.00  0.00    +0.003 A 
ATOM      4  C   UNL     1      -0.128   6.810   1.296  0.00  0.00    +0.010 A 
ATOM      5  C   UNL     1      -1.089   6.240   2.132  0.00  0.00    +0.001 A 
ATOM      6  C   UNL     1      -0.987   4.893   2.484  0.00  0.00    +0.038 A 
ENDROOT
BRANCH   5   7
ATOM      7  C   UNL     1      -2.209   7.059   2.642  0.00  0.00    +0.058 A 
ATOM      8  C   UNL     1      -2.978   7.764   1.788  0.00  0.00    +0.075 A 
ATOM      9  S   UNL     1      -4.145   8.545   2.891  0.00  0.00    -0.057 S 
ATOM     10  C   UNL     1      -3.518   7.880   4.425  0.00  0.00    +0.174 A 
ATOM     11  N   UNL     1      -3.949   8.077   5.657  0.00  0.00    -0.224 NA
ATOM     12  N   UNL     1      -2.469   7.109   3.985  0.00  0.00    -0.319 N 
BRANCH  11  13
ATOM     13  C   UNL     1      -5.084   8.808   5.876  0.00  0.00    +0.067 A 
ATOM     14  C   UNL     1      -4.996  10.172   6.166  0.00  0.00    +0.028 A 
ATOM     15  C   UNL     1      -6.145  10.903   6.379  0.00  0.00    +0.002 A 
ATOM     16  C   UNL     1      -7.383  10.287   6.318  0.00  0.00    +0.000 A 
ATOM     17  C   UNL     1      -7.477   8.935   6.038  0.00  0.00    +0.002 A 
ATOM     18  C   UNL     1      -6.337   8.192   5.816  0.00  0.00    +0.028 A 
ENDBRANCH  11  13
BRANCH  12  19
ATOM     19  C   UNL     1      -1.645   6.356   4.934  0.00  0.00    +0.126 C 
BRANCH  19  20
ATOM     20  C   UNL     1      -0.540   7.261   5.481  0.00  0.00    +0.049 C 
BRANCH  20  21
ATOM     21  C   UNL     1       0.320   6.475   6.472  0.00  0.00    +0.157 C 
BRANCH  21  22
ATOM     22  O   UNL     1       1.352   7.321   6.983  0.00  0.00    -0.395 OA
ATOM     23  H   UNL     1       1.938   6.887   7.619  0.00  0.00    +0.209 HD
ENDBRANCH  21  22
ENDBRANCH  20  21
ENDBRANCH  19  20
ENDBRANCH  12  19
ENDBRANCH   5   7
BRANCH   1  24
ATOM     24  S   UNL     1       0.192   2.435   2.449  0.00  0.00    +0.061 S 
ATOM     25  O   UNL     1      -0.516   2.279   3.672  0.00  0.00    -0.153 OA
ATOM     26  O   UNL     1       1.561   2.083   2.312  0.00  0.00    -0.153 OA
BRANCH  24  30
ATOM     27  C   UNL     1      -2.193   1.100  -1.010  0.00  0.00    +0.100 C 
ATOM     28  C   UNL     1      -0.734   1.544  -1.131  0.00  0.00    +0.032 C 
ATOM     29  C   UNL     1       0.043   1.073   0.103  0.00  0.00    +0.110 C 
ATOM     30  N   UNL     1      -0.637   1.566   1.309  0.00  0.00    -0.177 NA
ATOM     31  C   UNL     1      -2.070   1.272   1.479  0.00  0.00    +0.110 C 
ATOM     32  C   UNL     1      -2.822   1.740   0.229  0.00  0.00    +0.032 C 
BRANCH  27  33
ATOM     33  C   UNL     1      -2.953   1.532  -2.238  0.00  0.00    +0.310 C 
ATOM     34  O   UNL     1      -2.385   2.132  -3.119  0.00  0.00    -0.251 OA
BRANCH  33  35
ATOM     35  O   UNL     1      -4.260   1.248  -2.353  0.00  0.00    -0.465 OA
BRANCH  35  37
ATOM     36  C   UNL     1      -6.400   1.284  -3.514  0.00  0.00    +0.048 C 
ATOM     37  C   UNL     1      -4.927   1.695  -3.563  0.00  0.00    +0.229 C 
ENDBRANCH  35  37
ENDBRANCH  33  35
ENDBRANCH  27  33
ENDBRANCH  24  30
ENDBRANCH   1  24
TORSDOF 11
