REMARK  Name = ZINC17139852
REMARK  18 active torsions:
REMARK  status: ('A' for Active; 'I' for Inactive)
REMARK    1  A    between atoms: C_1  and  C_2
REMARK    2  A    between atoms: C_2  and  N_3
REMARK    3  A    between atoms: C_4  and  C_33
REMARK    4  A    between atoms: N_6  and  P_7
REMARK    5  A    between atoms: P_7  and  O_9
REMARK    6  A    between atoms: P_7  and  O_21
REMARK    7  A    between atoms: O_9  and  C_10
REMARK    8  A    between atoms: C_12  and  C_19
REMARK    9  A    between atoms: C_12  and  C_20
REMARK   10  A    between atoms: N_13  and  O_18
REMARK   11  A    between atoms: C_14  and  C_16
REMARK   12  A    between atoms: C_14  and  C_17
REMARK   13  A    between atoms: O_21  and  C_22
REMARK   14  A    between atoms: C_24  and  C_31
REMARK   15  A    between atoms: C_24  and  C_32
REMARK   16  A    between atoms: N_25  and  O_30
REMARK   17  A    between atoms: C_26  and  C_28
REMARK   18  A    between atoms: C_26  and  C_29
REMARK                            x       y       z     vdW  Elec       q    Type
REMARK                         _______ _______ _______ _____ _____    ______ ____
ROOT
ATOM      1  P   UNL     1       2.212   3.247  -1.969  0.00  0.00    +0.261 P 
ATOM      2  S   UNL     1       4.003   3.218  -1.455  0.00  0.00    +0.010 S 
ENDROOT
BRANCH   1   5
ATOM      3  N   UNL     1       2.732   0.882  -2.886  0.00  0.00    -0.213 NA
ATOM      4  C   UNL     1       3.174   1.825  -3.922  0.00  0.00    +0.163 C 
ATOM      5  N   UNL     1       1.950   2.078  -3.151  0.00  0.00    -0.149 NA
ATOM      6  C   UNL     1       4.396   2.693  -3.616  0.00  0.00    +0.044 C 
BRANCH   3   8
ATOM      7  C   UNL     1       3.776  -0.339  -1.038  0.00  0.00    +0.022 C 
ATOM      8  C   UNL     1       3.529   1.036  -1.661  0.00  0.00    +0.101 C 
ENDBRANCH   3   8
ENDBRANCH   1   5
BRANCH   1   9
ATOM      9  O   UNL     1       1.847   4.699  -2.559  0.00  0.00    -0.315 OA
BRANCH   9  10
ATOM     10  C   UNL     1       2.261   5.141  -3.857  0.00  0.00    +0.130 C 
ATOM     11  C   UNL     1       3.096   6.413  -3.712  0.00  0.00    +0.056 C 
ATOM     12  C   UNL     1       3.532   6.922  -5.084  0.00  0.00    +0.044 C 
ATOM     13  N   UNL     1       2.440   7.002  -6.031  0.00  0.00    -0.180 NA
ATOM     14  C   UNL     1       1.438   5.958  -6.080  0.00  0.00    +0.044 C 
ATOM     15  C   UNL     1       1.025   5.463  -4.696  0.00  0.00    +0.056 C 
ATOM     16  C   UNL     1       1.914   4.773  -6.928  0.00  0.00    +0.030 C 
ATOM     17  C   UNL     1       0.177   6.532  -6.764  0.00  0.00    +0.030 C 
ATOM     18  C   UNL     1       4.666   6.040  -5.621  0.00  0.00    +0.030 C 
ATOM     19  C   UNL     1       4.110   8.342  -4.892  0.00  0.00    +0.030 C 
BRANCH  13  20
ATOM     20  O   UNL     1       2.893   7.396  -7.365  0.00  0.00    -0.311 OA
ATOM     21  H   UNL     1       3.564   8.093  -7.363  0.00  0.00    +0.237 HD
ENDBRANCH  13  20
ENDBRANCH   9  10
ENDBRANCH   1   9
BRANCH   1  22
ATOM     22  O   UNL     1       1.282   2.936  -0.692  0.00  0.00    -0.315 OA
BRANCH  22  23
ATOM     23  C   UNL     1       0.386   1.820  -0.632  0.00  0.00    +0.130 C 
ATOM     24  C   UNL     1      -1.004   2.312  -0.230  0.00  0.00    +0.056 C 
ATOM     25  C   UNL     1      -1.976   1.139  -0.135  0.00  0.00    +0.044 C 
ATOM     26  N   UNL     1      -1.459   0.038   0.649  0.00  0.00    -0.180 NA
ATOM     27  C   UNL     1      -0.071  -0.355   0.529  0.00  0.00    +0.044 C 
ATOM     28  C   UNL     1       0.879   0.836   0.428  0.00  0.00    +0.056 C 
ATOM     29  C   UNL     1       0.140  -1.282  -0.674  0.00  0.00    +0.030 C 
ATOM     30  C   UNL     1       0.316  -1.153   1.794  0.00  0.00    +0.030 C 
ATOM     31  C   UNL     1      -2.365   0.681  -1.546  0.00  0.00    +0.030 C 
ATOM     32  C   UNL     1      -3.262   1.656   0.548  0.00  0.00    +0.030 C 
BRANCH  26  33
ATOM     33  O   UNL     1      -2.361  -1.114   0.647  0.00  0.00    -0.311 OA
ATOM     34  H   UNL     1      -3.297  -0.881   0.726  0.00  0.00    +0.237 HD
ENDBRANCH  26  33
ENDBRANCH  22  23
ENDBRANCH   1  22
TORSDOF 8
