REMARK  Name = ZINC54201584
REMARK  8 active torsions:
REMARK  status: ('A' for Active; 'I' for Inactive)
REMARK    1  A    between atoms: C_1  and  O_2
REMARK    2  A    between atoms: O_2  and  C_3
REMARK    3  A    between atoms: C_6  and  C_9
REMARK    4  A    between atoms: C_12  and  C_15
REMARK    5  A    between atoms: C_27  and  C_28
REMARK    6  A    between atoms: C_31  and  O_36
REMARK    7  A    between atoms: C_32  and  O_34
REMARK    8  A    between atoms: O_34  and  C_35
REMARK                            x       y       z     vdW  Elec       q    Type
REMARK                         _______ _______ _______ _____ _____    ______ ____
ROOT
ATOM      1  C   UNL     1       0.473  -2.376   6.057  0.00  0.00    +0.069 C 
ATOM      2  N   UNL     1       1.419  -1.806   6.721  0.00  0.00    -0.182 NA
ATOM      3  N   UNL     1       2.114  -2.662   7.572  0.00  0.00    -0.195 N 
ATOM      4  C   UNL     1       1.542  -4.013   7.458  0.00  0.00    +0.136 C 
ATOM      5  C   UNL     1       0.410  -3.841   6.427  0.00  0.00    +0.087 C 
ATOM      6  C   UNL     1       3.159  -2.305   8.383  0.00  0.00    +0.174 C 
ATOM      7  N   UNL     1       3.860  -3.071   9.205  0.00  0.00    -0.152 NA
ATOM      8  C   UNL     1       4.847  -2.602   9.935  0.00  0.00    +0.276 C 
ATOM      9  O   UNL     1       5.487  -3.318  10.689  0.00  0.00    -0.267 OA
ATOM     10  C   UNL     1       5.142  -1.157   9.792  0.00  0.00    +0.079 C 
ATOM     11  C   UNL     1       6.087  -0.398  10.403  0.00  0.00    +0.028 C 
ATOM     12  S   UNL     1       3.909  -0.697   8.580  0.00  0.00    -0.050 S 
ENDROOT
BRANCH   4  13
ATOM     13  C   UNL     1       2.579  -4.988   6.961  0.00  0.00    -0.025 A 
ATOM     14  C   UNL     1       3.487  -4.597   5.995  0.00  0.00    +0.007 A 
ATOM     15  C   UNL     1       4.438  -5.490   5.538  0.00  0.00    +0.020 A 
ATOM     16  C   UNL     1       4.481  -6.775   6.048  0.00  0.00    +0.041 A 
ATOM     17  C   UNL     1       3.572  -7.166   7.015  0.00  0.00    +0.020 A 
ATOM     18  C   UNL     1       2.625  -6.270   7.475  0.00  0.00    +0.007 A 
ATOM     19 CL   UNL     1       5.675  -7.897   5.475  0.00  0.00    -0.084 Cl
ENDBRANCH   4  13
BRANCH   1  23
ATOM     20  C   UNL     1      -2.080  -0.438   3.274  0.00  0.00    +0.120 A 
ATOM     21  C   UNL     1      -1.090   0.286   3.926  0.00  0.00    +0.046 A 
ATOM     22  C   UNL     1      -0.259  -0.339   4.830  0.00  0.00    +0.013 A 
ATOM     23  C   UNL     1      -0.414  -1.703   5.091  0.00  0.00    -0.002 A 
ATOM     24  C   UNL     1      -1.412  -2.427   4.434  0.00  0.00    +0.013 A 
ATOM     25  C   UNL     1      -2.241  -1.793   3.535  0.00  0.00    +0.046 A 
BRANCH  20  27
ATOM     26  C   UNL     1      -2.677   1.577   2.163  0.00  0.00    +0.277 C 
ATOM     27  O   UNL     1      -2.898   0.182   2.384  0.00  0.00    -0.495 OA
ENDBRANCH  20  27
ENDBRANCH   1  23
BRANCH  11  28
ATOM     28  C   UNL     1       6.073   1.061  10.241  0.00  0.00    -0.020 A 
ATOM     29  C   UNL     1       4.989   1.688   9.615  0.00  0.00    +0.012 A 
ATOM     30  C   UNL     1       4.979   3.058   9.465  0.00  0.00    +0.050 A 
ATOM     31  C   UNL     1       6.042   3.819   9.932  0.00  0.00    +0.158 A 
ATOM     32  C   UNL     1       7.126   3.202  10.556  0.00  0.00    +0.162 A 
ATOM     33  C   UNL     1       7.142   1.831  10.718  0.00  0.00    +0.057 A 
BRANCH  32  34
ATOM     34  O   UNL     1       8.165   3.952  11.011  0.00  0.00    -0.491 OA
ATOM     35  C   UNL     1       9.242   3.254  11.640  0.00  0.00    +0.277 C 
ENDBRANCH  32  34
BRANCH  31  36
ATOM     36  O   UNL     1       6.027   5.169   9.780  0.00  0.00    -0.503 OA
ATOM     37  H   UNL     1       5.619   5.643  10.518  0.00  0.00    +0.292 HD
ENDBRANCH  31  36
ENDBRANCH  11  28
TORSDOF 6
