REMARK  Name = ZINC63425106
REMARK  13 active torsions:
REMARK  status: ('A' for Active; 'I' for Inactive)
REMARK    1  A    between atoms: C_1  and  C_2
REMARK    2  A    between atoms: C_5  and  C_8
REMARK    3  A    between atoms: C_8  and  S_9
REMARK    4  A    between atoms: S_9  and  C_10
REMARK    5  A    between atoms: C_14  and  C_17
REMARK    6  A    between atoms: C_17  and  C_19
REMARK    7  A    between atoms: C_17  and  N_29
REMARK    8  A    between atoms: C_19  and  C_20
REMARK    9  A    between atoms: C_30  and  O_32
REMARK   10  A    between atoms: O_32  and  C_33
REMARK   11  A    between atoms: C_33  and  C_34
REMARK   12  A    between atoms: C_33  and  C_35
REMARK   13  A    between atoms: C_33  and  C_36
REMARK                            x       y       z     vdW  Elec       q    Type
REMARK                         _______ _______ _______ _____ _____    ______ ____
ROOT
ATOM      1  C   UNL     1       0.422  -9.459  -1.571  0.00  0.00    +0.125 C 
ENDROOT
BRANCH   1   5
ATOM      2  C   UNL     1       1.628  -6.666  -0.043  0.00  0.00    +0.263 C 
ATOM      3  N   UNL     1       0.835  -7.126   1.127  0.00  0.00    -0.218 NA
ATOM      4  N   UNL     1       0.319  -8.426   0.665  0.00  0.00    -0.225 NA
ATOM      5  C   UNL     1       0.054  -8.205  -0.775  0.00  0.00    +0.223 C 
ATOM      6  O   UNL     1       0.875  -7.101  -1.190  0.00  0.00    -0.330 OA
ATOM      7  H   UNL     1       0.079  -6.487   1.325  0.00  0.00    +0.144 HD
ATOM      8  H   UNL     1       1.004  -9.155   0.799  0.00  0.00    +0.143 HD
BRANCH   2   9
ATOM      9  S   UNL     1       1.777  -4.858  -0.034  0.00  0.00    -0.108 S 
BRANCH   9  10
ATOM     10  C   UNL     1       0.059  -4.275  -0.021  0.00  0.00    +0.108 C 
BRANCH  10  15
ATOM     11  C   UNL     1      -0.018   1.503   0.010  0.00  0.00    +0.044 C 
ATOM     12  C   UNL     1       0.002  -0.004   0.002  0.00  0.00    -0.050 A 
ATOM     13  C   UNL     1       0.006  -0.689  -1.199  0.00  0.00    +0.003 A 
ATOM     14  C   UNL     1       0.025  -2.071  -1.206  0.00  0.00    +0.005 A 
ATOM     15  C   UNL     1       0.040  -2.768  -0.013  0.00  0.00    -0.037 A 
ATOM     16  C   UNL     1       0.037  -2.084   1.188  0.00  0.00    +0.005 A 
ATOM     17  C   UNL     1       0.023  -0.702   1.195  0.00  0.00    +0.003 A 
ENDBRANCH  10  15
ENDBRANCH   9  10
ENDBRANCH   2   9
ENDBRANCH   1   5
BRANCH   1  18
ATOM     18  N   UNL     1      -0.382 -10.590  -1.100  0.00  0.00    -0.274 N 
ATOM     19  C   UNL     1      -1.726 -10.539  -1.176  0.00  0.00    +0.401 C 
ATOM     20  O   UNL     1      -2.272  -9.555  -1.635  0.00  0.00    -0.226 OA
ATOM     21  H   UNL     1       0.054 -11.375  -0.734  0.00  0.00    +0.152 HD
BRANCH  19  22
ATOM     22  O   UNL     1      -2.465 -11.578  -0.743  0.00  0.00    -0.445 OA
BRANCH  22  23
ATOM     23  C   UNL     1      -3.884 -11.456  -0.853  0.00  0.00    +0.107 C 
ATOM     24  C   UNL     1      -4.267 -11.264  -2.322  0.00  0.00    +0.055 C 
ATOM     25  C   UNL     1      -4.549 -12.725  -0.315  0.00  0.00    +0.055 C 
ATOM     26  C   UNL     1      -4.357 -10.249  -0.041  0.00  0.00    +0.055 C 
ENDBRANCH  22  23
ENDBRANCH  19  22
ENDBRANCH   1  18
BRANCH   1  27
ATOM     27  C   UNL     1       0.144  -9.220  -3.057  0.00  0.00    +0.059 C 
BRANCH  27  28
ATOM     28  C   UNL     1       0.620 -10.407  -3.854  0.00  0.00    -0.040 C 
ATOM     29  C   UNL     1      -0.121 -11.463  -4.262  0.00  0.00    -0.001 A 
ATOM     30  C   UNL     1      -1.537 -11.809  -4.090  0.00  0.00    +0.010 A 
ATOM     31  C   UNL     1      -1.999 -12.962  -4.624  0.00  0.00    +0.001 A 
ATOM     32  C   UNL     1      -1.162 -13.833  -5.336  0.00  0.00    +0.002 A 
ATOM     33  C   UNL     1       0.149 -13.583  -5.535  0.00  0.00    +0.026 A 
ATOM     34  C   UNL     1       0.742 -12.398  -5.018  0.00  0.00    +0.043 A 
ATOM     35  N   UNL     1       1.968 -11.939  -5.075  0.00  0.00    -0.380 N 
ATOM     36  C   UNL     1       2.021 -10.655  -4.367  0.00  0.00    +0.144 C 
ATOM     37  H   UNL     1       2.715 -12.373  -5.516  0.00  0.00    +0.160 HD
ENDBRANCH  27  28
ENDBRANCH   1  27
TORSDOF 9
