REMARK  Name = ZINC08586074
REMARK  6 active torsions:
REMARK  status: ('A' for Active; 'I' for Inactive)
REMARK    1  A    between atoms: C_4  and  C_7
REMARK    2  A    between atoms: C_7  and  N_8
REMARK    3  A    between atoms: N_22  and  C_37
REMARK    4  A    between atoms: C_25  and  O_27
REMARK    5  A    between atoms: C_32  and  O_35
REMARK    6  A    between atoms: C_37  and  C_38
REMARK                            x       y       z     vdW  Elec       q    Type
REMARK                         _______ _______ _______ _____ _____    ______ ____
ROOT
ATOM      1  N   UNL     1       4.168  -0.909   1.464  0.00  0.00    -0.336 N 
ATOM      2  C   UNL     1       5.051  -0.085   2.109  0.00  0.00    +0.050 A 
ATOM      3  C   UNL     1       5.605   1.140   1.747  0.00  0.00    +0.026 A 
ATOM      4  C   UNL     1       6.485   1.723   2.642  0.00  0.00    +0.002 A 
ATOM      5  C   UNL     1       6.809   1.125   3.849  0.00  0.00    +0.001 A 
ATOM      6  C   UNL     1       6.279  -0.080   4.234  0.00  0.00    +0.010 A 
ATOM      7  C   UNL     1       5.383  -0.697   3.350  0.00  0.00    +0.004 A 
ATOM      8  C   UNL     1       4.646  -1.921   3.395  0.00  0.00    -0.013 A 
ATOM      9  C   UNL     1       3.901  -1.988   2.224  0.00  0.00    +0.065 A 
ATOM     10  C   UNL     1       3.022  -3.161   2.179  0.00  0.00    +0.233 C 
ATOM     11  C   UNL     1       3.856  -4.419   2.423  0.00  0.00    +0.068 C 
ATOM     12  C   UNL     1       4.612  -5.103   1.297  0.00  0.00    -0.000 C 
ATOM     13  C   UNL     1       4.900  -6.513   1.863  0.00  0.00    -0.077 C 
ATOM     14  N   UNL     1       5.554  -6.524   3.161  0.00  0.00    +0.384 N 
ATOM     15  C   UNL     1       4.909  -5.694   4.220  0.00  0.00    -0.031 C 
ATOM     16  C   UNL     1       4.832  -4.319   3.577  0.00  0.00    +0.072 C 
ATOM     17  C   UNL     1       4.575  -3.071   4.394  0.00  0.00    +0.071 C 
ATOM     18  C   UNL     1       3.596  -6.348   4.622  0.00  0.00    +0.023 C 
ATOM     19  C   UNL     1       2.483  -6.171   3.650  0.00  0.00    -0.041 A 
ATOM     20  C   UNL     1       2.644  -5.266   2.690  0.00  0.00    +0.014 A 
ATOM     21  C   UNL     1       1.667  -4.802   1.798  0.00  0.00    +0.167 A 
ATOM     22  C   UNL     1       0.459  -5.487   1.786  0.00  0.00    +0.159 A 
ATOM     23  C   UNL     1       0.315  -6.527   2.708  0.00  0.00    +0.049 A 
ATOM     24  C   UNL     1       1.273  -6.834   3.603  0.00  0.00    +0.007 A 
ATOM     25  O   UNL     1       2.136  -3.656   1.183  0.00  0.00    -0.478 OA
ATOM     26  H   UNL     1       6.502  -6.201   3.040  0.00  0.00    -0.081 HD
ENDROOT
BRANCH  16  27
ATOM     27  O   UNL     1       6.106  -4.104   2.968  0.00  0.00    -0.389 OA
ATOM     28  H   UNL     1       6.835  -4.021   3.598  0.00  0.00    +0.210 HD
ENDBRANCH  16  27
BRANCH  22  29
ATOM     29  O   UNL     1      -0.536  -5.161   0.919  0.00  0.00    -0.503 OA
ATOM     30  H   UNL     1      -0.495  -5.636   0.077  0.00  0.00    +0.292 HD
ENDBRANCH  22  29
BRANCH   1  31
ATOM     31  C   UNL     1       3.592  -0.651   0.141  0.00  0.00    +0.157 C 
BRANCH  31  35
ATOM     32  C   UNL     1      -0.031   1.570   0.572  0.00  0.00    +0.000 A 
ATOM     33  C   UNL     1       1.173   2.233   0.434  0.00  0.00    +0.000 A 
ATOM     34  C   UNL     1       2.346   1.515   0.295  0.00  0.00    +0.005 A 
ATOM     35  C   UNL     1       2.314   0.133   0.294  0.00  0.00    -0.028 A 
ATOM     36  C   UNL     1       1.109  -0.531   0.433  0.00  0.00    +0.005 A 
ATOM     37  C   UNL     1      -0.064   0.188   0.571  0.00  0.00    +0.000 A 
ENDBRANCH  31  35
ENDBRANCH   1  31
BRANCH  14  38
ATOM     38  C   UNL     1       5.607  -7.914   3.636  0.00  0.00    -0.075 C 
BRANCH  38  39
ATOM     39  C   UNL     1       6.532  -8.727   2.728  0.00  0.00    -0.028 C 
ATOM     40  C   UNL     1       5.909  -9.874   1.930  0.00  0.00    +0.002 C 
ATOM     41  C   UNL     1       6.815 -10.178   3.126  0.00  0.00    +0.002 C 
ENDBRANCH  38  39
ENDBRANCH  14  38
TORSDOF 6
