REMARK  Name = ZINC01768808
REMARK  17 active torsions:
REMARK  status: ('A' for Active; 'I' for Inactive)
REMARK    1  A    between atoms: C_1  and  C_2
REMARK    2  A    between atoms: C_5  and  S_8
REMARK    3  A    between atoms: S_8  and  N_11
REMARK    4  A    between atoms: N_11  and  C_12
REMARK    5  A    between atoms: N_11  and  C_25
REMARK    6  A    between atoms: C_12  and  C_13
REMARK    7  A    between atoms: C_13  and  C_15
REMARK    8  A    between atoms: C_13  and  O_24
REMARK    9  A    between atoms: C_15  and  N_72
REMARK   10  A    between atoms: C_16  and  C_17
REMARK   11  A    between atoms: C_16  and  N_72
REMARK   12  A    between atoms: C_17  and  C_18
REMARK   13  A    between atoms: C_17  and  C_19
REMARK   14  A    between atoms: C_20  and  C_21
REMARK   15  A    between atoms: C_20  and  N_72
REMARK   16  A    between atoms: C_21  and  C_22
REMARK   17  A    between atoms: C_21  and  C_23
REMARK                            x       y       z     vdW  Elec       q    Type
REMARK                         _______ _______ _______ _____ _____    ______ ____
ROOT
ATOM      1  N   UNL     1      -3.985   4.618  -0.188  0.00  0.00    -0.200 N 
ENDROOT
BRANCH   1   2
ATOM      2  C   UNL     1      -2.992   3.733  -0.604  0.00  0.00    +0.059 A 
ATOM      3  C   UNL     1      -3.269   2.389  -0.738  0.00  0.00    +0.025 A 
ATOM      4  C   UNL     1      -2.283   1.497  -1.147  0.00  0.00    +0.002 A 
ATOM      5  C   UNL     1      -1.023   1.926  -1.437  0.00  0.00    +0.008 A 
ATOM      6  C   UNL     1      -0.701   3.288  -1.318  0.00  0.00    -0.016 A 
ATOM      7  C   UNL     1      -1.695   4.206  -0.897  0.00  0.00    +0.005 A 
ATOM      8  C   UNL     1      -1.372   5.567  -0.780  0.00  0.00    +0.010 A 
ATOM      9  C   UNL     1      -0.110   5.987  -1.072  0.00  0.00    +0.001 A 
ATOM     10  C   UNL     1       0.868   5.085  -1.486  0.00  0.00    +0.001 A 
ATOM     11  C   UNL     1       0.591   3.759  -1.611  0.00  0.00    +0.008 A 
ENDBRANCH   1   2
BRANCH   1  12
ATOM     12  S   UNL     1      -4.878   5.447  -1.310  0.00  0.00    +0.075 S 
ATOM     13  O   UNL     1      -5.366   6.612  -0.660  0.00  0.00    -0.150 OA
ATOM     14  O   UNL     1      -4.091   5.506  -2.492  0.00  0.00    -0.150 OA
BRANCH  12  19
ATOM     15  C   UNL     1      -9.696   2.057  -2.615  0.00  0.00    +0.044 C 
ATOM     16  C   UNL     1      -8.492   2.903  -2.289  0.00  0.00    -0.050 A 
ATOM     17  C   UNL     1      -8.553   3.823  -1.259  0.00  0.00    +0.005 A 
ATOM     18  C   UNL     1      -7.449   4.600  -0.960  0.00  0.00    +0.029 A 
ATOM     19  C   UNL     1      -6.285   4.457  -1.691  0.00  0.00    +0.109 A 
ATOM     20  C   UNL     1      -6.226   3.540  -2.724  0.00  0.00    +0.029 A 
ATOM     21  C   UNL     1      -7.328   2.760  -3.020  0.00  0.00    +0.005 A 
ENDBRANCH  12  19
ENDBRANCH   1  12
BRANCH   1  22
ATOM     22  C   UNL     1      -4.239   4.815   1.241  0.00  0.00    +0.161 C 
BRANCH  22  23
ATOM     23  C   UNL     1      -3.276   5.869   1.790  0.00  0.00    +0.117 C 
BRANCH  23  24
ATOM     24  O   UNL     1      -1.930   5.428   1.602  0.00  0.00    -0.392 OA
ATOM     25  H   UNL     1      -1.724   4.594   2.046  0.00  0.00    +0.210 HD
ENDBRANCH  23  24
BRANCH  23  26
ATOM     26  C   UNL     1      -3.542   6.074   3.283  0.00  0.00    -0.046 C 
BRANCH  26  27
ATOM     27  N   UNL     1      -2.734   7.219   3.755  0.00  0.00    +0.382 N 
ATOM     28  H   UNL     1      -2.808   7.983   3.073  0.00  0.00    -0.082 HD
BRANCH  27  29
ATOM     29  C   UNL     1      -3.241   7.690   5.061  0.00  0.00    -0.076 C 
BRANCH  29  30
ATOM     30  C   UNL     1      -2.690   9.093   5.324  0.00  0.00    -0.034 C 
ATOM     31  C   UNL     1      -3.217  10.056   4.259  0.00  0.00    +0.005 C 
ATOM     32  C   UNL     1      -3.140   9.566   6.708  0.00  0.00    +0.005 C 
ENDBRANCH  29  30
ENDBRANCH  27  29
BRANCH  27  33
ATOM     33  C   UNL     1      -1.316   6.821   3.877  0.00  0.00    -0.076 C 
BRANCH  33  34
ATOM     34  C   UNL     1      -1.202   5.435   4.517  0.00  0.00    -0.034 C 
ATOM     35  C   UNL     1       0.266   5.005   4.544  0.00  0.00    +0.005 C 
ATOM     36  C   UNL     1      -1.746   5.488   5.946  0.00  0.00    +0.005 C 
ENDBRANCH  33  34
ENDBRANCH  27  33
ENDBRANCH  26  27
ENDBRANCH  23  26
ENDBRANCH  22  23
ENDBRANCH   1  22
TORSDOF 12
