REMARK  Name = ZINC51147678
REMARK  5 active torsions:
REMARK  status: ('A' for Active; 'I' for Inactive)
REMARK    1  A    between atoms: C_3  and  N_19
REMARK    2  A    between atoms: C_4  and  C_10
REMARK    3  A    between atoms: C_6  and  N_7
REMARK    4  A    between atoms: C_10  and  N_11
REMARK    5  A    between atoms: N_19  and  N_20
REMARK                            x       y       z     vdW  Elec       q    Type
REMARK                         _______ _______ _______ _____ _____    ______ ____
ROOT
ATOM      1  C   UNL     1      -0.385   0.859   0.440  0.00  0.00    +0.034 A 
ATOM      2  C   UNL     1       0.684   1.699   0.194  0.00  0.00    +0.027 A 
ATOM      3  C   UNL     1       1.976   1.190   0.180  0.00  0.00    +0.046 A 
ATOM      4  C   UNL     1       2.189  -0.164   0.412  0.00  0.00    -0.004 A 
ATOM      5  C   UNL     1       1.116  -0.997   0.657  0.00  0.00    +0.040 A 
ATOM      6  C   UNL     1      -0.170  -0.487   0.671  0.00  0.00    +0.127 A 
ENDROOT
BRANCH   6   7
ATOM      7  N   UNL     1      -1.318  -1.384   0.933  0.00  0.00    +0.056 N 
ATOM      8  O   UNL     1      -2.442  -0.939   0.945  0.00  0.00    -0.126 OA
ATOM      9  O   UNL     1      -1.131  -2.561   1.135  0.00  0.00    -0.126 OA
ENDBRANCH   6   7
BRANCH   3  10
ATOM     10  N   UNL     1       3.059   2.036  -0.068  0.00  0.00    -0.283 N 
ATOM     11  H   UNL     1       3.952   1.668  -0.157  0.00  0.00    +0.166 HD
BRANCH  10  12
ATOM     12  N   UNL     1       2.861   3.382  -0.187  0.00  0.00    -0.257 NA
ATOM     13  H   UNL     1       2.404   3.754   0.632  0.00  0.00    +0.140 HD
ATOM     14  H   UNL     1       3.731   3.862  -0.364  0.00  0.00    +0.140 HD
ENDBRANCH  10  12
ENDBRANCH   3  10
BRANCH   4  15
ATOM     15  C   UNL     1       3.589  -0.721   0.397  0.00  0.00    +0.162 C 
BRANCH  15  16
ATOM     16  N   UNL     1       4.217  -0.498   1.702  0.00  0.00    -0.310 N 
ATOM     17  C   UNL     1       5.008   0.590   1.889  0.00  0.00    +0.104 A 
ATOM     18  C   UNL     1       5.598   0.817   3.086  0.00  0.00    +0.034 A 
ATOM     19  C   UNL     1       5.396  -0.077   4.147  0.00  0.00    +0.022 A 
ATOM     20  C   UNL     1       4.601  -1.170   3.957  0.00  0.00    +0.071 A 
ATOM     21  C   UNL     1       3.999  -1.372   2.703  0.00  0.00    +0.252 A 
ATOM     22  O   UNL     1       3.282  -2.343   2.520  0.00  0.00    -0.268 OA
ATOM     23 BR   UNL     1       6.696   2.338   3.327  0.00  0.00    -0.049 Br
ENDBRANCH  15  16
ENDBRANCH   4  15
TORSDOF 5
