REMARK  Name = ZINC16671482
REMARK  12 active torsions:
REMARK  status: ('A' for Active; 'I' for Inactive)
REMARK    1  A    between atoms: C_1  and  C_2
REMARK    2  A    between atoms: C_5  and  C_8
REMARK    3  A    between atoms: C_10  and  C_26
REMARK    4  A    between atoms: N_14  and  N_15
REMARK    5  A    between atoms: C_16  and  C_17
REMARK    6  A    between atoms: C_20  and  O_25
REMARK    7  A    between atoms: C_21  and  C_24
REMARK    8  A    between atoms: C_22  and  O_23
REMARK    9  A    between atoms: C_29  and  O_34
REMARK   10  A    between atoms: C_30  and  O_32
REMARK   11  A    between atoms: O_32  and  C_33
REMARK   12  A    between atoms: O_34  and  C_35
REMARK                            x       y       z     vdW  Elec       q    Type
REMARK                         _______ _______ _______ _____ _____    ______ ____
ROOT
ATOM      1  C   UNL     1      -1.198   3.564   0.033  0.00  0.00    +0.077 A 
ATOM      2  C   UNL     1      -1.230   2.169   0.020  0.00  0.00    +0.057 A 
ATOM      3  C   UNL     1      -0.018   1.478   0.010  0.00  0.00    +0.077 A 
ATOM      4  N   UNL     1       1.121   2.169   0.003  0.00  0.00    -0.213 NA
ATOM      5  C   UNL     1       1.111   3.493   0.010  0.00  0.00    +0.236 A 
ATOM      6  N   UNL     1      -0.019   4.184   0.025  0.00  0.00    -0.213 NA
ATOM      7  N   UNL     1       2.316   4.175   0.003  0.00  0.00    -0.205 N 
ATOM      8  H   UNL     1       3.152   3.683  -0.007  0.00  0.00    +0.177 HD
ENDROOT
BRANCH   1  13
ATOM      9  C   UNL     1      -6.091   6.599   0.095  0.00  0.00    +0.044 C 
ATOM     10  C   UNL     1      -4.811   5.805   0.079  0.00  0.00    -0.050 A 
ATOM     11  C   UNL     1      -3.593   6.461   0.071  0.00  0.00    +0.004 A 
ATOM     12  C   UNL     1      -2.417   5.739   0.056  0.00  0.00    +0.010 A 
ATOM     13  C   UNL     1      -2.458   4.346   0.049  0.00  0.00    +0.001 A 
ATOM     14  C   UNL     1      -3.688   3.690   0.051  0.00  0.00    +0.010 A 
ATOM     15  C   UNL     1      -4.857   4.422   0.072  0.00  0.00    +0.004 A 
ENDBRANCH   1  13
BRANCH   3  16
ATOM     16  C   UNL     1       0.002  -0.004   0.002  0.00  0.00    +0.004 A 
ATOM     17  C   UNL     1      -1.192  -0.718  -0.096  0.00  0.00    +0.014 A 
ATOM     18  C   UNL     1      -1.172  -2.097  -0.104  0.00  0.00    +0.050 A 
ATOM     19  C   UNL     1       0.034  -2.777  -0.016  0.00  0.00    +0.162 A 
ATOM     20  C   UNL     1       1.229  -2.069   0.082  0.00  0.00    +0.162 A 
ATOM     21  C   UNL     1       1.215  -0.686   0.086  0.00  0.00    +0.059 A 
BRANCH  20  22
ATOM     22  O   UNL     1       2.411  -2.738   0.168  0.00  0.00    -0.491 OA
ATOM     23  C   UNL     1       3.597  -1.948   0.266  0.00  0.00    +0.277 C 
ENDBRANCH  20  22
BRANCH  19  24
ATOM     24  O   UNL     1       0.049  -4.136  -0.025  0.00  0.00    -0.491 OA
ATOM     25  C   UNL     1      -1.213  -4.798  -0.128  0.00  0.00    +0.277 C 
ENDBRANCH  19  24
ENDBRANCH   3  16
BRANCH   7  26
ATOM     26  N   UNL     1       2.329   5.576   0.010  0.00  0.00    -0.187 NA
ATOM     27  C   UNL     1       3.458   6.215   0.003  0.00  0.00    +0.142 C 
BRANCH  27  28
ATOM     28  C   UNL     1       3.471   7.689   0.011  0.00  0.00    +0.036 A 
ATOM     29  C   UNL     1       4.686   8.379   0.010  0.00  0.00    +0.016 A 
ATOM     30  C   UNL     1       4.693   9.757   0.012  0.00  0.00    +0.046 A 
ATOM     31  C   UNL     1       3.497  10.463   0.026  0.00  0.00    +0.123 A 
ATOM     32  C   UNL     1       2.286   9.786   0.033  0.00  0.00    +0.033 A 
ATOM     33  C   UNL     1       2.265   8.403   0.026  0.00  0.00    +0.132 A 
ATOM     34  C   UNL     1       0.992  10.559   0.050  0.00  0.00    +0.051 C 
BRANCH  33  35
ATOM     35  O   UNL     1       1.080   7.739   0.034  0.00  0.00    -0.506 OA
ATOM     36  H   UNL     1       0.745   7.542   0.920  0.00  0.00    +0.292 HD
ENDBRANCH  33  35
BRANCH  31  37
ATOM     37  O   UNL     1       3.513  11.822   0.034  0.00  0.00    -0.506 OA
ATOM     38  H   UNL     1       3.525  12.210   0.919  0.00  0.00    +0.292 HD
ENDBRANCH  31  37
ENDBRANCH  27  28
ENDBRANCH   7  26
TORSDOF 8
