REMARK  Name = ZINC22789401
REMARK  5 active torsions:
REMARK  status: ('A' for Active; 'I' for Inactive)
REMARK    1  A    between atoms: C_6  and  C_7
REMARK    2  A    between atoms: C_16  and  C_18
REMARK    3  A    between atoms: C_18  and  N_19
REMARK    4  A    between atoms: N_22  and  C_25
REMARK    5  A    between atoms: C_25  and  C_26
REMARK                            x       y       z     vdW  Elec       q    Type
REMARK                         _______ _______ _______ _____ _____    ______ ____
ROOT
ATOM      1  C   UNL     1       2.583   1.473  -0.015  0.00  0.00    +0.004 A 
ATOM      2  C   UNL     1       3.593   2.376  -0.020  0.00  0.00    +0.056 A 
ATOM      3  S   UNL     1       2.745   3.943  -0.004  0.00  0.00    -0.076 S 
ATOM      4  C   UNL     1       1.071   3.356   0.010  0.00  0.00    +0.116 A 
ATOM      5  C   UNL     1       1.209   1.958   0.001  0.00  0.00    +0.080 A 
ATOM      6  C   UNL     1      -0.015   1.215   0.009  0.00  0.00    +0.260 A 
ATOM      7  O   UNL     1       0.002  -0.004   0.002  0.00  0.00    -0.267 OA
ATOM      8  N   UNL     1      -1.183   1.882   0.018  0.00  0.00    -0.312 N 
ATOM      9  H   UNL     1      -2.133   1.328   0.014  0.00  0.00    +0.170 HD
ATOM     10  C   UNL     1      -1.220   3.239   0.032  0.00  0.00    +0.094 A 
ATOM     11  N   UNL     1      -0.121   3.945   0.025  0.00  0.00    -0.229 NA
ENDROOT
BRANCH   1  17
ATOM     12  C   UNL     1       2.259  -0.822   0.903  0.00  0.00    +0.011 A 
ATOM     13  C   UNL     1       2.526  -2.176   0.886  0.00  0.00    +0.039 A 
ATOM     14  C   UNL     1       3.408  -2.699  -0.045  0.00  0.00    +0.123 A 
ATOM     15  C   UNL     1       4.022  -1.867  -0.967  0.00  0.00    +0.039 A 
ATOM     16  C   UNL     1       3.758  -0.512  -0.962  0.00  0.00    +0.011 A 
ATOM     17  C   UNL     1       2.871   0.018  -0.026  0.00  0.00    -0.016 A 
ATOM     18  F   UNL     1       3.670  -4.024  -0.055  0.00  0.00    -0.205 F 
ENDBRANCH   1  17
BRANCH  10  19
ATOM     19  C   UNL     1      -2.553   3.943   0.049  0.00  0.00    -0.003 C 
BRANCH  19  20
ATOM     20  N   UNL     1      -2.338   5.397   0.055  0.00  0.00    +0.386 N 
ATOM     21  C   UNL     1      -1.702   5.830   1.306  0.00  0.00    -0.063 C 
ATOM     22  C   UNL     1      -1.424   7.334   1.240  0.00  0.00    +0.066 C 
ATOM     23  N   UNL     1      -2.686   8.053   1.018  0.00  0.00    -0.302 NA
ATOM     24  C   UNL     1      -3.323   7.620  -0.234  0.00  0.00    +0.066 C 
ATOM     25  C   UNL     1      -3.601   6.116  -0.167  0.00  0.00    -0.063 C 
ATOM     26  H   UNL     1      -1.658   5.640  -0.775  0.00  0.00    -0.081 HD
BRANCH  23  27
ATOM     27  C   UNL     1      -2.472   9.507   1.024  0.00  0.00    +0.119 C 
BRANCH  27  28
ATOM     28  C   UNL     1      -1.605   9.882   2.198  0.00  0.00    -0.033 A 
ATOM     29  C   UNL     1      -2.183  10.202   3.413  0.00  0.00    +0.008 A 
ATOM     30  C   UNL     1      -1.394  10.545   4.491  0.00  0.00    +0.046 A 
ATOM     31  C   UNL     1      -0.007  10.583   4.362  0.00  0.00    +0.124 A 
ATOM     32  C   UNL     1       0.561  10.259   3.137  0.00  0.00    -0.002 A 
ATOM     33  C   UNL     1      -0.228   9.913   2.062  0.00  0.00    +0.012 A 
ATOM     34  C   UNL     1       2.065  10.371   3.301  0.00  0.00    +0.080 C 
ATOM     35  C   UNL     1       2.217  10.396   4.841  0.00  0.00    +0.234 C 
ATOM     36  O   UNL     1       0.946  10.907   5.278  0.00  0.00    -0.491 OA
ENDBRANCH  27  28
ENDBRANCH  23  27
ENDBRANCH  19  20
ENDBRANCH  10  19
TORSDOF 5
