REMARK  Name = ZINC38935931
REMARK  4 active torsions:
REMARK  status: ('A' for Active; 'I' for Inactive)
REMARK    1  A    between atoms: C_3  and  C_9
REMARK    2  A    between atoms: N_15  and  N_16
REMARK    3  A    between atoms: C_17  and  C_18
REMARK    4  A    between atoms: C_23  and  O_24
REMARK                            x       y       z     vdW  Elec       q    Type
REMARK                         _______ _______ _______ _____ _____    ______ ____
ROOT
ATOM      1  C   UNL     1       3.488   2.061  -0.212  0.00  0.00    +0.265 C 
ATOM      2  N   UNL     1       3.385   3.352  -0.910  0.00  0.00    -0.189 NA
ATOM      3  N   UNL     1       4.333   3.440  -1.695  0.00  0.00    -0.219 N 
ATOM      4  C   UNL     1       5.154   2.355  -1.674  0.00  0.00    +0.174 C 
ATOM      5  S   UNL     1       6.555   2.167  -2.640  0.00  0.00    -0.015 S 
ATOM      6  N   UNL     1       4.704   1.446  -0.776  0.00  0.00    -0.172 N 
ATOM      7  H   UNL     1       4.480   4.207  -2.270  0.00  0.00    +0.176 HD
ENDROOT
BRANCH   1  10
ATOM      8  C   UNL     1       1.171  -0.427  -1.854  0.00  0.00    +0.020 A 
ATOM      9  C   UNL     1       2.278   0.358  -1.590  0.00  0.00    +0.010 A 
ATOM     10  C   UNL     1       2.280   1.206  -0.499  0.00  0.00    +0.016 A 
ATOM     11  C   UNL     1       1.174   1.271   0.329  0.00  0.00    +0.049 A 
ATOM     12  C   UNL     1       0.066   0.487   0.065  0.00  0.00    +0.040 A 
ATOM     13  C   UNL     1       0.064  -0.363  -1.027  0.00  0.00    +0.042 A 
ATOM     14 CL   UNL     1      -1.326  -1.348  -1.359  0.00  0.00    -0.083 Cl
ATOM     15 CL   UNL     1       1.177   2.337   1.700  0.00  0.00    -0.083 Cl
ENDBRANCH   1  10
BRANCH   6  16
ATOM     16  N   UNL     1       5.263   0.202  -0.456  0.00  0.00    -0.183 NA
ATOM     17  C   UNL     1       4.761  -0.507   0.509  0.00  0.00    +0.142 C 
BRANCH  17  18
ATOM     18  C   UNL     1       5.378  -1.793   0.877  0.00  0.00    +0.037 A 
ATOM     19  C   UNL     1       4.913  -2.505   1.985  0.00  0.00    +0.028 A 
ATOM     20  C   UNL     1       5.495  -3.709   2.323  0.00  0.00    +0.019 A 
ATOM     21  C   UNL     1       6.539  -4.216   1.568  0.00  0.00    +0.019 A 
ATOM     22  C   UNL     1       7.009  -3.521   0.469  0.00  0.00    +0.047 A 
ATOM     23  C   UNL     1       6.432  -2.313   0.112  0.00  0.00    +0.126 A 
ATOM     24 BR   UNL     1       4.865  -4.671   3.824  0.00  0.00    -0.050 Br
BRANCH  23  25
ATOM     25  O   UNL     1       6.889  -1.633  -0.971  0.00  0.00    -0.506 OA
ATOM     26  H   UNL     1       7.646  -1.061  -0.785  0.00  0.00    +0.292 HD
ENDBRANCH  23  25
ENDBRANCH  17  18
ENDBRANCH   6  16
TORSDOF 4
