REMARK  Name = ZINC23830684
REMARK  14 active torsions:
REMARK  status: ('A' for Active; 'I' for Inactive)
REMARK    1  A    between atoms: C_1  and  C_2
REMARK    2  A    between atoms: C_4  and  C_34
REMARK    3  A    between atoms: C_5  and  N_9
REMARK    4  A    between atoms: C_6  and  C_8
REMARK    5  A    between atoms: C_10  and  C_12
REMARK    6  A    between atoms: C_12  and  N_13
REMARK    7  A    between atoms: N_13  and  C_14
REMARK    8  A    between atoms: N_13  and  C_15
REMARK    9  A    between atoms: C_15  and  C_16
REMARK   10  A    between atoms: N_18  and  C_19
REMARK   11  A    between atoms: C_20  and  C_30
REMARK   12  A    between atoms: C_25  and  C_29
REMARK   13  A    between atoms: C_30  and  O_32
REMARK   14  A    between atoms: O_32  and  C_33
REMARK                            x       y       z     vdW  Elec       q    Type
REMARK                         _______ _______ _______ _____ _____    ______ ____
ROOT
ATOM      1  C   UNL     1       1.148   1.589  -1.672  0.00  0.00    +0.019 C 
ENDROOT
BRANCH   1   2
ATOM      2  C   UNL     1       0.953   2.872  -2.439  0.00  0.00    +0.201 C 
ATOM      3  O   UNL     1      -0.141   3.157  -2.877  0.00  0.00    -0.278 OA
ATOM      4  N   UNL     1       1.995   3.704  -2.637  0.00  0.00    -0.281 N 
ATOM      5  H   UNL     1       2.988   3.446  -2.240  0.00  0.00    +0.155 HD
BRANCH   4   6
ATOM      6  C   UNL     1       1.816   4.884  -3.342  0.00  0.00    +0.086 A 
ATOM      7  C   UNL     1       2.756   5.861  -3.642  0.00  0.00    +0.091 A 
ATOM      8  C   UNL     1       2.306   7.013  -4.406  0.00  0.00    -0.021 A 
ATOM      9  C   UNL     1       0.996   7.008  -4.737  0.00  0.00    -0.004 A 
ATOM     10  S   UNL     1       0.363   5.501  -4.056  0.00  0.00    -0.077 S 
ATOM     11  C   UNL     1       0.256   8.054  -5.511  0.00  0.00    +0.046 C 
ATOM     12  C   UNL     1       1.284   8.962  -6.202  0.00  0.00    -0.009 C 
ATOM     13  C   UNL     1       2.347   9.372  -5.177  0.00  0.00    +0.008 C 
ATOM     14  C   UNL     1       3.214   8.165  -4.817  0.00  0.00    +0.037 C 
ATOM     15  C   UNL     1       0.585  10.211  -6.742  0.00  0.00    +0.008 C 
BRANCH   7  16
ATOM     16  C   UNL     1       4.148   5.735  -3.208  0.00  0.00    +0.342 C 
ATOM     17  O   UNL     1       4.961   5.182  -3.925  0.00  0.00    -0.245 OA
BRANCH  16  18
ATOM     18  O   UNL     1       4.530   6.231  -2.013  0.00  0.00    -0.464 OA
ATOM     19  C   UNL     1       5.926   6.069  -1.648  0.00  0.00    +0.280 C 
ENDBRANCH  16  18
ENDBRANCH   7  16
ENDBRANCH   4   6
ENDBRANCH   1   2
BRANCH   1  20
ATOM     20  N   UNL     1      -0.128   0.867  -1.594  0.00  0.00    +0.389 N 
ATOM     21  C   UNL     1      -0.561   0.417  -2.924  0.00  0.00    -0.095 C 
ATOM     22  H   UNL     1      -0.888   1.563  -1.209  0.00  0.00    -0.081 HD
BRANCH  20  23
ATOM     23  C   UNL     1      -0.037  -0.263  -0.660  0.00  0.00    +0.019 C 
BRANCH  23  25
ATOM     24  N   UNL     1      -1.576  -1.877   0.411  0.00  0.00    -0.287 N 
ATOM     25  C   UNL     1      -1.414  -0.827  -0.418  0.00  0.00    +0.201 C 
ATOM     26  O   UNL     1      -2.376  -0.336  -0.969  0.00  0.00    -0.278 OA
ATOM     27  H   UNL     1      -0.698  -2.361   0.864  0.00  0.00    +0.155 HD
BRANCH  24  32
ATOM     28  C   UNL     1      -6.785  -3.804   1.564  0.00  0.00    +0.044 C 
ATOM     29  C   UNL     1      -5.401  -3.292   1.258  0.00  0.00    -0.050 A 
ATOM     30  C   UNL     1      -4.424  -4.166   0.817  0.00  0.00    +0.008 A 
ATOM     31  C   UNL     1      -3.155  -3.700   0.536  0.00  0.00    -0.029 A 
ATOM     32  C   UNL     1      -2.861  -2.353   0.696  0.00  0.00    +0.039 A 
ATOM     33  C   UNL     1      -3.842  -1.479   1.144  0.00  0.00    -0.029 A 
ATOM     34  C   UNL     1      -5.111  -1.950   1.418  0.00  0.00    +0.008 A 
ATOM     35  C   UNL     1      -3.525  -0.016   1.325  0.00  0.00    +0.045 C 
ATOM     36  C   UNL     1      -2.091  -4.653   0.056  0.00  0.00    +0.045 C 
ENDBRANCH  24  32
ENDBRANCH  23  25
ENDBRANCH  20  23
ENDBRANCH   1  20
TORSDOF 8
