REMARK  Name = ZINC05635450
REMARK  4 active torsions:
REMARK  status: ('A' for Active; 'I' for Inactive)
REMARK    1  A    between atoms: C_4  and  C_7
REMARK    2  A    between atoms: C_9  and  C_24
REMARK    3  A    between atoms: N_11  and  C_18
REMARK    4  A    between atoms: C_27  and  O_30
REMARK                            x       y       z     vdW  Elec       q    Type
REMARK                         _______ _______ _______ _____ _____    ______ ____
ROOT
ATOM      1  C   UNL     1       3.699  -0.689  -0.037  0.00  0.00    +0.097 C 
ATOM      2  C   UNL     1       3.827  -2.001  -0.051  0.00  0.00    +0.018 C 
ATOM      3  C   UNL     1       3.416  -3.434  -0.295  0.00  0.00    +0.142 C 
ATOM      4  N   UNL     1       4.505  -3.949  -1.163  0.00  0.00    -0.258 N 
ATOM      5  C   UNL     1       5.632  -3.209  -0.969  0.00  0.00    +0.251 C 
ATOM      6  O   UNL     1       6.680  -3.331  -1.567  0.00  0.00    -0.272 OA
ATOM      7  C   UNL     1       5.340  -2.217   0.115  0.00  0.00    +0.244 C 
ATOM      8  N   UNL     1       5.878  -0.879  -0.021  0.00  0.00    -0.170 NA
ATOM      9  N   UNL     1       4.923  -0.086  -0.047  0.00  0.00    -0.153 NA
ENDROOT
BRANCH   1  13
ATOM     10  C   UNL     1      -0.017   1.379   0.010  0.00  0.00    +0.000 A 
ATOM     11  C   UNL     1       1.169   2.092   0.002  0.00  0.00    +0.001 A 
ATOM     12  C   UNL     1       2.377   1.426  -0.013  0.00  0.00    +0.010 A 
ATOM     13  C   UNL     1       2.402   0.033  -0.021  0.00  0.00    +0.002 A 
ATOM     14  C   UNL     1       1.205  -0.680  -0.013  0.00  0.00    +0.010 A 
ATOM     15  C   UNL     1       0.002  -0.004   0.002  0.00  0.00    +0.001 A 
ENDBRANCH   1  13
BRANCH   4  16
ATOM     16  C   UNL     1       4.390  -5.029  -2.045  0.00  0.00    +0.037 A 
ATOM     17  C   UNL     1       3.184  -5.707  -2.162  0.00  0.00    +0.023 A 
ATOM     18  C   UNL     1       3.074  -6.773  -3.033  0.00  0.00    +0.002 A 
ATOM     19  C   UNL     1       4.164  -7.166  -3.788  0.00  0.00    +0.000 A 
ATOM     20  C   UNL     1       5.367  -6.493  -3.674  0.00  0.00    +0.002 A 
ATOM     21  C   UNL     1       5.481  -5.422  -2.809  0.00  0.00    +0.023 A 
ENDBRANCH   4  16
BRANCH   3  22
ATOM     22  C   UNL     1       3.355  -4.199   1.001  0.00  0.00    -0.022 A 
ATOM     23  C   UNL     1       4.518  -4.678   1.575  0.00  0.00    +0.009 A 
ATOM     24  C   UNL     1       4.465  -5.381   2.764  0.00  0.00    +0.046 A 
ATOM     25  C   UNL     1       3.244  -5.606   3.381  0.00  0.00    +0.117 A 
ATOM     26  C   UNL     1       2.078  -5.124   2.804  0.00  0.00    +0.046 A 
ATOM     27  C   UNL     1       2.137  -4.417   1.618  0.00  0.00    +0.009 A 
BRANCH  25  28
ATOM     28  O   UNL     1       3.189  -6.297   4.550  0.00  0.00    -0.507 OA
ATOM     29  H   UNL     1       3.262  -5.742   5.339  0.00  0.00    +0.292 HD
ENDBRANCH  25  28
ENDBRANCH   3  22
TORSDOF 4
