REMARK  Name = ZINC21529302
REMARK  6 active torsions:
REMARK  status: ('A' for Active; 'I' for Inactive)
REMARK    1  A    between atoms: C_1  and  C_2
REMARK    2  A    between atoms: C_5  and  C_34
REMARK    3  A    between atoms: C_6  and  N_8
REMARK    4  A    between atoms: C_13  and  C_15
REMARK    5  A    between atoms: N_24  and  C_27
REMARK    6  A    between atoms: C_27  and  C_28
REMARK                            x       y       z     vdW  Elec       q    Type
REMARK                         _______ _______ _______ _____ _____    ______ ____
ROOT
ATOM      1  C   UNL     1      -2.206  -5.194   4.070  0.00  0.00    +0.265 C 
ATOM      2  O   UNL     1      -2.446  -5.582   5.198  0.00  0.00    -0.268 OA
ATOM      3  N   UNL     1      -2.886  -5.703   3.024  0.00  0.00    -0.260 N 
ATOM      4  C   UNL     1      -3.861  -6.668   3.233  0.00  0.00    +0.165 A 
ATOM      5  N   UNL     1      -4.257  -7.198   4.371  0.00  0.00    -0.229 NA
ATOM      6  C   UNL     1      -5.209  -8.121   4.420  0.00  0.00    +0.050 A 
ATOM      7  C   UNL     1      -5.734  -8.469   3.215  0.00  0.00    -0.002 A 
ATOM      8  S   UNL     1      -4.832  -7.442   2.092  0.00  0.00    -0.059 S 
ATOM      9  C   UNL     1      -6.804  -9.474   2.961  0.00  0.00    -0.033 C 
ATOM     10  N   UNL     1      -6.956 -10.302   4.173  0.00  0.00    +0.386 N 
ATOM     11  C   UNL     1      -7.084  -9.433   5.350  0.00  0.00    -0.072 C 
ATOM     12  C   UNL     1      -5.736  -8.785   5.685  0.00  0.00    +0.038 C 
ATOM     13  H   UNL     1      -2.695  -5.394   2.124  0.00  0.00    +0.157 HD
ATOM     14  H   UNL     1      -6.146 -10.894   4.279  0.00  0.00    -0.081 HD
ENDROOT
BRANCH   1  20
ATOM     15  N   UNL     1       0.050  -2.798   2.393  0.00  0.00    -0.160 N 
ATOM     16  C   UNL     1       1.006  -2.542   3.308  0.00  0.00    +0.240 C 
ATOM     17  O   UNL     1       1.853  -1.704   3.085  0.00  0.00    -0.273 OA
ATOM     18  C   UNL     1       1.018  -3.301   4.610  0.00  0.00    +0.104 C 
ATOM     19  C   UNL     1      -0.422  -3.613   5.025  0.00  0.00    +0.071 C 
ATOM     20  C   UNL     1      -1.176  -4.174   3.849  0.00  0.00    +0.122 C 
ATOM     21  N   UNL     1      -0.930  -3.763   2.644  0.00  0.00    -0.172 NA
BRANCH  15  27
ATOM     22  C   UNL     1      -0.018   1.503   0.010  0.00  0.00    +0.044 C 
ATOM     23  C   UNL     1       0.002  -0.004   0.002  0.00  0.00    -0.049 A 
ATOM     24  C   UNL     1       0.006  -0.688  -1.200  0.00  0.00    +0.004 A 
ATOM     25  C   UNL     1       0.024  -2.071  -1.212  0.00  0.00    +0.005 A 
ATOM     26  C   UNL     1       0.039  -2.773  -0.023  0.00  0.00    -0.027 A 
ATOM     27  C   UNL     1       0.035  -2.089   1.186  0.00  0.00    +0.063 A 
ATOM     28  C   UNL     1       0.023  -0.700   1.194  0.00  0.00    +0.029 A 
ATOM     29  C   UNL     1       0.059  -4.280  -0.037  0.00  0.00    +0.046 C 
ENDBRANCH  15  27
ENDBRANCH   1  20
BRANCH  10  30
ATOM     30  C   UNL     1      -8.158 -11.137   4.049  0.00  0.00    -0.043 C 
BRANCH  30  31
ATOM     31  C   UNL     1      -7.975 -12.115   2.917  0.00  0.00    -0.064 A 
ATOM     32  C   UNL     1      -8.358 -11.768   1.635  0.00  0.00    +0.002 A 
ATOM     33  C   UNL     1      -8.190 -12.666   0.597  0.00  0.00    +0.000 A 
ATOM     34  C   UNL     1      -7.639 -13.910   0.842  0.00  0.00    +0.000 A 
ATOM     35  C   UNL     1      -7.256 -14.257   2.124  0.00  0.00    +0.000 A 
ATOM     36  C   UNL     1      -7.420 -13.357   3.161  0.00  0.00    +0.002 A 
ENDBRANCH  30  31
ENDBRANCH  10  30
TORSDOF 4
