REMARK  Name = ZINC39682189
REMARK  10 active torsions:
REMARK  status: ('A' for Active; 'I' for Inactive)
REMARK    1  A    between atoms: C_1  and  C_2
REMARK    2  A    between atoms: C_4  and  C_7
REMARK    3  A    between atoms: C_7  and  N_8
REMARK    4  A    between atoms: C_9  and  C_11
REMARK    5  A    between atoms: C_22  and  C_24
REMARK    6  A    between atoms: C_24  and  C_26
REMARK    7  A    between atoms: C_24  and  O_29
REMARK    8  A    between atoms: C_26  and  C_27
REMARK    9  A    between atoms: C_26  and  C_28
REMARK   10  A    between atoms: O_29  and  C_30
REMARK                            x       y       z     vdW  Elec       q    Type
REMARK                         _______ _______ _______ _____ _____    ______ ____
ROOT
ATOM      1  C   UNL     1      -4.641  -4.776   2.812  0.00  0.00    +0.100 C 
ATOM      2  C   UNL     1      -3.421  -5.305   3.599  0.00  0.00    +0.121 C 
ATOM      3  N   UNL     1      -3.993  -6.261   4.577  0.00  0.00    -0.297 N 
ATOM      4  C   UNL     1      -5.057  -6.967   3.824  0.00  0.00    +0.115 C 
ATOM      5  C   UNL     1      -5.712  -5.870   2.961  0.00  0.00    -0.004 C 
ATOM      6  C   UNL     1      -6.088  -6.430   1.593  0.00  0.00    -0.010 C 
ATOM      7  C   UNL     1      -7.196  -7.474   1.761  0.00  0.00    -0.082 C 
ATOM      8  N   UNL     1      -8.364  -6.853   2.396  0.00  0.00    +0.379 N 
ATOM      9  C   UNL     1      -8.017  -6.400   3.748  0.00  0.00    -0.082 C 
ATOM     10  C   UNL     1      -6.944  -5.310   3.664  0.00  0.00    -0.010 C 
ATOM     11  C   UNL     1      -3.628  -6.446   5.861  0.00  0.00    +0.257 C 
ATOM     12  O   UNL     1      -2.792  -5.725   6.364  0.00  0.00    -0.272 OA
ATOM     13  H   UNL     1      -8.665  -6.063   1.845  0.00  0.00    -0.086 HD
ATOM     14  H   UNL     1      -9.114  -7.526   2.450  0.00  0.00    -0.086 HD
ENDROOT
BRANCH   1  16
ATOM     15  N   UNL     1      -4.992  -3.724   0.601  0.00  0.00    -0.309 N 
ATOM     16  C   UNL     1      -4.285  -4.584   1.360  0.00  0.00    +0.219 C 
ATOM     17  O   UNL     1      -3.362  -5.204   0.875  0.00  0.00    -0.275 OA
ATOM     18  H   UNL     1      -5.730  -3.228   0.989  0.00  0.00    +0.149 HD
BRANCH  15  19
ATOM     19  C   UNL     1      -4.646  -3.537  -0.810  0.00  0.00    +0.160 C 
BRANCH  19  23
ATOM     20  C   UNL     1      -8.937  -2.233  -3.031  0.00  0.00    +0.073 C 
ATOM     21  C   UNL     1      -7.569  -2.006  -2.441  0.00  0.00    +0.076 A 
ATOM     22  N   UNL     1      -6.758  -2.884  -1.905  0.00  0.00    -0.248 NA
ATOM     23  C   UNL     1      -5.582  -2.530  -1.428  0.00  0.00    +0.066 A 
ATOM     24  C   UNL     1      -5.252  -1.216  -1.518  0.00  0.00    +0.071 A 
ATOM     25  S   UNL     1      -6.709  -0.565  -2.318  0.00  0.00    -0.080 S 
ENDBRANCH  19  23
ENDBRANCH  15  19
ENDBRANCH   1  16
BRANCH  11  26
ATOM     26  C   UNL     1      -4.258  -7.549   6.672  0.00  0.00    +0.261 C 
BRANCH  26  27
ATOM     27  C   UNL     1      -3.871  -8.905   6.076  0.00  0.00    +0.033 C 
ATOM     28  C   UNL     1      -2.361  -9.107   6.209  0.00  0.00    +0.011 C 
ATOM     29  C   UNL     1      -4.603 -10.019   6.827  0.00  0.00    +0.011 C 
ENDBRANCH  26  27
BRANCH  26  30
ATOM     30  O   UNL     1      -3.796  -7.472   8.021  0.00  0.00    -0.479 OA
BRANCH  30  31
ATOM     31  C   UNL     1      -4.687  -7.786   8.998  0.00  0.00    +0.122 A 
ATOM     32  C   UNL     1      -4.310  -7.718  10.331  0.00  0.00    +0.045 A 
ATOM     33  C   UNL     1      -5.218  -8.037  11.322  0.00  0.00    +0.004 A 
ATOM     34  C   UNL     1      -6.502  -8.425  10.986  0.00  0.00    +0.000 A 
ATOM     35  C   UNL     1      -6.880  -8.495   9.658  0.00  0.00    +0.004 A 
ATOM     36  C   UNL     1      -5.977  -8.171   8.663  0.00  0.00    +0.045 A 
ENDBRANCH  30  31
ENDBRANCH  26  30
ENDBRANCH  11  26
TORSDOF 7
