REMARK  Name = ZINC63622954
REMARK  9 active torsions:
REMARK  status: ('A' for Active; 'I' for Inactive)
REMARK    1  A    between atoms: C_4  and  C_7
REMARK    2  A    between atoms: C_7  and  C_9
REMARK    3  A    between atoms: C_9  and  O_10
REMARK    4  A    between atoms: O_10  and  C_11
REMARK    5  A    between atoms: C_11  and  C_13
REMARK    6  A    between atoms: C_13  and  C_15
REMARK    7  A    between atoms: C_13  and  N_25
REMARK    8  A    between atoms: C_15  and  C_16
REMARK    9  A    between atoms: C_26  and  C_28
REMARK                            x       y       z     vdW  Elec       q    Type
REMARK                         _______ _______ _______ _____ _____    ______ ____
ROOT
ATOM      1  C   UNL     1       6.671  -4.520  -0.089  0.00  0.00    +0.186 C 
ENDROOT
BRANCH   1   2
ATOM      2  N   UNL     1       6.619  -5.984  -0.097  0.00  0.00    -0.302 N 
ATOM      3  C   UNL     1       7.657  -6.698   0.382  0.00  0.00    +0.220 C 
ATOM      4  O   UNL     1       8.634  -6.129   0.819  0.00  0.00    -0.275 OA
ATOM      5  H   UNL     1       5.837  -6.440  -0.446  0.00  0.00    +0.150 HD
BRANCH   3   6
ATOM      6  C   UNL     1       7.603  -8.204   0.375  0.00  0.00    +0.048 C 
ATOM      7  C   UNL     1       7.444  -8.702  -1.063  0.00  0.00    +0.019 C 
ATOM      8  C   UNL     1       7.390 -10.231  -1.071  0.00  0.00    -0.009 C 
ATOM      9  C   UNL     1       8.684 -10.790  -0.477  0.00  0.00    +0.007 C 
ATOM     10  C   UNL     1       8.843 -10.293   0.961  0.00  0.00    -0.009 C 
ATOM     11  C   UNL     1       8.897  -8.764   0.968  0.00  0.00    +0.019 C 
ATOM     12  C   UNL     1       7.652 -10.765   1.798  0.00  0.00    +0.007 C 
ATOM     13  C   UNL     1       6.358 -10.205   1.204  0.00  0.00    -0.009 C 
ATOM     14  C   UNL     1       6.199 -10.703  -0.234  0.00  0.00    +0.007 C 
ATOM     15  C   UNL     1       6.412  -8.676   1.212  0.00  0.00    +0.019 C 
ENDBRANCH   3   6
ENDBRANCH   1   2
BRANCH   1  16
ATOM     16  C   UNL     1       5.269  -3.968  -0.072  0.00  0.00    +0.328 C 
ATOM     17  O   UNL     1       4.323  -4.720  -0.066  0.00  0.00    -0.249 OA
BRANCH  16  18
ATOM     18  O   UNL     1       5.071  -2.640  -0.063  0.00  0.00    -0.455 OA
BRANCH  18  19
ATOM     19  C   UNL     1       3.716  -2.186  -0.046  0.00  0.00    +0.311 C 
BRANCH  19  20
ATOM     20  C   UNL     1       3.691  -0.679  -0.038  0.00  0.00    +0.200 C 
ATOM     21  O   UNL     1       4.731  -0.056  -0.045  0.00  0.00    -0.288 OA
BRANCH  20  25
ATOM     22  C   UNL     1      -0.017   1.380   0.010  0.00  0.00    +0.000 A 
ATOM     23  C   UNL     1       1.168   2.095   0.002  0.00  0.00    +0.001 A 
ATOM     24  C   UNL     1       2.377   1.433  -0.013  0.00  0.00    +0.011 A 
ATOM     25  C   UNL     1       2.405   0.035  -0.021  0.00  0.00    +0.021 A 
ATOM     26  C   UNL     1       1.203  -0.681  -0.013  0.00  0.00    +0.011 A 
ATOM     27  C   UNL     1       0.002  -0.004   0.002  0.00  0.00    +0.001 A 
ENDBRANCH  20  25
ENDBRANCH  19  20
ENDBRANCH  18  19
ENDBRANCH  16  18
ENDBRANCH   1  16
BRANCH   1  28
ATOM     28  C   UNL     1       7.397  -4.030  -1.343  0.00  0.00    +0.067 C 
BRANCH  28  29
ATOM     29  C   UNL     1       8.835  -4.480  -1.300  0.00  0.00    -0.039 C 
ATOM     30  C   UNL     1       9.357  -5.587  -1.876  0.00  0.00    -0.001 A 
ATOM     31  C   UNL     1       8.767  -6.662  -2.682  0.00  0.00    +0.010 A 
ATOM     32  C   UNL     1       9.563  -7.661  -3.127  0.00  0.00    +0.001 A 
ATOM     33  C   UNL     1      10.934  -7.695  -2.838  0.00  0.00    +0.002 A 
ATOM     34  C   UNL     1      11.548  -6.744  -2.104  0.00  0.00    +0.026 A 
ATOM     35  C   UNL     1      10.808  -5.646  -1.585  0.00  0.00    +0.043 A 
ATOM     36  N   UNL     1      11.168  -4.617  -0.858  0.00  0.00    -0.380 N 
ATOM     37  C   UNL     1       9.986  -3.783  -0.610  0.00  0.00    +0.144 C 
ATOM     38  H   UNL     1      12.066  -4.434  -0.540  0.00  0.00    +0.160 HD
ENDBRANCH  28  29
ENDBRANCH   1  28
TORSDOF 9
