REMARK  Name = ZINC11559457
REMARK  12 active torsions:
REMARK  status: ('A' for Active; 'I' for Inactive)
REMARK    1  A    between atoms: C_1  and  C_2
REMARK    2  A    between atoms: C_5  and  N_9
REMARK    3  A    between atoms: C_10  and  C_32
REMARK    4  A    between atoms: C_11  and  C_28
REMARK    5  A    between atoms: C_12  and  C_17
REMARK    6  A    between atoms: C_19  and  O_26
REMARK    7  A    between atoms: C_20  and  O_25
REMARK    8  A    between atoms: C_21  and  O_23
REMARK    9  A    between atoms: O_23  and  C_24
REMARK   10  A    between atoms: O_26  and  C_27
REMARK   11  A    between atoms: C_28  and  O_30
REMARK   12  A    between atoms: O_30  and  C_31
REMARK                            x       y       z     vdW  Elec       q    Type
REMARK                         _______ _______ _______ _____ _____    ______ ____
ROOT
ATOM      1  N   UNL     1       2.351   0.051  -0.130  0.00  0.00    -0.255 N 
ATOM      2  C   UNL     1       2.405   1.275   0.473  0.00  0.00    +0.027 C 
ATOM      3  C   UNL     1       1.292   2.027   0.624  0.00  0.00    +0.078 C 
ATOM      4  C   UNL     1      -0.015   1.466   0.102  0.00  0.00    +0.141 C 
ATOM      5  N   UNL     1       0.035   0.137  -0.532  0.00  0.00    -0.315 N 
ATOM      6  C   UNL     1       1.224  -0.492  -0.609  0.00  0.00    +0.142 C 
ATOM      7  S   UNL     1       1.297  -2.037  -1.344  0.00  0.00    -0.018 S 
ATOM      8  C   UNL     1       3.725   1.796   0.978  0.00  0.00    +0.062 C 
ATOM      9  H   UNL     1      -0.768  -0.275  -0.885  0.00  0.00    +0.149 HD
ENDROOT
BRANCH   1  14
ATOM     10  C   UNL     1       7.173  -2.901  -0.632  0.00  0.00    +0.047 C 
ATOM     11  C   UNL     1       5.893  -2.117  -0.499  0.00  0.00    -0.015 A 
ATOM     12  C   UNL     1       5.096  -2.280   0.619  0.00  0.00    +0.008 A 
ATOM     13  C   UNL     1       3.926  -1.559   0.747  0.00  0.00    +0.024 A 
ATOM     14  C   UNL     1       3.541  -0.677  -0.255  0.00  0.00    +0.043 A 
ATOM     15  C   UNL     1       4.340  -0.515  -1.378  0.00  0.00    +0.062 A 
ATOM     16  C   UNL     1       5.515  -1.236  -1.499  0.00  0.00    +0.128 A 
ATOM     17  F   UNL     1       6.295  -1.079  -2.591  0.00  0.00    -0.205 F 
ENDBRANCH   1  14
BRANCH   4  18
ATOM     18  C   UNL     1      -0.983   1.394   1.254  0.00  0.00    -0.015 A 
ATOM     19  C   UNL     1      -1.013   0.272   2.061  0.00  0.00    +0.055 A 
ATOM     20  C   UNL     1      -1.899   0.205   3.126  0.00  0.00    +0.165 A 
ATOM     21  C   UNL     1      -2.764   1.263   3.375  0.00  0.00    +0.201 A 
ATOM     22  C   UNL     1      -2.735   2.387   2.558  0.00  0.00    +0.165 A 
ATOM     23  C   UNL     1      -1.843   2.449   1.499  0.00  0.00    +0.055 A 
BRANCH  22  24
ATOM     24  O   UNL     1      -3.580   3.426   2.799  0.00  0.00    -0.491 OA
ATOM     25  C   UNL     1      -3.494   4.549   1.919  0.00  0.00    +0.277 C 
ENDBRANCH  22  24
BRANCH  21  26
ATOM     26  O   UNL     1      -3.639   1.199   4.416  0.00  0.00    -0.501 OA
ATOM     27  H   UNL     1      -4.495   0.811   4.187  0.00  0.00    +0.292 HD
ENDBRANCH  21  26
BRANCH  20  28
ATOM     28  O   UNL     1      -1.924  -0.897   3.922  0.00  0.00    -0.491 OA
ATOM     29  C   UNL     1      -1.006  -1.946   3.607  0.00  0.00    +0.277 C 
ENDBRANCH  20  28
ENDBRANCH   4  18
BRANCH   3  30
ATOM     30  C   UNL     1       1.346   3.295   1.248  0.00  0.00    +0.339 C 
ATOM     31  O   UNL     1       2.407   3.726   1.660  0.00  0.00    -0.245 OA
BRANCH  30  32
ATOM     32  O   UNL     1       0.221   4.027   1.387  0.00  0.00    -0.465 OA
ATOM     33  C   UNL     1       0.349   5.299   2.026  0.00  0.00    +0.280 C 
ENDBRANCH  30  32
ENDBRANCH   3  30
TORSDOF 7
