REMARK  Name = ZINC12048394
REMARK  8 active torsions:
REMARK  status: ('A' for Active; 'I' for Inactive)
REMARK    1  A    between atoms: C_1  and  C_2
REMARK    2  A    between atoms: C_4  and  C_30
REMARK    3  A    between atoms: N_5  and  C_7
REMARK    4  A    between atoms: C_7  and  C_8
REMARK    5  A    between atoms: C_8  and  N_53
REMARK    6  A    between atoms: C_9  and  C_10
REMARK    7  A    between atoms: C_9  and  N_53
REMARK    8  A    between atoms: C_19  and  C_20
REMARK                            x       y       z     vdW  Elec       q    Type
REMARK                         _______ _______ _______ _____ _____    ______ ____
ROOT
ATOM      1  C   UNL     1      -0.016   1.390   0.118  0.00  0.00    -0.038 A 
ATOM      2  C   UNL     1       1.153   2.091   0.070  0.00  0.00    +0.014 A 
ATOM      3  C   UNL     1       2.358   1.374  -0.052  0.00  0.00    +0.004 A 
ATOM      4  C   UNL     1       3.595   2.035  -0.107  0.00  0.00    +0.059 A 
ATOM      5  C   UNL     1       4.747   1.312  -0.224  0.00  0.00    +0.167 A 
ATOM      6  C   UNL     1       4.708  -0.092  -0.289  0.00  0.00    +0.168 A 
ATOM      7  C   UNL     1       3.518  -0.759  -0.239  0.00  0.00    +0.078 A 
ATOM      8  C   UNL     1       2.315  -0.043  -0.120  0.00  0.00    +0.075 A 
ATOM      9  N   UNL     1       1.141  -0.677  -0.070  0.00  0.00    -0.246 NA
ATOM     10  C   UNL     1       0.007  -0.011   0.044  0.00  0.00    +0.073 A 
ATOM     11  O   UNL     1       5.988  -0.553  -0.401  0.00  0.00    -0.453 OA
ATOM     12  C   UNL     1       6.830   0.540   0.010  0.00  0.00    +0.466 C 
ATOM     13  O   UNL     1       6.051   1.711  -0.297  0.00  0.00    -0.453 OA
ENDROOT
BRANCH  10  14
ATOM     14  C   UNL     1      -1.271  -0.760   0.095  0.00  0.00    +0.001 A 
ATOM     15  C   UNL     1      -1.419  -1.831   0.976  0.00  0.00    +0.013 A 
ATOM     16  C   UNL     1      -2.612  -2.522   1.024  0.00  0.00    +0.039 A 
ATOM     17  C   UNL     1      -3.659  -2.160   0.191  0.00  0.00    +0.123 A 
ATOM     18  C   UNL     1      -3.514  -1.101  -0.691  0.00  0.00    +0.039 A 
ATOM     19  C   UNL     1      -2.327  -0.401  -0.742  0.00  0.00    +0.013 A 
ATOM     20  F   UNL     1      -4.823  -2.844   0.237  0.00  0.00    -0.205 F 
ENDBRANCH  10  14
BRANCH   1  21
ATOM     21  C   UNL     1      -1.329   2.118   0.242  0.00  0.00    -0.045 C 
BRANCH  21  22
ATOM     22  N   UNL     1      -1.859   1.929   1.606  0.00  0.00    +0.383 N 
ATOM     23  H   UNL     1      -1.999   0.927   1.779  0.00  0.00    -0.085 HD
ATOM     24  H   UNL     1      -1.187   2.304   2.286  0.00  0.00    -0.085 HD
BRANCH  22  25
ATOM     25  C   UNL     1      -3.147   2.632   1.757  0.00  0.00    -0.059 C 
BRANCH  25  26
ATOM     26  C   UNL     1      -3.671   2.419   3.179  0.00  0.00    +0.125 C 
BRANCH  26  31
ATOM     27  C   UNL     1      -8.605   3.341   3.203  0.00  0.00    +0.067 C 
ATOM     28  C   UNL     1      -7.113   3.497   3.340  0.00  0.00    +0.060 A 
ATOM     29  C   UNL     1      -6.444   4.650   3.762  0.00  0.00    +0.047 A 
ATOM     30  C   UNL     1      -5.116   4.387   3.757  0.00  0.00    +0.036 A 
ATOM     31  N   UNL     1      -4.951   3.115   3.337  0.00  0.00    -0.270 N 
ATOM     32  N   UNL     1      -6.219   2.576   3.084  0.00  0.00    -0.176 NA
ATOM     33  C   UNL     1      -4.019   5.343   4.147  0.00  0.00    +0.065 C 
ENDBRANCH  26  31
ENDBRANCH  25  26
ENDBRANCH  22  25
ENDBRANCH  21  22
ENDBRANCH   1  21
TORSDOF 6
