REMARK  Name = ZINC05317625
REMARK  6 active torsions:
REMARK  status: ('A' for Active; 'I' for Inactive)
REMARK    1  A    between atoms: C_1  and  C_2
REMARK    2  A    between atoms: C_2  and  C_3
REMARK    3  A    between atoms: C_6  and  C_9
REMARK    4  A    between atoms: C_11  and  C_15
REMARK    5  A    between atoms: N_17  and  N_18
REMARK    6  A    between atoms: C_19  and  C_20
REMARK                            x       y       z     vdW  Elec       q    Type
REMARK                         _______ _______ _______ _____ _____    ______ ____
ROOT
ATOM      1  C   UNL     1       9.328   4.733  -0.058  0.00  0.00    +0.093 A 
ATOM      2  C   UNL     1       8.472   3.617  -0.050  0.00  0.00    +0.062 A 
ATOM      3  C   UNL     1       7.192   4.139  -0.042  0.00  0.00    +0.122 A 
ATOM      4  N   UNL     1       7.328   5.499  -0.036  0.00  0.00    -0.272 N 
ATOM      5  H   UNL     1       6.571   6.152  -0.025  0.00  0.00    +0.189 HD
ATOM      6  N   UNL     1       8.574   5.812  -0.045  0.00  0.00    -0.173 NA
ENDROOT
BRANCH   1  10
ATOM      7  C   UNL     1      13.579   4.639  -0.098  0.00  0.00    -0.048 A 
ATOM      8  C   UNL     1      12.917   5.854  -0.086  0.00  0.00    +0.004 A 
ATOM      9  C   UNL     1      11.537   5.890  -0.073  0.00  0.00    +0.010 A 
ATOM     10  C   UNL     1      10.812   4.700  -0.072  0.00  0.00    +0.002 A 
ATOM     11  C   UNL     1      11.484   3.480  -0.078  0.00  0.00    +0.010 A 
ATOM     12  C   UNL     1      12.864   3.455  -0.097  0.00  0.00    +0.004 A 
BRANCH   7  14
ATOM     13  C   UNL     1      15.609   4.587   1.326  0.00  0.00    +0.009 C 
ATOM     14  C   UNL     1      15.086   4.606  -0.112  0.00  0.00    +0.032 C 
ENDBRANCH   7  14
ENDBRANCH   1  10
BRANCH   3  15
ATOM     15  C   UNL     1       5.931   3.380  -0.034  0.00  0.00    +0.281 C 
ATOM     16  O   UNL     1       5.953   2.164  -0.041  0.00  0.00    -0.267 OA
ATOM     17  N   UNL     1       4.752   4.033  -0.020  0.00  0.00    -0.202 N 
ATOM     18  H   UNL     1       4.734   5.003  -0.015  0.00  0.00    +0.178 HD
BRANCH  17  19
ATOM     19  N   UNL     1       3.551   3.311  -0.013  0.00  0.00    -0.187 NA
ATOM     20  C   UNL     1       2.416   3.939   0.000  0.00  0.00    +0.139 C 
BRANCH  20  21
ATOM     21  C   UNL     1       1.153   3.179   0.008  0.00  0.00    +0.013 A 
ATOM     22  C   UNL     1      -0.071   3.852   0.022  0.00  0.00    +0.012 A 
ATOM     23  C   UNL     1      -1.249   3.135   0.030  0.00  0.00    +0.021 A 
ATOM     24  C   UNL     1      -1.222   1.750   0.017  0.00  0.00    +0.042 A 
ATOM     25  C   UNL     1      -0.013   1.076   0.008  0.00  0.00    +0.040 A 
ATOM     26  C   UNL     1       1.174   1.781   0.000  0.00  0.00    +0.051 A 
ATOM     27 CL   UNL     1       2.690   0.934  -0.018  0.00  0.00    -0.083 Cl
ATOM     28 CL   UNL     1      -2.710   0.856   0.020  0.00  0.00    -0.083 Cl
ENDBRANCH  20  21
ENDBRANCH  17  19
ENDBRANCH   3  15
TORSDOF 5
