REMARK  Name = ZINC36068150
REMARK  11 active torsions:
REMARK  status: ('A' for Active; 'I' for Inactive)
REMARK    1  A    between atoms: C_1  and  C_2
REMARK    2  A    between atoms: C_2  and  O_3
REMARK    3  A    between atoms: O_3  and  C_4
REMARK    4  A    between atoms: C_4  and  C_6
REMARK    5  A    between atoms: C_13  and  C_15
REMARK    6  A    between atoms: C_18  and  C_20
REMARK    7  A    between atoms: C_20  and  N_21
REMARK    8  A    between atoms: N_21  and  C_22
REMARK    9  A    between atoms: N_21  and  C_30
REMARK   10  A    between atoms: C_22  and  C_23
REMARK   11  A    between atoms: C_30  and  C_31
REMARK                            x       y       z     vdW  Elec       q    Type
REMARK                         _______ _______ _______ _____ _____    ______ ____
ROOT
ATOM      1  N   UNL     1       5.208  -5.694  -8.681  0.00  0.00    +0.391 N 
ATOM      2  H   UNL     1       4.217  -5.763  -8.505  0.00  0.00    -0.080 HD
ENDROOT
BRANCH   1   3
ATOM      3  C   UNL     1       5.901  -5.315  -7.442  0.00  0.00    +0.020 C 
BRANCH   3   7
ATOM      4  C   UNL     1       3.932  -2.857  -5.652  0.00  0.00    +0.164 A 
ATOM      5  C   UNL     1       4.714  -2.040  -6.410  0.00  0.00    +0.230 A 
ATOM      6  O   UNL     1       5.513  -2.832  -7.142  0.00  0.00    -0.449 OA
ATOM      7  C   UNL     1       5.230  -4.107  -6.841  0.00  0.00    +0.179 A 
ATOM      8  N   UNL     1       4.288  -4.137  -5.946  0.00  0.00    -0.210 NA
BRANCH   4  15
ATOM      9  C   UNL     1      -0.233  -3.451  -3.416  0.00  0.00    +0.115 C 
ATOM     10  C   UNL     1      -0.191  -4.954  -3.702  0.00  0.00    +0.018 C 
ATOM     11  C   UNL     1       0.746  -5.225  -4.881  0.00  0.00    +0.020 C 
ATOM     12  C   UNL     1       2.161  -4.762  -4.520  0.00  0.00    +0.108 C 
ATOM     13  N   UNL     1       2.106  -3.354  -4.104  0.00  0.00    -0.295 N 
ATOM     14  C   UNL     1       1.171  -2.968  -3.039  0.00  0.00    +0.122 C 
ATOM     15  C   UNL     1       2.899  -2.434  -4.689  0.00  0.00    +0.268 C 
ATOM     16  O   UNL     1       2.762  -1.256  -4.422  0.00  0.00    -0.268 OA
BRANCH   9  17
ATOM     17  C   UNL     1      -1.180  -3.182  -2.276  0.00  0.00    +0.312 C 
ATOM     18  O   UNL     1      -1.764  -4.098  -1.746  0.00  0.00    -0.250 OA
BRANCH  17  19
ATOM     19  O   UNL     1      -1.376  -1.925  -1.848  0.00  0.00    -0.465 OA
BRANCH  19  21
ATOM     20  C   UNL     1      -2.381  -0.255  -0.418  0.00  0.00    +0.048 C 
ATOM     21  C   UNL     1      -2.288  -1.743  -0.763  0.00  0.00    +0.229 C 
ENDBRANCH  19  21
ENDBRANCH  17  19
ENDBRANCH   9  17
ENDBRANCH   4  15
ENDBRANCH   3   7
ENDBRANCH   1   3
BRANCH   1  22
ATOM     22  C   UNL     1       5.714  -6.992  -9.147  0.00  0.00    -0.042 C 
BRANCH  22  23
ATOM     23  C   UNL     1       5.321  -8.066  -8.165  0.00  0.00    -0.061 A 
ATOM     24  C   UNL     1       6.182  -8.414  -7.141  0.00  0.00    +0.002 A 
ATOM     25  C   UNL     1       5.823  -9.399  -6.239  0.00  0.00    +0.003 A 
ATOM     26  C   UNL     1       4.603 -10.037  -6.361  0.00  0.00    +0.038 A 
ATOM     27  C   UNL     1       3.740  -9.689  -7.387  0.00  0.00    +0.124 A 
ATOM     28  C   UNL     1       4.098  -8.698  -8.285  0.00  0.00    +0.040 A 
ATOM     29  F   UNL     1       2.548 -10.312  -7.507  0.00  0.00    -0.205 F 
ENDBRANCH  22  23
ENDBRANCH   1  22
BRANCH   1  30
ATOM     30  C   UNL     1       5.454  -4.675  -9.710  0.00  0.00    -0.042 C 
BRANCH  30  31
ATOM     31  C   UNL     1       4.646  -4.999 -10.940  0.00  0.00    -0.060 A 
ATOM     32  C   UNL     1       5.185  -5.803 -11.928  0.00  0.00    +0.005 A 
ATOM     33  C   UNL     1       4.447  -6.104 -13.058  0.00  0.00    +0.050 A 
ATOM     34  C   UNL     1       3.165  -5.599 -13.203  0.00  0.00    +0.166 A 
ATOM     35  C   UNL     1       2.622  -4.790 -12.209  0.00  0.00    +0.166 A 
ATOM     36  C   UNL     1       3.365  -4.497 -11.076  0.00  0.00    +0.051 A 
ATOM     37  O   UNL     1       1.361  -4.425 -12.584  0.00  0.00    -0.453 OA
ATOM     38  C   UNL     1       1.292  -4.682 -13.999  0.00  0.00    +0.466 C 
ATOM     39  O   UNL     1       2.245  -5.741 -14.201  0.00  0.00    -0.453 OA
ENDBRANCH  30  31
ENDBRANCH   1  30
TORSDOF 10
