REMARK  Name = ZINC07886138
REMARK  5 active torsions:
REMARK  status: ('A' for Active; 'I' for Inactive)
REMARK    1  A    between atoms: C_1  and  C_2
REMARK    2  A    between atoms: C_2  and  O_3
REMARK    3  A    between atoms: O_3  and  C_4
REMARK    4  A    between atoms: C_13  and  C_14
REMARK    5  A    between atoms: N_25  and  C_26
REMARK                            x       y       z     vdW  Elec       q    Type
REMARK                         _______ _______ _______ _____ _____    ______ ____
ROOT
ATOM      1  C   UNL     1       3.624   2.365  -0.052  0.00  0.00    +0.197 C 
ATOM      2  N   UNL     1       4.734   1.611  -0.645  0.00  0.00    -0.321 N 
ATOM      3  C   UNL     1       4.787   1.471  -2.027  0.00  0.00    +0.041 A 
ATOM      4  C   UNL     1       5.386   0.376  -2.626  0.00  0.00    +0.024 A 
ATOM      5  C   UNL     1       5.421   0.285  -4.005  0.00  0.00    +0.002 A 
ATOM      6  C   UNL     1       4.862   1.280  -4.791  0.00  0.00    +0.001 A 
ATOM      7  C   UNL     1       4.259   2.376  -4.210  0.00  0.00    +0.015 A 
ATOM      8  C   UNL     1       4.212   2.479  -2.821  0.00  0.00    +0.058 A 
ATOM      9  C   UNL     1       3.566   3.622  -2.153  0.00  0.00    +0.250 C 
ATOM     10  O   UNL     1       3.212   4.590  -2.798  0.00  0.00    -0.270 OA
ATOM     11  N   UNL     1       3.373   3.583  -0.823  0.00  0.00    -0.272 N 
ATOM     12  H   UNL     1       5.420   1.218  -0.082  0.00  0.00    +0.148 HD
ENDROOT
BRANCH   1  22
ATOM     13  C   UNL     1       1.278   1.904  -0.752  0.00  0.00    +0.128 A 
ATOM     14  C   UNL     1       0.119   1.121  -0.763  0.00  0.00    +0.046 A 
ATOM     15  C   UNL     1       0.062  -0.053  -0.079  0.00  0.00    +0.012 A 
ATOM     16  C   UNL     1       1.181  -0.490   0.651  0.00  0.00    -0.017 A 
ATOM     17  C   UNL     1       1.157  -1.698   1.369  0.00  0.00    +0.008 A 
ATOM     18  C   UNL     1       2.259  -2.091   2.064  0.00  0.00    +0.001 A 
ATOM     19  C   UNL     1       3.415  -1.312   2.077  0.00  0.00    +0.001 A 
ATOM     20  C   UNL     1       3.475  -0.136   1.394  0.00  0.00    +0.009 A 
ATOM     21  C   UNL     1       2.357   0.302   0.664  0.00  0.00    -0.008 A 
ATOM     22  C   UNL     1       2.383   1.510  -0.053  0.00  0.00    +0.040 A 
BRANCH  13  23
ATOM     23  O   UNL     1       1.304   3.072  -1.446  0.00  0.00    -0.492 OA
BRANCH  23  25
ATOM     24  C   UNL     1       0.274   4.873  -2.685  0.00  0.00    +0.048 C 
ATOM     25  C   UNL     1       0.083   3.490  -2.059  0.00  0.00    +0.225 C 
ENDBRANCH  23  25
ENDBRANCH  13  23
ENDBRANCH   1  22
BRANCH  11  26
ATOM     26  C   UNL     1       2.899   4.787  -0.134  0.00  0.00    +0.079 C 
ATOM     27  C   UNL     1       3.001   4.813   1.392  0.00  0.00    +0.024 C 
ATOM     28  C   UNL     1       1.635   4.661   0.719  0.00  0.00    +0.024 C 
ENDBRANCH  11  26
TORSDOF 4
