REMARK  Name = ZINC33168182
REMARK  8 active torsions:
REMARK  status: ('A' for Active; 'I' for Inactive)
REMARK    1  A    between atoms: C_1  and  N_2
REMARK    2  A    between atoms: C_10  and  O_32
REMARK    3  A    between atoms: C_12  and  C_15
REMARK    4  A    between atoms: C_18  and  O_21
REMARK    5  A    between atoms: O_21  and  C_22
REMARK    6  A    between atoms: C_22  and  C_24
REMARK    7  A    between atoms: C_27  and  O_30
REMARK    8  A    between atoms: O_30  and  C_31
REMARK                            x       y       z     vdW  Elec       q    Type
REMARK                         _______ _______ _______ _____ _____    ______ ____
ROOT
ATOM      1  C   UNL     1       0.187  -6.852   8.514  0.00  0.00    -0.096 C 
ATOM      2  N   UNL     1      -0.066  -6.696   7.075  0.00  0.00    +0.381 N 
ATOM      3  C   UNL     1      -0.998  -7.723   6.590  0.00  0.00    -0.074 C 
ATOM      4  C   UNL     1      -1.540  -7.332   5.212  0.00  0.00    +0.018 C 
ATOM      5  C   UNL     1      -0.355  -7.008   4.308  0.00  0.00    -0.027 A 
ATOM      6  C   UNL     1       0.858  -6.748   4.853  0.00  0.00    -0.021 A 
ATOM      7  S   UNL     1       1.919  -6.434   3.468  0.00  0.00    -0.080 S 
ATOM      8  C   UNL     1       0.781  -6.645   2.208  0.00  0.00    +0.080 A 
ATOM      9  C   UNL     1      -0.419  -6.954   2.861  0.00  0.00    +0.067 A 
ATOM     10  C   UNL     1      -1.614  -7.190   2.010  0.00  0.00    +0.220 C 
ATOM     11  N   UNL     1      -1.525  -6.901   0.741  0.00  0.00    -0.223 NA
ATOM     12  C   UNL     1      -0.371  -6.270   0.112  0.00  0.00    +0.224 C 
ATOM     13  N   UNL     1       0.876  -6.567   0.841  0.00  0.00    -0.313 N 
ATOM     14  C   UNL     1       1.195  -6.734   6.310  0.00  0.00    -0.036 C 
ATOM     15  H   UNL     1       1.815  -6.714   0.287  0.00  0.00    +0.149 HD
ATOM     16  H   UNL     1      -0.533  -5.712   6.923  0.00  0.00    -0.082 HD
ENDROOT
BRANCH  12  17
ATOM     17  C   UNL     1      -0.581  -4.778   0.085  0.00  0.00    -0.005 A 
ATOM     18  C   UNL     1      -1.863  -4.263   0.027  0.00  0.00    +0.011 A 
ATOM     19  C   UNL     1      -2.058  -2.895   0.002  0.00  0.00    +0.047 A 
ATOM     20  C   UNL     1      -0.967  -2.039   0.035  0.00  0.00    +0.132 A 
ATOM     21  C   UNL     1       0.319  -2.559   0.087  0.00  0.00    +0.047 A 
ATOM     22  C   UNL     1       0.508  -3.928   0.118  0.00  0.00    +0.011 A 
BRANCH  20  23
ATOM     23  O   UNL     1      -1.156  -0.694   0.009  0.00  0.00    -0.422 OA
BRANCH  23  24
ATOM     24  C   UNL     1      -1.554  -0.110   1.157  0.00  0.00    +0.344 C 
ATOM     25  O   UNL     1      -1.813  -0.794   2.128  0.00  0.00    -0.245 OA
BRANCH  24  26
ATOM     26  C   UNL     1      -1.675   1.357   1.235  0.00  0.00    +0.060 A 
ATOM     27  C   UNL     1      -1.371   2.146   0.121  0.00  0.00    +0.018 A 
ATOM     28  C   UNL     1      -1.489   3.515   0.197  0.00  0.00    +0.046 A 
ATOM     29  C   UNL     1      -1.900   4.115   1.382  0.00  0.00    +0.120 A 
ATOM     30  C   UNL     1      -2.199   3.335   2.493  0.00  0.00    +0.046 A 
ATOM     31  C   UNL     1      -2.087   1.964   2.425  0.00  0.00    +0.018 A 
BRANCH  29  32
ATOM     32  O   UNL     1      -2.010   5.465   1.454  0.00  0.00    -0.495 OA
ATOM     33  C   UNL     1      -1.689   6.206   0.275  0.00  0.00    +0.277 C 
ENDBRANCH  29  32
ENDBRANCH  24  26
ENDBRANCH  23  24
ENDBRANCH  20  23
ENDBRANCH  12  17
BRANCH  10  34
ATOM     34  O   UNL     1      -2.758  -7.688   2.534  0.00  0.00    -0.492 OA
ATOM     35  H   UNL     1      -3.632  -7.856   1.888  0.00  0.00    +0.294 HD
ENDBRANCH  10  34
TORSDOF 6
