REMARK  Name = ZINC12894970
REMARK  11 active torsions:
REMARK  status: ('A' for Active; 'I' for Inactive)
REMARK    1  A    between atoms: C_1  and  C_2
REMARK    2  A    between atoms: C_5  and  N_9
REMARK    3  A    between atoms: C_7  and  C_8
REMARK    4  A    between atoms: C_11  and  C_16
REMARK    5  A    between atoms: N_18  and  C_19
REMARK    6  A    between atoms: C_20  and  C_32
REMARK    7  A    between atoms: C_22  and  S_24
REMARK    8  A    between atoms: S_24  and  C_25
REMARK    9  A    between atoms: C_25  and  C_26
REMARK   10  A    between atoms: N_28  and  C_29
REMARK   11  A    between atoms: C_29  and  C_30
REMARK                            x       y       z     vdW  Elec       q    Type
REMARK                         _______ _______ _______ _____ _____    ______ ____
ROOT
ATOM      1  C   UNL     1      -0.278   4.787  -3.169  0.00  0.00    +0.100 A 
ATOM      2  C   UNL     1      -0.680   5.588  -4.209  0.00  0.00    +0.101 A 
ATOM      3  N   UNL     1      -0.028   6.729  -4.437  0.00  0.00    -0.231 NA
ATOM      4  C   UNL     1       0.991   7.096  -3.683  0.00  0.00    +0.137 A 
ATOM      5  S   UNL     1       1.083   5.745  -2.517  0.00  0.00    -0.045 S 
ENDROOT
BRANCH   2   6
ATOM      6  C   UNL     1      -1.821   5.191  -5.066  0.00  0.00    +0.003 A 
ATOM      7  C   UNL     1      -2.035   3.845  -5.367  0.00  0.00    +0.010 A 
ATOM      8  C   UNL     1      -3.103   3.481  -6.161  0.00  0.00    +0.001 A 
ATOM      9  C   UNL     1      -3.954   4.448  -6.667  0.00  0.00    +0.000 A 
ATOM     10  C   UNL     1      -3.743   5.784  -6.377  0.00  0.00    +0.001 A 
ATOM     11  C   UNL     1      -2.682   6.161  -5.579  0.00  0.00    +0.010 A 
ENDBRANCH   2   6
BRANCH   1  14
ATOM     12  C   UNL     1      -0.241   2.937  -1.679  0.00  0.00    +0.223 C 
ATOM     13  O   UNL     1       0.704   3.434  -1.103  0.00  0.00    -0.275 OA
ATOM     14  N   UNL     1      -0.793   3.564  -2.736  0.00  0.00    -0.278 N 
ATOM     15  H   UNL     1      -1.549   3.167  -3.196  0.00  0.00    +0.155 HD
BRANCH  12  18
ATOM     16  N   UNL     1      -0.737   1.577   1.186  0.00  0.00    -0.271 N 
ATOM     17  C   UNL     1      -0.013   1.086   0.008  0.00  0.00    +0.127 C 
ATOM     18  C   UNL     1      -0.798   1.617  -1.212  0.00  0.00    +0.102 C 
ATOM     19  C   UNL     1      -2.216   1.792  -0.622  0.00  0.00    +0.110 C 
ATOM     20  C   UNL     1      -1.981   1.975   0.862  0.00  0.00    +0.221 C 
ATOM     21  O   UNL     1      -2.795   2.417   1.645  0.00  0.00    -0.275 OA
BRANCH  16  26
ATOM     22  C   UNL     1       1.433   1.774   6.424  0.00  0.00    +0.044 C 
ATOM     23  C   UNL     1       0.857   1.722   5.033  0.00  0.00    -0.047 A 
ATOM     24  C   UNL     1       1.622   1.240   3.987  0.00  0.00    +0.005 A 
ATOM     25  C   UNL     1       1.095   1.186   2.711  0.00  0.00    +0.024 A 
ATOM     26  C   UNL     1      -0.201   1.626   2.478  0.00  0.00    +0.037 A 
ATOM     27  C   UNL     1      -0.967   2.109   3.531  0.00  0.00    +0.027 A 
ATOM     28  C   UNL     1      -0.436   2.156   4.805  0.00  0.00    -0.046 A 
ATOM     29  C   UNL     1      -1.266   2.680   5.948  0.00  0.00    +0.044 C 
ENDBRANCH  16  26
ENDBRANCH  12  18
ENDBRANCH   1  14
BRANCH   4  30
ATOM     30  S   UNL     1       1.992   8.542  -3.792  0.00  0.00    -0.089 S 
BRANCH  30  31
ATOM     31  C   UNL     1       3.120   8.248  -2.408  0.00  0.00    +0.172 C 
BRANCH  31  32
ATOM     32  C   UNL     1       4.096   9.392  -2.304  0.00  0.00    +0.224 C 
ATOM     33  O   UNL     1       4.035  10.314  -3.090  0.00  0.00    -0.275 OA
ATOM     34  N   UNL     1       5.037   9.389  -1.340  0.00  0.00    -0.311 N 
ATOM     35  H   UNL     1       5.086   8.652  -0.712  0.00  0.00    +0.149 HD
BRANCH  34  36
ATOM     36  C   UNL     1       5.987  10.500  -1.239  0.00  0.00    +0.131 C 
BRANCH  36  37
ATOM     37  C   UNL     1       6.926  10.256  -0.087  0.00  0.00    -0.016 C 
ATOM     38  C   UNL     1       8.221  10.264  -0.284  0.00  0.00    +0.005 C 
ENDBRANCH  36  37
ENDBRANCH  34  36
ENDBRANCH  31  32
ENDBRANCH  30  31
ENDBRANCH   4  30
TORSDOF 9
