REMARK  Name = ZINC02620406
REMARK  10 active torsions:
REMARK  status: ('A' for Active; 'I' for Inactive)
REMARK    1  A    between atoms: C_1  and  C_2
REMARK    2  A    between atoms: C_3  and  C_35
REMARK    3  A    between atoms: C_4  and  C_34
REMARK    4  A    between atoms: C_7  and  C_8
REMARK    5  A    between atoms: C_8  and  C_10
REMARK    6  A    between atoms: C_10  and  S_11
REMARK    7  A    between atoms: S_11  and  C_12
REMARK    8  A    between atoms: C_15  and  C_24
REMARK    9  A    between atoms: N_16  and  C_17
REMARK   10  A    between atoms: C_35  and  C_37
REMARK                            x       y       z     vdW  Elec       q    Type
REMARK                         _______ _______ _______ _____ _____    ______ ____
ROOT
ATOM      1  C   UNL     1      -0.684  -2.855   6.123  0.00  0.00    +0.197 A 
ATOM      2  N   UNL     1      -0.514  -4.079   5.681  0.00  0.00    -0.122 NA
ATOM      3  N   UNL     1      -0.576  -4.915   6.654  0.00  0.00    -0.128 NA
ATOM      4  C   UNL     1      -0.790  -4.278   7.783  0.00  0.00    +0.171 A 
ATOM      5  N   UNL     1      -0.861  -2.935   7.480  0.00  0.00    -0.270 N 
ENDROOT
BRANCH   4   6
ATOM      6  C   UNL     1      -0.924  -4.884   9.122  0.00  0.00    +0.045 A 
ATOM      7  C   UNL     1      -1.151  -4.229  10.290  0.00  0.00    +0.095 A 
ATOM      8  N   UNL     1      -1.214  -5.126  11.316  0.00  0.00    -0.360 N 
ATOM      9  H   UNL     1      -1.368  -4.896  12.246  0.00  0.00    +0.165 HD
ATOM     10  C   UNL     1      -1.027  -6.407  10.842  0.00  0.00    +0.047 A 
ATOM     11  C   UNL     1      -0.843  -6.317   9.451  0.00  0.00    +0.010 A 
ATOM     12  C   UNL     1      -0.635  -7.472   8.699  0.00  0.00    +0.011 A 
ATOM     13  C   UNL     1      -0.614  -8.698   9.325  0.00  0.00    +0.001 A 
ATOM     14  C   UNL     1      -0.800  -8.789  10.697  0.00  0.00    +0.002 A 
ATOM     15  C   UNL     1      -0.998  -7.655  11.455  0.00  0.00    +0.026 A 
ENDBRANCH   4   6
BRANCH   5  16
ATOM     16  C   UNL     1      -1.073  -1.875   8.372  0.00  0.00    +0.051 A 
ATOM     17  C   UNL     1      -0.124  -1.582   9.342  0.00  0.00    +0.028 A 
ATOM     18  C   UNL     1      -0.335  -0.536  10.219  0.00  0.00    +0.022 A 
ATOM     19  C   UNL     1      -1.491   0.219  10.133  0.00  0.00    +0.041 A 
ATOM     20  C   UNL     1      -2.439  -0.071   9.167  0.00  0.00    +0.022 A 
ATOM     21  C   UNL     1      -2.229  -1.112   8.283  0.00  0.00    +0.028 A 
ATOM     22 CL   UNL     1      -1.754   1.532  11.237  0.00  0.00    -0.084 Cl
ENDBRANCH   5  16
BRANCH   1  23
ATOM     23  S   UNL     1      -0.678  -1.383   5.155  0.00  0.00    -0.078 S 
BRANCH  23  24
ATOM     24  C   UNL     1      -0.399  -1.972   3.462  0.00  0.00    +0.158 C 
BRANCH  24  25
ATOM     25  C   UNL     1      -0.371  -0.797   2.519  0.00  0.00    +0.190 C 
ATOM     26  O   UNL     1      -0.525   0.329   2.947  0.00  0.00    -0.290 OA
BRANCH  25  33
ATOM     27  C   UNL     1      -0.275   1.458   0.383  0.00  0.00    +0.047 C 
ATOM     28  C   UNL     1      -0.118  -0.026   0.167  0.00  0.00    -0.012 A 
ATOM     29  C   UNL     1       0.111  -0.678  -1.065  0.00  0.00    +0.041 A 
ATOM     30  C   UNL     1       0.189  -2.038  -0.799  0.00  0.00    +0.024 A 
ATOM     31  N   UNL     1       0.018  -2.227   0.517  0.00  0.00    -0.355 N 
ATOM     32  H   UNL     1       0.028  -3.086   0.966  0.00  0.00    +0.166 HD
ATOM     33  C   UNL     1      -0.166  -1.006   1.134  0.00  0.00    +0.087 A 
ATOM     34  C   UNL     1       0.424  -3.121  -1.819  0.00  0.00    +0.064 C 
BRANCH  29  35
ATOM     35  C   UNL     1       0.242  -0.039  -2.379  0.00  0.00    +0.162 C 
ATOM     36  O   UNL     1      -0.746   0.181  -3.047  0.00  0.00    -0.292 OA
ATOM     37  C   UNL     1       1.604   0.344  -2.898  0.00  0.00    +0.091 C 
ENDBRANCH  29  35
ENDBRANCH  25  33
ENDBRANCH  24  25
ENDBRANCH  23  24
ENDBRANCH   1  23
TORSDOF 7
