REMARK  Name = ZINC10533442
REMARK  7 active torsions:
REMARK  status: ('A' for Active; 'I' for Inactive)
REMARK    1  A    between atoms: C_1  and  C_2
REMARK    2  A    between atoms: C_5  and  C_8
REMARK    3  A    between atoms: C_11  and  S_13
REMARK    4  A    between atoms: S_13  and  C_14
REMARK    5  A    between atoms: C_14  and  C_15
REMARK    6  A    between atoms: C_19  and  C_25
REMARK    7  A    between atoms: C_20  and  C_24
REMARK                            x       y       z     vdW  Elec       q    Type
REMARK                         _______ _______ _______ _____ _____    ______ ____
ROOT
ATOM      1  C   UNL     1      -1.356  -2.755   0.640  0.00  0.00    +0.155 C 
ENDROOT
BRANCH   1   2
ATOM      2  C   UNL     1      -0.355  -1.648   0.851  0.00  0.00    +0.143 A 
ATOM      3  N   UNL     1       0.928  -1.947   0.950  0.00  0.00    -0.216 NA
ATOM      4  C   UNL     1       1.854  -1.021   1.136  0.00  0.00    +0.128 A 
ATOM      5  C   UNL     1       1.462   0.343   1.233  0.00  0.00    +0.050 A 
ATOM      6  C   UNL     1       2.274   1.531   1.433  0.00  0.00    -0.028 A 
ATOM      7  C   UNL     1       1.676   2.730   1.493  0.00  0.00    -0.008 A 
ATOM      8  S   UNL     1      -0.052   2.345   1.281  0.00  0.00    -0.074 S 
ATOM      9  C   UNL     1       0.076   0.584   1.117  0.00  0.00    +0.114 A 
ATOM     10  N   UNL     1      -0.780  -0.402   0.933  0.00  0.00    -0.224 NA
ATOM     11  C   UNL     1       2.313   4.081   1.692  0.00  0.00    +0.052 C 
ATOM     12  C   UNL     1       3.770   1.417   1.573  0.00  0.00    +0.045 C 
ATOM     13  N   UNL     1       3.188  -1.375   1.235  0.00  0.00    -0.343 N 
ATOM     14  H   UNL     1       3.877  -0.754   0.950  0.00  0.00    +0.144 HD
ATOM     15  H   UNL     1       3.434  -2.244   1.589  0.00  0.00    +0.144 HD
ENDBRANCH   1   2
BRANCH   1  16
ATOM     16  S   UNL     1      -1.926  -3.367   2.245  0.00  0.00    -0.058 S 
BRANCH  16  20
ATOM     17  C   UNL     1      -4.499  -6.217   1.687  0.00  0.00    +0.249 A 
ATOM     18  N   UNL     1      -4.190  -5.889   0.457  0.00  0.00    -0.106 NA
ATOM     19  N   UNL     1      -3.327  -4.935   0.471  0.00  0.00    -0.101 NA
ATOM     20  C   UNL     1      -3.051  -4.615   1.715  0.00  0.00    +0.278 A 
ATOM     21  O   UNL     1      -3.780  -5.421   2.510  0.00  0.00    -0.411 OA
BRANCH  17  26
ATOM     22  C   UNL     1      -8.214 -10.306   3.293  0.00  0.00    +0.044 C 
ATOM     23  C   UNL     1      -7.241  -9.235   2.873  0.00  0.00    -0.050 A 
ATOM     24  C   UNL     1      -7.015  -8.999   1.528  0.00  0.00    +0.004 A 
ATOM     25  C   UNL     1      -6.126  -8.020   1.136  0.00  0.00    +0.013 A 
ATOM     26  C   UNL     1      -5.453  -7.266   2.100  0.00  0.00    +0.039 A 
ATOM     27  C   UNL     1      -5.683  -7.513   3.455  0.00  0.00    +0.013 A 
ATOM     28  C   UNL     1      -6.578  -8.491   3.833  0.00  0.00    +0.004 A 
ENDBRANCH  17  26
ENDBRANCH  16  20
ENDBRANCH   1  16
TORSDOF 4
