REMARK  Name = ZINC66247769
REMARK  6 active torsions:
REMARK  status: ('A' for Active; 'I' for Inactive)
REMARK    1  A    between atoms: C_1  and  C_2
REMARK    2  A    between atoms: C_4  and  N_8
REMARK    3  A    between atoms: N_5  and  C_7
REMARK    4  A    between atoms: N_8  and  S_9
REMARK    5  A    between atoms: S_9  and  C_12
REMARK    6  A    between atoms: C_13  and  C_14
REMARK                            x       y       z     vdW  Elec       q    Type
REMARK                         _______ _______ _______ _____ _____    ______ ____
ROOT
ATOM      1  S   UNL     1       0.028  -3.063  -3.188  0.00  0.00    +0.067 S 
ATOM      2  O   UNL     1       0.070  -4.374  -3.736  0.00  0.00    -0.151 OA
ATOM      3  O   UNL     1      -1.011  -2.143  -3.492  0.00  0.00    -0.151 OA
ENDROOT
BRANCH   1   4
ATOM      4  N   UNL     1       0.038  -3.238  -1.541  0.00  0.00    -0.200 N 
ATOM      5  H   UNL     1       0.052  -4.125  -1.147  0.00  0.00    +0.175 HD
BRANCH   4   9
ATOM      6  C   UNL     1      -0.018   1.503   0.010  0.00  0.00    +0.067 C 
ATOM      7  C   UNL     1       0.002  -0.004   0.002  0.00  0.00    +0.062 A 
ATOM      8  C   UNL     1       0.008  -0.816  -1.136  0.00  0.00    +0.069 A 
ATOM      9  C   UNL     1       0.027  -2.113  -0.721  0.00  0.00    +0.136 A 
ATOM     10  N   UNL     1       0.034  -2.110   0.631  0.00  0.00    -0.252 N 
ATOM     11  N   UNL     1       0.023  -0.776   1.058  0.00  0.00    -0.175 NA
ATOM     12  C   UNL     1       0.053  -3.292   1.496  0.00  0.00    +0.174 C 
ENDBRANCH   4   9
ENDBRANCH   1   4
BRANCH   1  13
ATOM     13  C   UNL     1       1.541  -2.281  -3.638  0.00  0.00    +0.157 C 
ATOM     14  C   UNL     1       2.430  -2.932  -4.376  0.00  0.00    +0.028 C 
BRANCH  14  15
ATOM     15  C   UNL     1       3.700  -2.275  -4.753  0.00  0.00    -0.024 A 
ATOM     16  C   UNL     1       3.968  -0.973  -4.330  0.00  0.00    +0.009 A 
ATOM     17  C   UNL     1       5.154  -0.365  -4.685  0.00  0.00    +0.020 A 
ATOM     18  C   UNL     1       6.078  -1.045  -5.461  0.00  0.00    +0.041 A 
ATOM     19  C   UNL     1       5.817  -2.337  -5.885  0.00  0.00    +0.020 A 
ATOM     20  C   UNL     1       4.637  -2.958  -5.530  0.00  0.00    +0.009 A 
ATOM     21 CL   UNL     1       7.568  -0.274  -5.905  0.00  0.00    -0.084 Cl
ENDBRANCH  14  15
ENDBRANCH   1  13
TORSDOF 4
