REMARK  Name = ZINC38684833
REMARK  10 active torsions:
REMARK  status: ('A' for Active; 'I' for Inactive)
REMARK    1  A    between atoms: C_1  and  C_2
REMARK    2  A    between atoms: C_2  and  O_3
REMARK    3  A    between atoms: O_3  and  C_4
REMARK    4  A    between atoms: C_8  and  C_10
REMARK    5  A    between atoms: C_15  and  O_24
REMARK    6  A    between atoms: C_19  and  N_23
REMARK    7  A    between atoms: C_20  and  C_21
REMARK    8  A    between atoms: O_24  and  C_25
REMARK    9  A    between atoms: C_25  and  C_27
REMARK   10  A    between atoms: C_32  and  C_33
REMARK                            x       y       z     vdW  Elec       q    Type
REMARK                         _______ _______ _______ _____ _____    ______ ____
ROOT
ATOM      1  C   UNL     1       2.341  -4.197   3.785  0.00  0.00    +0.098 C 
ATOM      2  C   UNL     1       3.509  -5.015   3.301  0.00  0.00    +0.008 A 
ATOM      3  C   UNL     1       4.614  -4.374   2.770  0.00  0.00    +0.012 A 
ATOM      4  C   UNL     1       5.694  -5.108   2.321  0.00  0.00    +0.047 A 
ATOM      5  C   UNL     1       5.673  -6.494   2.401  0.00  0.00    +0.135 A 
ATOM      6  C   UNL     1       4.568  -7.138   2.932  0.00  0.00    +0.093 A 
ATOM      7  C   UNL     1       3.482  -6.398   3.383  0.00  0.00    +0.138 A 
ATOM      8  O   UNL     1       2.408  -7.044   3.900  0.00  0.00    -0.441 OA
ATOM      9  C   UNL     1       1.538  -6.380   4.680  0.00  0.00    +0.199 C 
ATOM     10  C   UNL     1       1.458  -5.031   4.670  0.00  0.00    +0.098 C 
ENDROOT
BRANCH   1  15
ATOM     11  C   UNL     1       0.656  -1.911   1.293  0.00  0.00    +0.121 A 
ATOM     12  C   UNL     1       0.083  -2.828   0.423  0.00  0.00    +0.045 A 
ATOM     13  C   UNL     1       0.243  -4.181   0.645  0.00  0.00    +0.004 A 
ATOM     14  C   UNL     1       0.974  -4.623   1.733  0.00  0.00    +0.005 A 
ATOM     15  C   UNL     1       1.545  -3.712   2.601  0.00  0.00    -0.031 A 
ATOM     16  C   UNL     1       1.393  -2.357   2.380  0.00  0.00    +0.050 A 
BRANCH  11  17
ATOM     17  O   UNL     1       0.500  -0.578   1.077  0.00  0.00    -0.492 OA
BRANCH  17  19
ATOM     18  C   UNL     1      -0.335   1.335  -0.141  0.00  0.00    +0.048 C 
ATOM     19  C   UNL     1      -0.271  -0.192  -0.062  0.00  0.00    +0.225 C 
ENDBRANCH  17  19
ENDBRANCH  11  17
ENDBRANCH   1  15
BRANCH   9  20
ATOM     20  N   UNL     1       0.708  -7.092   5.508  0.00  0.00    -0.328 N 
ATOM     21  H   UNL     1       0.754  -8.061   5.525  0.00  0.00    +0.145 HD
ATOM     22  H   UNL     1       0.074  -6.627   6.077  0.00  0.00    +0.145 HD
ENDBRANCH   9  20
BRANCH  10  23
ATOM     23  C   UNL     1       0.508  -4.384   5.525  0.00  0.00    +0.101 C 
ATOM     24  N   UNL     1      -0.244  -3.870   6.203  0.00  0.00    -0.191 NA
ENDBRANCH  10  23
BRANCH   5  25
ATOM     25  O   UNL     1       6.735  -7.217   1.959  0.00  0.00    -0.422 OA
BRANCH  25  26
ATOM     26  C   UNL     1       7.811  -7.317   2.763  0.00  0.00    +0.345 C 
ATOM     27  O   UNL     1       7.771  -6.868   3.891  0.00  0.00    -0.245 OA
BRANCH  26  28
ATOM     28  C   UNL     1       9.041  -7.973   2.274  0.00  0.00    +0.062 A 
ATOM     29  C   UNL     1       9.052  -8.600   1.026  0.00  0.00    +0.015 A 
ATOM     30  C   UNL     1      10.204  -9.210   0.575  0.00  0.00    +0.001 A 
ATOM     31  C   UNL     1      11.347  -9.202   1.356  0.00  0.00    +0.000 A 
ATOM     32  C   UNL     1      11.343  -8.582   2.593  0.00  0.00    +0.004 A 
ATOM     33  C   UNL     1      10.199  -7.963   3.054  0.00  0.00    -0.036 A 
ATOM     34  C   UNL     1      10.198  -7.283   4.399  0.00  0.00    +0.044 C 
ENDBRANCH  26  28
ENDBRANCH  25  26
ENDBRANCH   5  25
TORSDOF 8
