REMARK  Name = ZINC01725570
REMARK  2 active torsions:
REMARK  status: ('A' for Active; 'I' for Inactive)
REMARK    1  A    between atoms: C_4  and  C_7
REMARK    2  A    between atoms: C_9  and  C_21
REMARK                            x       y       z     vdW  Elec       q    Type
REMARK                         _______ _______ _______ _____ _____    ______ ____
ROOT
ATOM      1  C   UNL     1      -2.233  -0.180  -0.349  0.00  0.00    +0.130 C 
ATOM      2  C   UNL     1      -2.774   0.997   0.479  0.00  0.00    +0.190 C 
ATOM      3  S   UNL     1      -1.764   2.456   0.077  0.00  0.00    +0.008 S 
ATOM      4  O   UNL     1      -1.830   3.406   1.131  0.00  0.00    -0.169 OA
ATOM      5  O   UNL     1      -1.979   2.846  -1.272  0.00  0.00    -0.169 OA
ATOM      6  C   UNL     1      -0.107   1.848   0.116  0.00  0.00    +0.110 A 
ATOM      7  C   UNL     1       0.940   2.750   0.159  0.00  0.00    +0.029 A 
ATOM      8  C   UNL     1       2.247   2.301   0.173  0.00  0.00    +0.002 A 
ATOM      9  C   UNL     1       2.508   0.943   0.144  0.00  0.00    +0.002 A 
ATOM     10  C   UNL     1       1.468   0.039   0.104  0.00  0.00    +0.025 A 
ATOM     11  C   UNL     1       0.146   0.485   0.095  0.00  0.00    +0.053 A 
ATOM     12  N   UNL     1      -0.868  -0.468   0.079  0.00  0.00    -0.333 N 
ATOM     13  H   UNL     1      -0.656  -1.370   0.366  0.00  0.00    +0.147 HD
ENDROOT
BRANCH   1  17
ATOM     14  C   UNL     1      -4.686  -3.620   0.279  0.00  0.00    +0.000 A 
ATOM     15  C   UNL     1      -4.843  -2.858  -0.864  0.00  0.00    +0.000 A 
ATOM     16  C   UNL     1      -4.050  -1.745  -1.067  0.00  0.00    +0.005 A 
ATOM     17  C   UNL     1      -3.099  -1.393  -0.128  0.00  0.00    -0.025 A 
ATOM     18  C   UNL     1      -2.938  -2.158   1.012  0.00  0.00    +0.005 A 
ATOM     19  C   UNL     1      -3.735  -3.268   1.218  0.00  0.00    +0.000 A 
ENDBRANCH   1  17
BRANCH   2  20
ATOM     20  C   UNL     1      -2.659   0.684   1.948  0.00  0.00    -0.021 A 
ATOM     21  C   UNL     1      -3.788   0.348   2.673  0.00  0.00    +0.005 A 
ATOM     22  C   UNL     1      -3.682   0.057   4.021  0.00  0.00    +0.000 A 
ATOM     23  C   UNL     1      -2.450   0.111   4.645  0.00  0.00    +0.000 A 
ATOM     24  C   UNL     1      -1.323   0.452   3.921  0.00  0.00    +0.000 A 
ATOM     25  C   UNL     1      -1.427   0.738   2.573  0.00  0.00    +0.005 A 
ENDBRANCH   2  20
TORSDOF 2
