REMARK  Name = ZINC18090080
REMARK  6 active torsions:
REMARK  status: ('A' for Active; 'I' for Inactive)
REMARK    1  A    between atoms: C_1  and  C_2
REMARK    2  A    between atoms: C_2  and  N_3
REMARK    3  A    between atoms: C_4  and  S_13
REMARK    4  A    between atoms: N_5  and  C_6
REMARK    5  A    between atoms: S_13  and  C_14
REMARK    6  A    between atoms: N_19  and  C_22
REMARK                            x       y       z     vdW  Elec       q    Type
REMARK                         _______ _______ _______ _____ _____    ______ ____
ROOT
ATOM      1  S   UNL     1       0.182  -3.268   0.437  0.00  0.00    -0.077 S 
ENDROOT
BRANCH   1   2
ATOM      2  C   UNL     1       0.535  -4.636  -0.700  0.00  0.00    +0.149 C 
ATOM      3  C   UNL     1       0.406  -5.992   0.025  0.00  0.00    +0.120 C 
ATOM      4  C   UNL     1      -0.706  -6.691  -0.726  0.00  0.00    +0.228 C 
ATOM      5  O   UNL     1      -1.132  -7.799  -0.478  0.00  0.00    -0.275 OA
ATOM      6  N   UNL     1      -1.145  -5.893  -1.707  0.00  0.00    -0.209 N 
ATOM      7  C   UNL     1      -0.515  -4.710  -1.786  0.00  0.00    +0.240 C 
ATOM      8  O   UNL     1      -0.750  -3.839  -2.597  0.00  0.00    -0.274 OA
BRANCH   6   9
ATOM      9  C   UNL     1      -2.177  -6.263  -2.582  0.00  0.00    +0.044 A 
ATOM     10  C   UNL     1      -1.901  -6.502  -3.921  0.00  0.00    +0.025 A 
ATOM     11  C   UNL     1      -2.918  -6.866  -4.780  0.00  0.00    +0.017 A 
ATOM     12  C   UNL     1      -4.213  -6.992  -4.308  0.00  0.00    +0.018 A 
ATOM     13  C   UNL     1      -4.490  -6.755  -2.973  0.00  0.00    +0.017 A 
ATOM     14  C   UNL     1      -3.475  -6.396  -2.108  0.00  0.00    +0.025 A 
ATOM     15 BR   UNL     1      -5.604  -7.490  -5.487  0.00  0.00    -0.050 Br
ENDBRANCH   6   9
ENDBRANCH   1   2
BRANCH   1  17
ATOM     16  N   UNL     1       0.282  -0.580   0.019  0.00  0.00    -0.324 N 
ATOM     17  C   UNL     1       0.459  -1.824  -0.534  0.00  0.00    +0.155 C 
ATOM     18  N   UNL     1       0.835  -1.938  -1.788  0.00  0.00    -0.226 NA
ATOM     19  H   UNL     1       0.451   0.215  -0.510  0.00  0.00    +0.148 HD
BRANCH  18  20
ATOM     20  C   UNL     1       1.150  -0.820  -2.513  0.00  0.00    +0.067 A 
ATOM     21  C   UNL     1       2.134   0.059  -2.054  0.00  0.00    +0.029 A 
ATOM     22  C   UNL     1       2.447   1.184  -2.788  0.00  0.00    +0.017 A 
ATOM     23  C   UNL     1       1.788   1.442  -3.978  0.00  0.00    +0.018 A 
ATOM     24  C   UNL     1       0.812   0.576  -4.438  0.00  0.00    +0.017 A 
ATOM     25  C   UNL     1       0.494  -0.556  -3.716  0.00  0.00    +0.029 A 
ATOM     26 BR   UNL     1       2.223   2.987  -4.978  0.00  0.00    -0.050 Br
ENDBRANCH  18  20
BRANCH  16  28
ATOM     27  C   UNL     1      -0.279   1.028   1.774  0.00  0.00    +0.024 C 
ATOM     28  C   UNL     1      -0.162  -0.453   1.410  0.00  0.00    +0.100 C 
ENDBRANCH  16  28
ENDBRANCH   1  17
TORSDOF 5
