REMARK  Name = ZINC66481881
REMARK  7 active torsions:
REMARK  status: ('A' for Active; 'I' for Inactive)
REMARK    1  A    between atoms: C_1  and  C_2
REMARK    2  A    between atoms: N_5  and  C_11
REMARK    3  A    between atoms: C_7  and  C_10
REMARK    4  A    between atoms: C_11  and  C_12
REMARK    5  A    between atoms: C_12  and  C_14
REMARK    6  A    between atoms: C_12  and  O_29
REMARK    7  A    between atoms: C_14  and  N_15
REMARK                            x       y       z     vdW  Elec       q    Type
REMARK                         _______ _______ _______ _____ _____    ______ ____
ROOT
ATOM      1  N   UNL     1      -4.042  -6.112  -0.228  0.00  0.00    -0.222 N 
ATOM      2  C   UNL     1      -4.015  -6.832  -1.377  0.00  0.00    +0.247 C 
ATOM      3  O   UNL     1      -4.286  -6.408  -2.468  0.00  0.00    -0.273 OA
ATOM      4  C   UNL     1      -3.559  -8.217  -0.931  0.00  0.00    +0.113 C 
ATOM      5  C   UNL     1      -2.032  -8.291  -1.098  0.00  0.00    +0.035 C 
ATOM      6  C   UNL     1      -1.654  -9.249  -2.236  0.00  0.00    +0.003 C 
ATOM      7  C   UNL     1      -1.392  -8.507  -3.542  0.00  0.00    +0.000 C 
ATOM      8  C   UNL     1      -2.740  -8.120  -4.175  0.00  0.00    +0.000 C 
ATOM      9  C   UNL     1      -3.705  -9.300  -4.071  0.00  0.00    +0.000 C 
ATOM     10  C   UNL     1      -4.774  -9.022  -3.018  0.00  0.00    +0.003 C 
ATOM     11  C   UNL     1      -4.310  -9.338  -1.605  0.00  0.00    +0.035 C 
ATOM     12  N   UNL     1      -3.860  -8.202   0.515  0.00  0.00    -0.285 N 
ATOM     13  C   UNL     1      -4.025  -6.909   0.847  0.00  0.00    +0.309 C 
ATOM     14  O   UNL     1      -4.144  -6.511   1.988  0.00  0.00    -0.252 OA
ATOM     15  H   UNL     1      -3.923  -8.971   1.099  0.00  0.00    +0.151 HD
ENDROOT
BRANCH   1  16
ATOM     16  C   UNL     1      -4.111  -4.651  -0.179  0.00  0.00    +0.150 C 
BRANCH  16  17
ATOM     17  C   UNL     1      -2.695  -4.075  -0.135  0.00  0.00    +0.146 C 
BRANCH  17  18
ATOM     18  O   UNL     1      -2.018  -4.380  -1.355  0.00  0.00    -0.389 OA
ATOM     19  H   UNL     1      -2.447  -4.022  -2.144  0.00  0.00    +0.210 HD
ENDBRANCH  17  18
BRANCH  17  20
ATOM     20  C   UNL     1      -2.768  -2.557   0.042  0.00  0.00    +0.117 C 
BRANCH  20  24
ATOM     21  C   UNL     1      -0.019   1.526   0.010  0.00  0.00    +0.039 C 
ATOM     22  C   UNL     1       0.002  -0.004   0.002  0.00  0.00    +0.130 C 
ATOM     23  C   UNL     1      -1.434  -0.535   0.015  0.00  0.00    +0.115 C 
ATOM     24  N   UNL     1      -1.407  -2.003   0.085  0.00  0.00    -0.295 NA
ATOM     25  C   UNL     1      -0.692  -2.455   1.287  0.00  0.00    +0.115 C 
ATOM     26  C   UNL     1       0.736  -1.905   1.261  0.00  0.00    +0.130 C 
ATOM     27  O   UNL     1       0.692  -0.479   1.161  0.00  0.00    -0.371 OA
ATOM     28  C   UNL     1       1.461  -2.305   2.548  0.00  0.00    +0.039 C 
ENDBRANCH  20  24
ENDBRANCH  17  20
ENDBRANCH  16  17
ENDBRANCH   1  16
TORSDOF 5
