REMARK  Name = ZINC36609343
REMARK  11 active torsions:
REMARK  status: ('A' for Active; 'I' for Inactive)
REMARK    1  A    between atoms: C_4  and  N_7
REMARK    2  A    between atoms: N_7  and  C_8
REMARK    3  A    between atoms: C_8  and  C_10
REMARK    4  A    between atoms: C_8  and  C_19
REMARK    5  A    between atoms: C_11  and  O_18
REMARK    6  A    between atoms: C_13  and  O_17
REMARK    7  A    between atoms: C_15  and  O_16
REMARK    8  A    between atoms: N_21  and  C_22
REMARK    9  A    between atoms: C_28  and  C_30
REMARK   10  A    between atoms: C_32  and  N_37
REMARK   11  A    between atoms: C_35  and  O_36
REMARK                            x       y       z     vdW  Elec       q    Type
REMARK                         _______ _______ _______ _____ _____    ______ ____
ROOT
ATOM      1  C   UNL     1       3.158  -2.067   0.013  0.00  0.00    +0.204 C 
ENDROOT
BRANCH   1   2
ATOM      2  C   UNL     1       2.635  -1.985  -1.398  0.00  0.00    +0.065 A 
ATOM      3  C   UNL     1       1.864  -0.901  -1.790  0.00  0.00    +0.129 A 
ATOM      4  C   UNL     1       1.383  -0.825  -3.088  0.00  0.00    +0.091 A 
ATOM      5  C   UNL     1       1.673  -1.833  -3.995  0.00  0.00    +0.124 A 
ATOM      6  C   UNL     1       2.445  -2.916  -3.604  0.00  0.00    +0.091 A 
ATOM      7  C   UNL     1       2.930  -2.990  -2.307  0.00  0.00    +0.129 A 
BRANCH   7   8
ATOM      8  O   UNL     1       3.690  -4.050  -1.925  0.00  0.00    -0.506 OA
ATOM      9  H   UNL     1       3.181  -4.791  -1.570  0.00  0.00    +0.292 HD
ENDBRANCH   7   8
BRANCH   5  10
ATOM     10  O   UNL     1       1.200  -1.759  -5.267  0.00  0.00    -0.507 OA
ATOM     11  H   UNL     1       1.794  -1.306  -5.882  0.00  0.00    +0.292 HD
ENDBRANCH   5  10
BRANCH   3  12
ATOM     12  O   UNL     1       1.580   0.087  -0.901  0.00  0.00    -0.506 OA
ATOM     13  H   UNL     1       2.185   0.840  -0.943  0.00  0.00    +0.292 HD
ENDBRANCH   3  12
ENDBRANCH   1   2
BRANCH   1  14
ATOM     14  C   UNL     1       2.043  -2.481   0.938  0.00  0.00    +0.239 C 
ATOM     15  O   UNL     1       1.243  -1.658   1.329  0.00  0.00    -0.273 OA
ATOM     16  N   UNL     1       1.936  -3.765   1.332  0.00  0.00    -0.311 N 
ATOM     17  H   UNL     1       2.576  -4.424   1.019  0.00  0.00    +0.149 HD
BRANCH  16  18
ATOM     18  C   UNL     1       0.852  -4.168   2.232  0.00  0.00    +0.073 C 
ATOM     19  C   UNL     1       1.271  -3.912   3.681  0.00  0.00    +0.022 C 
ATOM     20  C   UNL     1       0.139  -4.332   4.620  0.00  0.00    +0.002 C 
ATOM     21  C   UNL     1      -0.156  -5.821   4.430  0.00  0.00    +0.000 C 
ATOM     22  C   UNL     1      -0.575  -6.077   2.981  0.00  0.00    +0.002 C 
ATOM     23  C   UNL     1       0.557  -5.657   2.041  0.00  0.00    +0.022 C 
ENDBRANCH  16  18
ENDBRANCH   1  14
BRANCH   1  24
ATOM     24  N   UNL     1       3.671  -0.757   0.421  0.00  0.00    -0.251 N 
ATOM     25  C   UNL     1       4.559  -0.108  -0.359  0.00  0.00    +0.255 C 
ATOM     26  O   UNL     1       4.901  -0.590  -1.421  0.00  0.00    -0.269 OA
BRANCH  24  30
ATOM     27  C   UNL     1       2.384   0.963   3.990  0.00  0.00    +0.000 A 
ATOM     28  C   UNL     1       2.308   1.681   2.811  0.00  0.00    +0.002 A 
ATOM     29  C   UNL     1       2.734   1.114   1.626  0.00  0.00    +0.023 A 
ATOM     30  C   UNL     1       3.239  -0.179   1.619  0.00  0.00    +0.038 A 
ATOM     31  C   UNL     1       3.315  -0.898   2.805  0.00  0.00    +0.023 A 
ATOM     32  C   UNL     1       2.887  -0.325   3.986  0.00  0.00    +0.002 A 
ENDBRANCH  24  30
BRANCH  25  33
ATOM     33  C   UNL     1       5.115   1.187   0.077  0.00  0.00    +0.081 A 
ATOM     34  C   UNL     1       5.251   1.470   1.438  0.00  0.00    +0.049 A 
ATOM     35  C   UNL     1       5.771   2.682   1.839  0.00  0.00    +0.127 A 
ATOM     36  C   UNL     1       6.159   3.622   0.898  0.00  0.00    +0.036 A 
ATOM     37  C   UNL     1       6.029   3.355  -0.451  0.00  0.00    +0.048 A 
ATOM     38  C   UNL     1       5.514   2.138  -0.872  0.00  0.00    +0.129 A 
BRANCH  35  39
ATOM     39  N   UNL     1       5.916   2.981   3.281  0.00  0.00    +0.056 N 
ATOM     40  O   UNL     1       5.663   2.131   4.103  0.00  0.00    -0.126 OA
ATOM     41  O   UNL     1       6.287   4.075   3.638  0.00  0.00    -0.126 OA
ENDBRANCH  35  39
BRANCH  38  42
ATOM     42  O   UNL     1       5.392   1.872  -2.196  0.00  0.00    -0.506 OA
ATOM     43  H   UNL     1       4.544   2.141  -2.575  0.00  0.00    +0.292 HD
ENDBRANCH  38  42
ENDBRANCH  25  33
ENDBRANCH   1  24
TORSDOF 11
