REMARK  Name = ZINC01181079
REMARK  7 active torsions:
REMARK  status: ('A' for Active; 'I' for Inactive)
REMARK    1  A    between atoms: C_1  and  C_2
REMARK    2  A    between atoms: C_3  and  C_21
REMARK    3  A    between atoms: C_7  and  N_8
REMARK    4  A    between atoms: N_8  and  C_9
REMARK    5  A    between atoms: C_9  and  N_11
REMARK    6  A    between atoms: C_12  and  C_14
REMARK    7  A    between atoms: C_15  and  C_16
REMARK                            x       y       z     vdW  Elec       q    Type
REMARK                         _______ _______ _______ _____ _____    ______ ____
ROOT
ATOM      1  C   UNL     1       2.471   3.901   0.377  0.00  0.00    +0.046 C 
ATOM      2  C   UNL     1       1.172   3.164   0.179  0.00  0.00    -0.017 A 
ATOM      3  C   UNL     1       1.149   1.769   0.198  0.00  0.00    +0.042 A 
ATOM      4  C   UNL     1      -0.059   1.093   0.015  0.00  0.00    +0.013 A 
ATOM      5  C   UNL     1      -1.223   1.805  -0.190  0.00  0.00    +0.003 A 
ATOM      6  C   UNL     1      -1.201   3.187  -0.204  0.00  0.00    +0.023 A 
ATOM      7  C   UNL     1      -0.004   3.869  -0.022  0.00  0.00    +0.036 A 
ENDROOT
BRANCH   3   8
ATOM      8  C   UNL     1       2.399   1.010   0.412  0.00  0.00    +0.229 A 
ATOM      9  N   UNL     1       2.536   0.008   1.243  0.00  0.00    -0.209 NA
ATOM     10  C   UNL     1       3.814  -0.444   1.176  0.00  0.00    +0.111 A 
ATOM     11  C   UNL     1       4.511  -1.467   1.823  0.00  0.00    +0.051 A 
ATOM     12  C   UNL     1       5.840  -1.682   1.528  0.00  0.00    +0.043 A 
ATOM     13  C   UNL     1       6.489  -0.887   0.593  0.00  0.00    +0.024 A 
ATOM     14  C   UNL     1       5.813   0.127  -0.053  0.00  0.00    +0.050 A 
ATOM     15  C   UNL     1       4.476   0.357   0.231  0.00  0.00    +0.156 A 
ATOM     16  O   UNL     1       3.562   1.243  -0.225  0.00  0.00    -0.435 OA
ATOM     17 CL   UNL     1       6.707  -2.954   2.331  0.00  0.00    -0.083 Cl
ENDBRANCH   3   8
BRANCH   7  18
ATOM     18  N   UNL     1       0.014   5.268  -0.042  0.00  0.00    -0.296 N 
ATOM     19  H   UNL     1       0.685   5.737  -0.561  0.00  0.00    +0.154 HD
BRANCH  18  20
ATOM     20  C   UNL     1      -0.902   5.963   0.661  0.00  0.00    +0.141 C 
ATOM     21  S   UNL     1      -2.159   5.139   1.480  0.00  0.00    -0.018 S 
BRANCH  20  22
ATOM     22  N   UNL     1      -0.829   7.308   0.718  0.00  0.00    -0.264 N 
ATOM     23  C   UNL     1      -1.745   8.004   1.421  0.00  0.00    +0.242 C 
ATOM     24  O   UNL     1      -2.639   7.417   2.003  0.00  0.00    -0.270 OA
ATOM     25  H   UNL     1      -0.117   7.775   0.254  0.00  0.00    +0.157 HD
BRANCH  23  26
ATOM     26  C   UNL     1      -1.668   9.414   1.481  0.00  0.00    +0.071 C 
ATOM     27  C   UNL     1      -2.591  10.114   2.188  0.00  0.00    +0.051 C 
BRANCH  27  28
ATOM     28  C   UNL     1      -2.514  11.527   2.248  0.00  0.00    +0.128 A 
ATOM     29  C   UNL     1      -3.383  12.360   2.922  0.00  0.00    +0.049 A 
ATOM     30  C   UNL     1      -2.924  13.669   2.711  0.00  0.00    +0.042 A 
ATOM     31  C   UNL     1      -1.825  13.587   1.928  0.00  0.00    +0.195 A 
ATOM     32  O   UNL     1      -1.581  12.298   1.652  0.00  0.00    -0.464 OA
ENDBRANCH  27  28
ENDBRANCH  23  26
ENDBRANCH  20  22
ENDBRANCH  18  20
ENDBRANCH   7  18
TORSDOF 6
