REMARK  Name = ZINC39676112
REMARK  6 active torsions:
REMARK  status: ('A' for Active; 'I' for Inactive)
REMARK    1  A    between atoms: C_4  and  C_7
REMARK    2  A    between atoms: C_7  and  N_8
REMARK    3  A    between atoms: C_10  and  C_13
REMARK    4  A    between atoms: C_13  and  N_14
REMARK    5  A    between atoms: C_15  and  C_17
REMARK    6  A    between atoms: C_28  and  C_30
REMARK                            x       y       z     vdW  Elec       q    Type
REMARK                         _______ _______ _______ _____ _____    ______ ____
ROOT
ATOM      1  C   UNL     1       9.519  -3.584   4.885  0.00  0.00    +0.100 C 
ATOM      2  C   UNL     1       9.506  -4.515   3.651  0.00  0.00    +0.121 C 
ATOM      3  N   UNL     1      10.592  -5.490   3.907  0.00  0.00    -0.300 N 
ATOM      4  C   UNL     1      10.494  -5.779   5.357  0.00  0.00    +0.115 C 
ATOM      5  C   UNL     1      10.168  -4.418   6.002  0.00  0.00    -0.004 C 
ATOM      6  C   UNL     1       9.190  -4.603   7.159  0.00  0.00    -0.010 C 
ATOM      7  C   UNL     1       9.877  -5.385   8.282  0.00  0.00    -0.082 C 
ATOM      8  N   UNL     1      11.067  -4.653   8.733  0.00  0.00    +0.379 N 
ATOM      9  C   UNL     1      12.043  -4.561   7.640  0.00  0.00    -0.082 C 
ATOM     10  C   UNL     1      11.447  -3.744   6.490  0.00  0.00    -0.010 C 
ATOM     11  C   UNL     1      11.471  -5.998   3.020  0.00  0.00    +0.219 C 
ATOM     12  O   UNL     1      11.475  -5.600   1.874  0.00  0.00    -0.275 OA
ATOM     13  H   UNL     1      10.800  -3.725   9.023  0.00  0.00    -0.086 HD
ATOM     14  H   UNL     1      11.484  -5.139   9.513  0.00  0.00    -0.086 HD
ENDROOT
BRANCH  11  15
ATOM     15  C   UNL     1      12.448  -7.060   3.453  0.00  0.00    +0.079 C 
ATOM     16  C   UNL     1      13.686  -7.022   2.547  0.00  0.00    +0.017 C 
ATOM     17  C   UNL     1      14.731  -7.984   3.115  0.00  0.00    +0.027 C 
ATOM     18  C   UNL     1      14.106  -9.318   3.400  0.00  0.00    -0.031 C 
ATOM     19  C   UNL     1      12.831  -9.515   3.496  0.00  0.00    -0.030 C 
ATOM     20  C   UNL     1      11.796  -8.439   3.331  0.00  0.00    +0.039 C 
ENDBRANCH  11  15
BRANCH   1  22
ATOM     21  N   UNL     1       7.882  -2.026   5.891  0.00  0.00    -0.311 N 
ATOM     22  C   UNL     1       8.114  -3.198   5.266  0.00  0.00    +0.218 C 
ATOM     23  O   UNL     1       7.190  -3.942   5.012  0.00  0.00    -0.275 OA
ATOM     24  H   UNL     1       8.620  -1.431   6.094  0.00  0.00    +0.149 HD
BRANCH  21  25
ATOM     25  C   UNL     1       6.515  -1.651   6.262  0.00  0.00    +0.142 C 
BRANCH  25  28
ATOM     26  N   UNL     1       6.471   1.849   7.283  0.00  0.00    -0.267 N 
ATOM     27  C   UNL     1       6.410   0.896   6.330  0.00  0.00    +0.113 A 
ATOM     28  C   UNL     1       6.530  -0.306   6.941  0.00  0.00    +0.007 A 
ATOM     29  C   UNL     1       6.671  -0.079   8.314  0.00  0.00    +0.139 A 
ATOM     30  N   UNL     1       6.641   1.213   8.519  0.00  0.00    -0.179 NA
BRANCH  26  31
ATOM     31  C   UNL     1       6.383   3.295   7.063  0.00  0.00    +0.178 C 
BRANCH  31  35
ATOM     32  C   UNL     1       3.266   4.919   9.491  0.00  0.00    +0.000 A 
ATOM     33  C   UNL     1       4.555   4.838   9.984  0.00  0.00    +0.000 A 
ATOM     34  C   UNL     1       5.564   4.313   9.198  0.00  0.00    +0.005 A 
ATOM     35  C   UNL     1       5.283   3.867   7.920  0.00  0.00    -0.026 A 
ATOM     36  C   UNL     1       3.994   3.947   7.428  0.00  0.00    +0.005 A 
ATOM     37  C   UNL     1       2.986   4.474   8.213  0.00  0.00    +0.000 A 
ENDBRANCH  31  35
ENDBRANCH  26  31
ENDBRANCH  25  28
ENDBRANCH  21  25
ENDBRANCH   1  22
TORSDOF 6
