REMARK  Name = ZINC31055869
REMARK  9 active torsions:
REMARK  status: ('A' for Active; 'I' for Inactive)
REMARK    1  A    between atoms: C_3  and  C_9
REMARK    2  A    between atoms: C_11  and  C_14
REMARK    3  A    between atoms: C_14  and  N_15
REMARK    4  A    between atoms: C_19  and  C_22
REMARK    5  A    between atoms: N_24  and  C_25
REMARK    6  A    between atoms: C_25  and  C_26
REMARK    7  A    between atoms: C_26  and  C_27
REMARK    8  A    between atoms: C_27  and  O_28
REMARK    9  A    between atoms: O_28  and  C_29
REMARK                            x       y       z     vdW  Elec       q    Type
REMARK                         _______ _______ _______ _____ _____    ______ ____
ROOT
ATOM      1  N   UNL     1      -5.787  -6.459   0.001  0.00  0.00    +0.386 N 
ATOM      2  C   UNL     1      -6.502  -6.029  -1.206  0.00  0.00    -0.078 C 
ATOM      3  C   UNL     1      -6.585  -4.501  -1.234  0.00  0.00    -0.018 C 
ATOM      4  C   UNL     1      -5.169  -3.918  -1.222  0.00  0.00    +0.009 C 
ATOM      5  C   UNL     1      -4.429  -4.420   0.021  0.00  0.00    +0.058 C 
ATOM      6  C   UNL     1      -4.409  -5.951   0.012  0.00  0.00    -0.065 C 
ATOM      7  H   UNL     1      -6.309  -6.032   0.871  0.00  0.00    -0.081 HD
ENDROOT
BRANCH   5   8
ATOM      8  C   UNL     1      -3.015  -3.899   0.010  0.00  0.00    +0.214 C 
ATOM      9  O   UNL     1      -2.083  -4.674  -0.003  0.00  0.00    -0.276 OA
ATOM     10  N   UNL     1      -2.787  -2.571   0.015  0.00  0.00    -0.315 N 
ATOM     11  H   UNL     1      -3.633  -1.867   0.027  0.00  0.00    +0.149 HD
BRANCH  10  12
ATOM     12  C   UNL     1      -1.413  -2.063   0.004  0.00  0.00    +0.106 C 
BRANCH  12  13
ATOM     13  C   UNL     1      -1.433  -0.534   0.013  0.00  0.00    +0.047 C 
BRANCH  13  14
ATOM     14  C   UNL     1       0.002  -0.004   0.002  0.00  0.00    +0.161 C 
BRANCH  14  15
ATOM     15  O   UNL     1      -0.017   1.425   0.010  0.00  0.00    -0.377 OA
BRANCH  15  16
ATOM     16  C   UNL     1       1.280   2.024   0.001  0.00  0.00    +0.118 C 
ATOM     17  C   UNL     1       1.757   2.230   1.440  0.00  0.00    +0.031 C 
ATOM     18  C   UNL     1       3.146   2.871   1.430  0.00  0.00    +0.003 C 
ATOM     19  C   UNL     1       3.079   4.223   0.717  0.00  0.00    +0.000 C 
ATOM     20  C   UNL     1       2.602   4.017  -0.723  0.00  0.00    +0.003 C 
ATOM     21  C   UNL     1       1.213   3.376  -0.713  0.00  0.00    +0.031 C 
ENDBRANCH  15  16
ENDBRANCH  14  15
ENDBRANCH  13  14
ENDBRANCH  12  13
ENDBRANCH  10  12
ENDBRANCH   5   8
BRANCH   1  22
ATOM     22  C   UNL     1      -5.809  -7.922   0.133  0.00  0.00    +0.022 C 
BRANCH  22  25
ATOM     23  C   UNL     1      -8.972  -9.167  -1.036  0.00  0.00    +0.203 A 
ATOM     24  N   UNL     1      -7.700  -8.781  -1.287  0.00  0.00    -0.193 NA
ATOM     25  C   UNL     1      -7.204  -8.429  -0.127  0.00  0.00    +0.211 A 
ATOM     26  O   UNL     1      -8.169  -8.598   0.782  0.00  0.00    -0.340 OA
ATOM     27  N   UNL     1      -9.173  -9.020   0.248  0.00  0.00    -0.056 NA
BRANCH  23  30
ATOM     28  C   UNL     1     -12.152 -10.475  -2.555  0.00  0.00    +0.021 A 
ATOM     29  C   UNL     1     -11.240 -10.018  -1.626  0.00  0.00    +0.014 A 
ATOM     30  C   UNL     1      -9.956  -9.659  -2.031  0.00  0.00    +0.041 A 
ATOM     31  C   UNL     1      -9.601  -9.758  -3.376  0.00  0.00    +0.053 A 
ATOM     32  C   UNL     1     -10.520 -10.222  -4.297  0.00  0.00    +0.040 A 
ATOM     33  C   UNL     1     -11.794 -10.577  -3.889  0.00  0.00    +0.042 A 
ATOM     34 CL   UNL     1     -12.946 -11.153  -5.052  0.00  0.00    -0.083 Cl
ATOM     35 CL   UNL     1      -8.006  -9.305  -3.890  0.00  0.00    -0.083 Cl
ENDBRANCH  23  30
ENDBRANCH  22  25
ENDBRANCH   1  22
TORSDOF 9
