REMARK  Name = ZINC01061810
REMARK  5 active torsions:
REMARK  status: ('A' for Active; 'I' for Inactive)
REMARK    1  A    between atoms: C_6  and  C_7
REMARK    2  A    between atoms: C_9  and  C_31
REMARK    3  A    between atoms: C_10  and  N_30
REMARK    4  A    between atoms: N_11  and  C_19
REMARK    5  A    between atoms: C_20  and  C_28
REMARK                            x       y       z     vdW  Elec       q    Type
REMARK                         _______ _______ _______ _____ _____    ______ ____
ROOT
ATOM      1  C   UNL     1      -3.438   9.275  -2.268  0.00  0.00    +0.097 C 
ATOM      2  C   UNL     1      -2.772   9.063  -0.941  0.00  0.00    +0.077 C 
ATOM      3  C   UNL     1      -2.086   7.922  -0.674  0.00  0.00    +0.107 C 
ATOM      4  N   UNL     1      -1.984   6.938  -1.632  0.00  0.00    -0.253 N 
ATOM      5  C   UNL     1      -2.195   7.230  -2.955  0.00  0.00    +0.025 C 
ATOM      6  C   UNL     1      -2.890   8.333  -3.311  0.00  0.00    +0.025 C 
ATOM      7  C   UNL     1      -3.120   8.638  -4.664  0.00  0.00    +0.162 C 
ATOM      8  O   UNL     1      -3.733   9.648  -4.952  0.00  0.00    -0.292 OA
ATOM      9  C   UNL     1      -2.623   7.739  -5.762  0.00  0.00    +0.080 C 
ATOM     10  C   UNL     1      -2.546   6.302  -5.233  0.00  0.00    +0.014 C 
ATOM     11  C   UNL     1      -1.645   6.289  -3.996  0.00  0.00    +0.052 C 
ENDROOT
BRANCH   1  17
ATOM     12  C   UNL     1      -5.384   7.806  -1.706  0.00  0.00    +0.008 A 
ATOM     13  C   UNL     1      -6.742   7.587  -1.564  0.00  0.00    +0.050 A 
ATOM     14  C   UNL     1      -7.641   8.601  -1.849  0.00  0.00    +0.166 A 
ATOM     15  C   UNL     1      -7.173   9.843  -2.272  0.00  0.00    +0.167 A 
ATOM     16  C   UNL     1      -5.811  10.057  -2.406  0.00  0.00    +0.054 A 
ATOM     17  C   UNL     1      -4.920   9.040  -2.121  0.00  0.00    -0.031 A 
ATOM     18  O   UNL     1      -8.244  10.663  -2.486  0.00  0.00    -0.453 OA
ATOM     19  C   UNL     1      -9.347  10.042  -1.800  0.00  0.00    +0.466 C 
ATOM     20  O   UNL     1      -9.004   8.643  -1.798  0.00  0.00    -0.453 OA
ENDBRANCH   1  17
BRANCH   4  21
ATOM     21  C   UNL     1      -1.658   5.641  -1.257  0.00  0.00    +0.095 A 
ATOM     22  C   UNL     1      -0.400   5.071  -1.130  0.00  0.00    +0.084 A 
ATOM     23  C   UNL     1      -0.331   3.680  -0.717  0.00  0.00    -0.018 A 
ATOM     24  C   UNL     1      -1.525   3.085  -0.499  0.00  0.00    -0.004 A 
ATOM     25  S   UNL     1      -2.725   4.343  -0.833  0.00  0.00    -0.076 S 
ATOM     26  C   UNL     1      -1.764   1.671  -0.069  0.00  0.00    +0.043 C 
ATOM     27  C   UNL     1      -0.464   0.878  -0.272  0.00  0.00    +0.005 C 
ATOM     28  C   UNL     1       0.701   1.675   0.322  0.00  0.00    +0.005 C 
ATOM     29  C   UNL     1       0.973   2.914  -0.532  0.00  0.00    +0.037 C 
BRANCH  22  30
ATOM     30  C   UNL     1       0.787   5.826  -1.395  0.00  0.00    +0.102 C 
ATOM     31  N   UNL     1       1.729   6.425  -1.606  0.00  0.00    -0.191 NA
ENDBRANCH  22  30
ENDBRANCH   4  21
BRANCH   3  32
ATOM     32  N   UNL     1      -1.493   7.749   0.553  0.00  0.00    -0.345 N 
ATOM     33  H   UNL     1      -0.930   6.976   0.716  0.00  0.00    +0.144 HD
ATOM     34  H   UNL     1      -1.637   8.400   1.258  0.00  0.00    +0.144 HD
ENDBRANCH   3  32
BRANCH   2  35
ATOM     35  C   UNL     1      -2.862  10.081   0.062  0.00  0.00    +0.099 C 
ATOM     36  N   UNL     1      -2.933  10.889   0.857  0.00  0.00    -0.191 NA
ENDBRANCH   2  35
TORSDOF 5
