REMARK  Name = ZINC45798198
REMARK  9 active torsions:
REMARK  status: ('A' for Active; 'I' for Inactive)
REMARK    1  A    between atoms: C_1  and  C_2
REMARK    2  A    between atoms: C_2  and  C_4
REMARK    3  A    between atoms: C_2  and  N_14
REMARK    4  A    between atoms: C_15  and  C_17
REMARK    5  A    between atoms: C_17  and  O_18
REMARK    6  A    between atoms: O_18  and  C_19
REMARK    7  A    between atoms: C_19  and  C_21
REMARK    8  A    between atoms: C_22  and  S_26
REMARK    9  A    between atoms: S_26  and  N_29
REMARK                            x       y       z     vdW  Elec       q    Type
REMARK                         _______ _______ _______ _____ _____    ______ ____
ROOT
ATOM      1  C   UNL     1       0.493  -1.276  -3.575  0.00  0.00    +0.328 C 
ENDROOT
BRANCH   1   3
ATOM      2  N   UNL     1       0.592  -0.609  -1.195  0.00  0.00    -0.306 N 
ATOM      3  C   UNL     1      -0.113  -0.654  -2.343  0.00  0.00    +0.251 C 
ATOM      4  O   UNL     1      -1.234  -0.195  -2.386  0.00  0.00    -0.272 OA
ATOM      5  H   UNL     1       1.489  -0.976  -1.161  0.00  0.00    +0.149 HD
BRANCH   2   7
ATOM      6  C   UNL     1       0.268   1.503  -0.004  0.00  0.00    +0.033 C 
ATOM      7  C   UNL     1       0.002  -0.004   0.002  0.00  0.00    +0.101 C 
BRANCH   7   8
ATOM      8  C   UNL     1       0.620  -0.619   1.231  0.00  0.00    -0.020 A 
ATOM      9  C   UNL     1       1.876  -1.141   1.178  0.00  0.00    +0.006 A 
ATOM     10  C   UNL     1       2.464  -1.714   2.304  0.00  0.00    +0.001 A 
ATOM     11  C   UNL     1       1.799  -1.768   3.490  0.00  0.00    +0.008 A 
ATOM     12  C   UNL     1       0.501  -1.239   3.584  0.00  0.00    -0.018 A 
ATOM     13  C   UNL     1      -0.095  -0.651   2.440  0.00  0.00    -0.013 A 
ATOM     14  C   UNL     1      -1.391  -0.117   2.536  0.00  0.00    +0.009 A 
ATOM     15  C   UNL     1      -2.054  -0.165   3.724  0.00  0.00    +0.001 A 
ATOM     16  C   UNL     1      -1.466  -0.738   4.851  0.00  0.00    +0.001 A 
ATOM     17  C   UNL     1      -0.217  -1.277   4.792  0.00  0.00    +0.008 A 
ENDBRANCH   7   8
ENDBRANCH   2   7
ENDBRANCH   1   3
BRANCH   1  18
ATOM     18  O   UNL     1      -0.441  -1.205  -4.654  0.00  0.00    -0.451 OA
BRANCH  18  19
ATOM     19  C   UNL     1      -0.050  -1.721  -5.837  0.00  0.00    +0.348 C 
ATOM     20  O   UNL     1       1.054  -2.219  -5.949  0.00  0.00    -0.244 OA
BRANCH  19  21
ATOM     21  C   UNL     1      -0.956  -1.683  -6.987  0.00  0.00    +0.122 A 
ATOM     22  C   UNL     1      -0.754  -2.158  -8.275  0.00  0.00    +0.127 A 
ATOM     23  C   UNL     1      -1.799  -1.976  -9.148  0.00  0.00    +0.037 A 
ATOM     24  C   UNL     1      -2.927  -1.363  -8.709  0.00  0.00    +0.048 A 
ATOM     25  S   UNL     1      -2.607  -1.021  -7.095  0.00  0.00    -0.088 S 
BRANCH  22  26
ATOM     26  S   UNL     1       0.747  -2.943  -8.761  0.00  0.00    +0.062 S 
ATOM     27  O   UNL     1       1.031  -3.922  -7.771  0.00  0.00    -0.153 OA
ATOM     28  O   UNL     1       0.608  -3.269 -10.137  0.00  0.00    -0.153 OA
BRANCH  26  29
ATOM     29  N   UNL     1       1.948  -1.807  -8.662  0.00  0.00    -0.177 NA
ATOM     30  C   UNL     1       2.362  -0.902  -9.744  0.00  0.00    +0.109 C 
ATOM     31  C   UNL     1       3.526  -0.045  -9.204  0.00  0.00    +0.018 C 
ATOM     32  C   UNL     1       4.077  -0.903  -8.035  0.00  0.00    +0.018 C 
ATOM     33  C   UNL     1       2.775  -1.532  -7.473  0.00  0.00    +0.109 C 
ENDBRANCH  26  29
ENDBRANCH  22  26
ENDBRANCH  19  21
ENDBRANCH  18  19
ENDBRANCH   1  18
TORSDOF 8
