REMARK  Name = ZINC53127186
REMARK  4 active torsions:
REMARK  status: ('A' for Active; 'I' for Inactive)
REMARK    1  A    between atoms: C_9  and  C_12
REMARK    2  A    between atoms: N_14  and  C_15
REMARK    3  A    between atoms: C_15  and  C_21
REMARK    4  A    between atoms: C_21  and  O_22
REMARK                            x       y       z     vdW  Elec       q    Type
REMARK                         _______ _______ _______ _____ _____    ______ ____
ROOT
ATOM      1  C   UNL     1       5.138  -2.465   0.091  0.00  0.00    +0.256 C 
ATOM      2  O   UNL     1       6.023  -1.880  -0.497  0.00  0.00    -0.272 OA
ATOM      3  N   UNL     1       5.300  -3.756   0.441  0.00  0.00    -0.304 N 
ATOM      4  H   UNL     1       4.626  -4.202   0.977  0.00  0.00    +0.149 HD
ENDROOT
BRANCH   1  13
ATOM      5  C   UNL     1       0.526   1.929   0.118  0.00  0.00    +0.002 A 
ATOM      6  C   UNL     1       1.771   2.530   0.156  0.00  0.00    +0.004 A 
ATOM      7  C   UNL     1       2.918   1.759   0.135  0.00  0.00    +0.047 A 
ATOM      8  C   UNL     1       2.826   0.377   0.077  0.00  0.00    +0.142 A 
ATOM      9  C   UNL     1       1.571  -0.226   0.041  0.00  0.00    +0.070 A 
ATOM     10  C   UNL     1       0.424   0.551   0.061  0.00  0.00    +0.026 A 
ATOM     11  N   UNL     1       1.472  -1.626  -0.010  0.00  0.00    -0.337 N 
ATOM     12  C   UNL     1       2.690  -2.386  -0.337  0.00  0.00    +0.155 C 
ATOM     13  C   UNL     1       3.857  -1.748   0.431  0.00  0.00    +0.275 C 
ATOM     14  O   UNL     1       3.959  -0.373   0.052  0.00  0.00    -0.476 OA
ATOM     15  H   UNL     1       0.631  -2.076   0.165  0.00  0.00    +0.146 HD
ENDBRANCH   1  13
BRANCH   3  16
ATOM     16  C   UNL     1       6.495  -4.487   0.012  0.00  0.00    +0.058 C 
ATOM     17  C   UNL     1       6.398  -5.942   0.476  0.00  0.00    +0.028 C 
ATOM     18  C   UNL     1       6.294  -5.985   2.002  0.00  0.00    +0.002 C 
ATOM     19  C   UNL     1       7.536  -5.336   2.616  0.00  0.00    +0.000 C 
ATOM     20  C   UNL     1       7.634  -3.881   2.152  0.00  0.00    +0.002 C 
ATOM     21  C   UNL     1       7.737  -3.838   0.626  0.00  0.00    +0.028 C 
BRANCH  16  22
ATOM     22  C   UNL     1       6.599  -4.444  -1.514  0.00  0.00    +0.181 C 
BRANCH  22  23
ATOM     23  O   UNL     1       5.385  -4.933  -2.088  0.00  0.00    -0.393 OA
ATOM     24  H   UNL     1       5.380  -4.934  -3.055  0.00  0.00    +0.209 HD
ENDBRANCH  22  23
ENDBRANCH  16  22
ENDBRANCH   3  16
TORSDOF 4
