REMARK  Name = ZINC06194710
REMARK  12 active torsions:
REMARK  status: ('A' for Active; 'I' for Inactive)
REMARK    1  A    between atoms: C_1  and  C_2
REMARK    2  A    between atoms: C_2  and  O_3
REMARK    3  A    between atoms: O_3  and  C_4
REMARK    4  A    between atoms: C_4  and  C_6
REMARK    5  A    between atoms: C_11  and  C_13
REMARK    6  A    between atoms: C_11  and  C_26
REMARK    7  A    between atoms: C_11  and  N_70
REMARK    8  A    between atoms: C_19  and  C_25
REMARK    9  A    between atoms: N_30  and  C_31
REMARK   10  A    between atoms: C_31  and  C_32
REMARK   11  A    between atoms: C_35  and  O_38
REMARK   12  A    between atoms: O_38  and  C_39
REMARK                            x       y       z     vdW  Elec       q    Type
REMARK                         _______ _______ _______ _____ _____    ______ ____
ROOT
ATOM      1  C   UNL     1       1.619   2.404  -2.500  0.00  0.00    +0.039 C 
ENDROOT
BRANCH   1   2
ATOM      2  C   UNL     1       2.314   1.146  -2.954  0.00  0.00    +0.011 A 
ATOM      3  C   UNL     1       2.860   0.308  -2.038  0.00  0.00    +0.017 A 
ATOM      4  C   UNL     1       3.525  -0.907  -2.511  0.00  0.00    -0.001 A 
ATOM      5  C   UNL     1       4.103  -1.812  -1.615  0.00  0.00    +0.010 A 
ATOM      6  C   UNL     1       4.721  -2.934  -2.089  0.00  0.00    +0.001 A 
ATOM      7  C   UNL     1       4.780  -3.186  -3.453  0.00  0.00    +0.005 A 
ATOM      8  C   UNL     1       4.217  -2.309  -4.354  0.00  0.00    -0.026 A 
ATOM      9  C   UNL     1       3.583  -1.159  -3.895  0.00  0.00    +0.052 A 
ATOM     10  N   UNL     1       3.012  -0.264  -4.775  0.00  0.00    -0.322 N 
ATOM     11  H   UNL     1       3.055  -0.444  -5.758  0.00  0.00    +0.169 HD
ATOM     12  C   UNL     1       2.400   0.848  -4.331  0.00  0.00    +0.251 A 
ATOM     13  O   UNL     1       1.906   1.617  -5.137  0.00  0.00    -0.268 OA
ATOM     14  C   UNL     1       4.288  -2.594  -5.832  0.00  0.00    +0.046 C 
ENDBRANCH   1   2
BRANCH   1  20
ATOM     15  C   UNL     1       3.786   6.051  -3.034  0.00  0.00    +0.094 C 
ATOM     16  C   UNL     1       2.294   6.004  -3.373  0.00  0.00    -0.004 C 
ATOM     17  C   UNL     1       1.648   4.820  -2.650  0.00  0.00    -0.077 C 
ATOM     18  C   UNL     1       3.727   3.576  -2.710  0.00  0.00    -0.077 C 
ATOM     19  C   UNL     1       4.434   4.723  -3.436  0.00  0.00    -0.004 C 
ATOM     20  N   UNL     1       2.300   3.571  -3.098  0.00  0.00    +0.389 N 
ATOM     21  H   UNL     1       2.233   3.508  -4.120  0.00  0.00    -0.080 HD
BRANCH  15  22
ATOM     22  C   UNL     1       4.439   7.179  -3.789  0.00  0.00    +0.310 C 
ATOM     23  O   UNL     1       3.780   7.876  -4.524  0.00  0.00    -0.251 OA
BRANCH  22  24
ATOM     24  O   UNL     1       5.754   7.411  -3.646  0.00  0.00    -0.465 OA
BRANCH  24  26
ATOM     25  C   UNL     1       7.813   8.623  -4.114  0.00  0.00    +0.048 C 
ATOM     26  C   UNL     1       6.315   8.515  -4.404  0.00  0.00    +0.229 C 
ENDBRANCH  24  26
ENDBRANCH  22  24
ENDBRANCH  15  22
ENDBRANCH   1  20
BRANCH   1  27
ATOM     27  C   UNL     1       1.655   2.483  -0.995  0.00  0.00    +0.143 A 
ATOM     28  N   UNL     1       2.702   2.740  -0.250  0.00  0.00    -0.115 NA
ATOM     29  N   UNL     1       2.327   2.718   0.983  0.00  0.00    -0.023 NA
ATOM     30  N   UNL     1       1.068   2.459   1.043  0.00  0.00    -0.044 NA
ATOM     31  N   UNL     1       0.618   2.302  -0.156  0.00  0.00    -0.226 N 
BRANCH  31  32
ATOM     32  C   UNL     1      -0.763   1.991  -0.534  0.00  0.00    +0.182 C 
BRANCH  32  33
ATOM     33  C   UNL     1      -0.977   0.501  -0.472  0.00  0.00    -0.026 A 
ATOM     34  C   UNL     1      -0.853  -0.262  -1.619  0.00  0.00    +0.009 A 
ATOM     35  C   UNL     1      -1.044  -1.629  -1.564  0.00  0.00    +0.046 A 
ATOM     36  C   UNL     1      -1.371  -2.235  -0.360  0.00  0.00    +0.120 A 
ATOM     37  C   UNL     1      -1.500  -1.467   0.788  0.00  0.00    +0.046 A 
ATOM     38  C   UNL     1      -1.303  -0.101   0.729  0.00  0.00    +0.009 A 
BRANCH  36  39
ATOM     39  O   UNL     1      -1.563  -3.579  -0.304  0.00  0.00    -0.495 OA
ATOM     40  C   UNL     1      -1.414  -4.307  -1.525  0.00  0.00    +0.277 C 
ENDBRANCH  36  39
ENDBRANCH  32  33
ENDBRANCH  31  32
ENDBRANCH   1  27
TORSDOF 9
