REMARK  Name = ZINC39669404
REMARK  7 active torsions:
REMARK  status: ('A' for Active; 'I' for Inactive)
REMARK    1  A    between atoms: C_1  and  C_2
REMARK    2  A    between atoms: C_2  and  O_3
REMARK    3  A    between atoms: O_3  and  C_4
REMARK    4  A    between atoms: C_9  and  C_10
REMARK    5  A    between atoms: C_14  and  C_23
REMARK    6  A    between atoms: N_25  and  C_26
REMARK    7  A    between atoms: C_26  and  C_27
REMARK                            x       y       z     vdW  Elec       q    Type
REMARK                         _______ _______ _______ _____ _____    ______ ____
ROOT
ATOM      1  C   UNL     1       2.057  -1.626   3.289  0.00  0.00    +0.250 C 
ATOM      2  O   UNL     1       1.964  -0.426   3.116  0.00  0.00    -0.270 OA
ATOM      3  N   UNL     1       2.567  -2.103   4.441  0.00  0.00    -0.296 N 
ATOM      4  C   UNL     1       2.858  -3.513   4.790  0.00  0.00    +0.121 C 
ATOM      5  C   UNL     1       4.189  -3.455   5.574  0.00  0.00    +0.100 C 
ATOM      6  C   UNL     1       4.252  -2.024   6.134  0.00  0.00    -0.004 C 
ATOM      7  C   UNL     1       2.971  -1.335   5.643  0.00  0.00    +0.115 C 
ATOM      8  C   UNL     1       5.477  -1.297   5.589  0.00  0.00    -0.010 C 
ATOM      9  C   UNL     1       5.550   0.103   6.204  0.00  0.00    -0.082 C 
ATOM     10  N   UNL     1       5.631  -0.006   7.666  0.00  0.00    +0.379 N 
ATOM     11  C   UNL     1       4.407  -0.624   8.191  0.00  0.00    -0.082 C 
ATOM     12  C   UNL     1       4.286  -2.054   7.659  0.00  0.00    -0.010 C 
ATOM     13  H   UNL     1       6.426  -0.575   7.916  0.00  0.00    -0.086 HD
ATOM     14  H   UNL     1       5.740   0.914   8.065  0.00  0.00    -0.086 HD
ENDROOT
BRANCH   1  20
ATOM     15  C   UNL     1       1.754  -2.217   0.885  0.00  0.00    +0.133 A 
ATOM     16  C   UNL     1       1.338  -3.105  -0.096  0.00  0.00    +0.046 A 
ATOM     17  C   UNL     1       0.780  -4.317   0.259  0.00  0.00    +0.004 A 
ATOM     18  C   UNL     1       0.632  -4.656   1.594  0.00  0.00    +0.001 A 
ATOM     19  C   UNL     1       1.040  -3.786   2.582  0.00  0.00    +0.017 A 
ATOM     20  C   UNL     1       1.612  -2.559   2.236  0.00  0.00    +0.078 A 
BRANCH  15  21
ATOM     21  O   UNL     1       2.303  -1.026   0.537  0.00  0.00    -0.491 OA
BRANCH  21  23
ATOM     22  C   UNL     1       3.052   0.631  -1.054  0.00  0.00    +0.048 C 
ATOM     23  C   UNL     1       2.416  -0.747  -0.860  0.00  0.00    +0.226 C 
ENDBRANCH  21  23
ENDBRANCH  15  21
ENDBRANCH   1  20
BRANCH   5  24
ATOM     24  C   UNL     1       4.181  -4.461   6.697  0.00  0.00    +0.218 C 
ATOM     25  O   UNL     1       3.137  -4.756   7.239  0.00  0.00    -0.275 OA
ATOM     26  N   UNL     1       5.334  -5.032   7.098  0.00  0.00    -0.315 N 
ATOM     27  H   UNL     1       6.169  -4.796   6.664  0.00  0.00    +0.149 HD
BRANCH  26  28
ATOM     28  C   UNL     1       5.326  -6.010   8.189  0.00  0.00    +0.109 C 
BRANCH  28  29
ATOM     29  C   UNL     1       6.753  -6.500   8.444  0.00  0.00    +0.024 C 
ATOM     30  C   UNL     1       6.731  -7.610   9.498  0.00  0.00    +0.008 C 
ATOM     31  C   UNL     1       8.153  -8.124   9.729  0.00  0.00    +0.019 C 
ATOM     32  C   UNL     1       9.027  -6.979  10.251  0.00  0.00    +0.108 C 
ATOM     33  N   UNL     1       8.938  -5.851   9.314  0.00  0.00    -0.299 N 
ATOM     34  C   UNL     1       7.611  -5.337   8.950  0.00  0.00    +0.113 C 
ATOM     35  C   UNL     1      10.084  -5.284   8.783  0.00  0.00    +0.218 A 
ATOM     36  N   UNL     1       9.971  -4.264   7.944  0.00  0.00    -0.223 NA
ATOM     37  C   UNL     1      11.046  -3.699   7.419  0.00  0.00    +0.116 A 
ATOM     38  C   UNL     1      12.299  -4.186   7.756  0.00  0.00    +0.039 A 
ATOM     39  C   UNL     1      12.380  -5.253   8.636  0.00  0.00    +0.116 A 
ATOM     40  N   UNL     1      11.267  -5.769   9.129  0.00  0.00    -0.223 NA
ENDBRANCH  28  29
ENDBRANCH  26  28
ENDBRANCH   5  24
TORSDOF 6
