REMARK  Name = ZINC40344983
REMARK  6 active torsions:
REMARK  status: ('A' for Active; 'I' for Inactive)
REMARK    1  A    between atoms: C_1  and  O_2
REMARK    2  A    between atoms: O_2  and  C_3
REMARK    3  A    between atoms: C_6  and  C_9
REMARK    4  A    between atoms: N_17  and  C_27
REMARK    5  A    between atoms: C_18  and  C_20
REMARK    6  A    between atoms: C_27  and  C_28
REMARK                            x       y       z     vdW  Elec       q    Type
REMARK                         _______ _______ _______ _____ _____    ______ ____
ROOT
ATOM      1  C   UNL     1       2.578  -2.541   4.295  0.00  0.00    +0.099 A 
ATOM      2  C   UNL     1       2.206  -3.754   4.885  0.00  0.00    +0.035 A 
ATOM      3  C   UNL     1       3.123  -3.980   5.894  0.00  0.00    +0.126 A 
ATOM      4  N   UNL     1       3.985  -2.920   5.867  0.00  0.00    -0.272 N 
ATOM      5  H   UNL     1       4.740  -2.801   6.464  0.00  0.00    +0.189 HD
ATOM      6  N   UNL     1       3.650  -2.107   4.930  0.00  0.00    -0.173 NA
ATOM      7  C   UNL     1       2.787  -5.245   6.556  0.00  0.00    +0.266 C 
ATOM      8  O   UNL     1       3.403  -5.726   7.487  0.00  0.00    -0.268 OA
ATOM      9  N   UNL     1       1.700  -5.796   5.987  0.00  0.00    -0.281 N 
ATOM     10  C   UNL     1       1.249  -4.915   4.903  0.00  0.00    +0.142 C 
ENDROOT
BRANCH  10  11
ATOM     11  C   UNL     1       1.298  -5.646   3.586  0.00  0.00    -0.021 A 
ATOM     12  C   UNL     1       2.313  -6.550   3.334  0.00  0.00    +0.006 A 
ATOM     13  C   UNL     1       2.358  -7.221   2.127  0.00  0.00    +0.001 A 
ATOM     14  C   UNL     1       1.387  -6.990   1.171  0.00  0.00    +0.015 A 
ATOM     15  C   UNL     1       0.371  -6.087   1.422  0.00  0.00    +0.018 A 
ATOM     16  C   UNL     1       0.323  -5.419   2.633  0.00  0.00    +0.021 A 
ATOM     17 BR   UNL     1      -0.958  -5.769   0.114  0.00  0.00    -0.050 Br
ENDBRANCH  10  11
BRANCH   1  21
ATOM     18  C   UNL     1       0.626  -0.618   1.041  0.00  0.00    +0.120 A 
ATOM     19  C   UNL     1       1.202   0.141   2.050  0.00  0.00    +0.046 A 
ATOM     20  C   UNL     1       1.835  -0.479   3.107  0.00  0.00    +0.013 A 
ATOM     21  C   UNL     1       1.897  -1.870   3.160  0.00  0.00    +0.003 A 
ATOM     22  C   UNL     1       1.317  -2.630   2.146  0.00  0.00    +0.013 A 
ATOM     23  C   UNL     1       0.681  -2.004   1.095  0.00  0.00    +0.046 A 
BRANCH  18  25
ATOM     24  C   UNL     1      -0.017   1.425   0.010  0.00  0.00    +0.277 C 
ATOM     25  O   UNL     1       0.002  -0.004   0.002  0.00  0.00    -0.495 OA
ENDBRANCH  18  25
ENDBRANCH   1  21
BRANCH   9  26
ATOM     26  C   UNL     1       1.072  -7.060   6.383  0.00  0.00    +0.144 C 
BRANCH  26  27
ATOM     27  C   UNL     1       0.023  -6.793   7.432  0.00  0.00    -0.026 A 
ATOM     28  C   UNL     1       0.368  -6.806   8.771  0.00  0.00    +0.009 A 
ATOM     29  C   UNL     1      -0.590  -6.561   9.736  0.00  0.00    +0.050 A 
ATOM     30  C   UNL     1      -1.899  -6.303   9.365  0.00  0.00    +0.166 A 
ATOM     31  C   UNL     1      -2.247  -6.291   8.016  0.00  0.00    +0.167 A 
ATOM     32  C   UNL     1      -1.280  -6.531   7.053  0.00  0.00    +0.054 A 
ATOM     33  O   UNL     1      -3.580  -6.016   7.912  0.00  0.00    -0.453 OA
ATOM     34  C   UNL     1      -4.127  -6.264   9.220  0.00  0.00    +0.466 C 
ATOM     35  O   UNL     1      -3.014  -6.036  10.105  0.00  0.00    -0.453 OA
ENDBRANCH  26  27
ENDBRANCH   9  26
TORSDOF 5
