REMARK  Name = ZINC36073591
REMARK  14 active torsions:
REMARK  status: ('A' for Active; 'I' for Inactive)
REMARK    1  A    between atoms: C_1  and  C_2
REMARK    2  A    between atoms: C_2  and  O_3
REMARK    3  A    between atoms: O_3  and  C_4
REMARK    4  A    between atoms: C_4  and  C_6
REMARK    5  A    between atoms: C_13  and  C_15
REMARK    6  A    between atoms: C_18  and  C_20
REMARK    7  A    between atoms: C_20  and  N_21
REMARK    8  A    between atoms: N_21  and  C_22
REMARK    9  A    between atoms: N_21  and  C_31
REMARK   10  A    between atoms: C_22  and  C_23
REMARK   11  A    between atoms: C_26  and  C_30
REMARK   12  A    between atoms: C_28  and  C_29
REMARK   13  A    between atoms: C_31  and  C_33
REMARK   14  A    between atoms: C_31  and  C_34
REMARK                            x       y       z     vdW  Elec       q    Type
REMARK                         _______ _______ _______ _____ _____    ______ ____
ROOT
ATOM      1  C   UNL     1       3.708  -5.758  -9.209  0.00  0.00    +0.020 C 
ENDROOT
BRANCH   1   5
ATOM      2  C   UNL     1       3.354  -2.757  -7.210  0.00  0.00    +0.164 A 
ATOM      3  C   UNL     1       4.274  -2.338  -8.121  0.00  0.00    +0.230 A 
ATOM      4  O   UNL     1       4.508  -3.371  -8.945  0.00  0.00    -0.449 OA
ATOM      5  C   UNL     1       3.748  -4.402  -8.551  0.00  0.00    +0.179 A 
ATOM      6  N   UNL     1       3.056  -4.051  -7.510  0.00  0.00    -0.210 NA
BRANCH   2  13
ATOM      7  C   UNL     1       1.839  -2.570  -2.760  0.00  0.00    +0.115 C 
ATOM      8  C   UNL     1       1.281  -3.991  -2.867  0.00  0.00    +0.018 C 
ATOM      9  C   UNL     1       1.925  -4.705  -4.058  0.00  0.00    +0.020 C 
ATOM     10  C   UNL     1       1.583  -3.952  -5.347  0.00  0.00    +0.108 C 
ATOM     11  N   UNL     1       1.986  -2.547  -5.195  0.00  0.00    -0.295 N 
ATOM     12  C   UNL     1       1.496  -1.792  -4.034  0.00  0.00    +0.122 C 
ATOM     13  C   UNL     1       2.791  -1.962  -6.104  0.00  0.00    +0.268 C 
ATOM     14  O   UNL     1       3.053  -0.778  -6.011  0.00  0.00    -0.268 OA
BRANCH   7  15
ATOM     15  C   UNL     1       1.228  -1.878  -1.568  0.00  0.00    +0.312 C 
ATOM     16  O   UNL     1       0.428  -2.462  -0.875  0.00  0.00    -0.250 OA
BRANCH  15  17
ATOM     17  O   UNL     1       1.571  -0.614  -1.277  0.00  0.00    -0.465 OA
BRANCH  17  19
ATOM     18  C   UNL     1       1.464   1.411   0.038  0.00  0.00    +0.048 C 
ATOM     19  C   UNL     1       0.953  -0.021  -0.133  0.00  0.00    +0.229 C 
ENDBRANCH  17  19
ENDBRANCH  15  17
ENDBRANCH   7  15
ENDBRANCH   2  13
ENDBRANCH   1   5
BRANCH   1  20
ATOM     20  N   UNL     1       2.532  -5.841 -10.086  0.00  0.00    +0.393 N 
ATOM     21  H   UNL     1       1.708  -5.575  -9.569  0.00  0.00    -0.080 HD
BRANCH  20  22
ATOM     22  C   UNL     1       2.708  -4.935 -11.228  0.00  0.00    -0.040 C 
ATOM     23  C   UNL     1       1.706  -5.297 -12.326  0.00  0.00    -0.008 C 
BRANCH  22  24
ATOM     24  C   UNL     1       2.473  -3.514 -10.783  0.00  0.00    -0.061 A 
ATOM     25  C   UNL     1       1.434  -3.224  -9.919  0.00  0.00    +0.002 A 
ATOM     26  C   UNL     1       1.218  -1.921  -9.511  0.00  0.00    +0.000 A 
ATOM     27  C   UNL     1       2.042  -0.908  -9.965  0.00  0.00    +0.000 A 
ATOM     28  C   UNL     1       3.083  -1.199 -10.828  0.00  0.00    +0.000 A 
ATOM     29  C   UNL     1       3.301  -2.503 -11.233  0.00  0.00    +0.002 A 
ENDBRANCH  22  24
ENDBRANCH  20  22
BRANCH  20  30
ATOM     30  C   UNL     1       2.382  -7.219 -10.573  0.00  0.00    -0.041 C 
BRANCH  30  31
ATOM     31  C   UNL     1       2.126  -8.139  -9.407  0.00  0.00    -0.061 A 
ATOM     32  C   UNL     1       3.150  -8.919  -8.904  0.00  0.00    +0.002 A 
ATOM     33  C   UNL     1       2.915  -9.763  -7.835  0.00  0.00    +0.003 A 
ATOM     34  C   UNL     1       1.655  -9.826  -7.268  0.00  0.00    -0.050 A 
ATOM     35  C   UNL     1       0.631  -9.045  -7.771  0.00  0.00    +0.007 A 
ATOM     36  C   UNL     1       0.868  -8.198  -8.838  0.00  0.00    -0.049 A 
ATOM     37  C   UNL     1      -0.247  -7.343  -9.382  0.00  0.00    +0.044 C 
ATOM     38  C   UNL     1       1.398 -10.747  -6.103  0.00  0.00    +0.044 C 
ENDBRANCH  30  31
ENDBRANCH  20  30
ENDBRANCH   1  20
TORSDOF 10
