REMARK  Name = ZINC39974484
REMARK  10 active torsions:
REMARK  status: ('A' for Active; 'I' for Inactive)
REMARK    1  A    between atoms: C_1  and  C_2
REMARK    2  A    between atoms: C_7  and  C_38
REMARK    3  A    between atoms: N_9  and  S_10
REMARK    4  A    between atoms: S_10  and  C_13
REMARK    5  A    between atoms: C_16  and  N_19
REMARK    6  A    between atoms: N_19  and  C_20
REMARK    7  A    between atoms: C_20  and  N_22
REMARK    8  A    between atoms: N_22  and  C_23
REMARK    9  A    between atoms: C_26  and  C_29
REMARK   10  A    between atoms: N_31  and  C_32
REMARK                            x       y       z     vdW  Elec       q    Type
REMARK                         _______ _______ _______ _____ _____    ______ ____
ROOT
ATOM      1  C   UNL     1      -1.316   3.120   8.567  0.00  0.00    +0.139 C 
ATOM      2  S   UNL     1       0.115   2.275   8.980  0.00  0.00    -0.018 S 
ENDROOT
BRANCH   1   3
ATOM      3  N   UNL     1      -1.473   3.612   7.322  0.00  0.00    -0.297 N 
ATOM      4  H   UNL     1      -2.246   4.157   7.109  0.00  0.00    +0.154 HD
BRANCH   3   8
ATOM      5  C   UNL     1       1.363   2.788   4.384  0.00  0.00    +0.106 A 
ATOM      6  C   UNL     1       0.964   1.791   5.256  0.00  0.00    +0.030 A 
ATOM      7  C   UNL     1       0.023   2.061   6.231  0.00  0.00    +0.025 A 
ATOM      8  C   UNL     1      -0.520   3.335   6.336  0.00  0.00    +0.033 A 
ATOM      9  C   UNL     1      -0.116   4.333   5.459  0.00  0.00    +0.025 A 
ATOM     10  C   UNL     1       0.828   4.058   4.489  0.00  0.00    +0.030 A 
BRANCH   5  11
ATOM     11  S   UNL     1       2.563   2.439   3.141  0.00  0.00    +0.061 S 
ATOM     12  O   UNL     1       2.373   3.400   2.112  0.00  0.00    -0.153 OA
ATOM     13  O   UNL     1       2.500   1.040   2.898  0.00  0.00    -0.153 OA
BRANCH  11  20
ATOM     14  C   UNL     1       3.888   4.888   2.634  0.00  0.00    +0.026 C 
ATOM     15  C   UNL     1       4.706   4.040   3.610  0.00  0.00    +0.077 C 
ATOM     16  C   UNL     1       6.110   3.812   3.040  0.00  0.00    +0.020 C 
ATOM     17  C   UNL     1       6.876   2.850   3.951  0.00  0.00    +0.003 C 
ATOM     18  C   UNL     1       6.150   1.504   4.001  0.00  0.00    +0.020 C 
ATOM     19  C   UNL     1       4.747   1.707   4.583  0.00  0.00    +0.077 C 
ATOM     20  N   UNL     1       4.052   2.739   3.800  0.00  0.00    -0.171 NA
ATOM     21  C   UNL     1       3.967   0.392   4.511  0.00  0.00    +0.026 C 
ENDBRANCH  11  20
ENDBRANCH   5  11
ENDBRANCH   3   8
ENDBRANCH   1   3
BRANCH   1  22
ATOM     22  N   UNL     1      -2.285   3.294   9.487  0.00  0.00    -0.297 N 
ATOM     23  H   UNL     1      -3.127   3.703   9.233  0.00  0.00    +0.154 HD
BRANCH  22  24
ATOM     24  C   UNL     1      -2.078   2.886  10.803  0.00  0.00    +0.033 A 
ATOM     25  C   UNL     1      -0.853   3.124  11.419  0.00  0.00    +0.024 A 
ATOM     26  C   UNL     1      -0.644   2.723  12.719  0.00  0.00    +0.015 A 
ATOM     27  C   UNL     1      -1.665   2.076  13.421  0.00  0.00    +0.037 A 
ATOM     28  C   UNL     1      -2.895   1.839  12.800  0.00  0.00    +0.015 A 
ATOM     29  C   UNL     1      -3.099   2.248  11.501  0.00  0.00    +0.024 A 
BRANCH  27  30
ATOM     30  C   UNL     1      -1.446   1.643  14.815  0.00  0.00    +0.244 C 
ATOM     31  O   UNL     1      -0.375   1.850  15.354  0.00  0.00    -0.270 OA
ATOM     32  N   UNL     1      -2.431   1.020  15.490  0.00  0.00    -0.308 N 
ATOM     33  H   UNL     1      -3.285   0.855  15.060  0.00  0.00    +0.149 HD
BRANCH  32  34
ATOM     34  C   UNL     1      -2.213   0.591  16.874  0.00  0.00    +0.073 C 
ATOM     35  C   UNL     1      -1.538  -0.783  16.881  0.00  0.00    +0.022 C 
ATOM     36  C   UNL     1      -1.310  -1.231  18.326  0.00  0.00    +0.002 C 
ATOM     37  C   UNL     1      -2.655  -1.319  19.051  0.00  0.00    +0.000 C 
ATOM     38  C   UNL     1      -3.329   0.054  19.044  0.00  0.00    +0.002 C 
ATOM     39  C   UNL     1      -3.557   0.503  17.599  0.00  0.00    +0.022 C 
ENDBRANCH  32  34
ENDBRANCH  27  30
ENDBRANCH  22  24
ENDBRANCH   1  22
TORSDOF 8
