REMARK  Name = ZINC33581098
REMARK  10 active torsions:
REMARK  status: ('A' for Active; 'I' for Inactive)
REMARK    1  A    between atoms: C_1  and  C_2
REMARK    2  A    between atoms: C_9  and  C_19
REMARK    3  A    between atoms: C_10  and  N_11
REMARK    4  A    between atoms: N_11  and  C_12
REMARK    5  A    between atoms: C_12  and  C_13
REMARK    6  A    between atoms: C_24  and  O_25
REMARK    7  A    between atoms: O_25  and  C_26
REMARK    8  A    between atoms: C_26  and  C_28
REMARK    9  A    between atoms: C_28  and  C_29
REMARK   10  A    between atoms: C_29  and  C_30
REMARK                            x       y       z     vdW  Elec       q    Type
REMARK                         _______ _______ _______ _____ _____    ______ ____
ROOT
ATOM      1  C   UNL     1       8.943  -3.768   2.233  0.00  0.00    +0.044 C 
ATOM      2  C   UNL     1       7.929  -3.197   1.275  0.00  0.00    -0.046 A 
ATOM      3  C   UNL     1       6.703  -2.704   1.756  0.00  0.00    +0.021 A 
ATOM      4  C   UNL     1       5.793  -2.193   0.904  0.00  0.00    +0.094 A 
ATOM      5  N   UNL     1       6.046  -2.146  -0.441  0.00  0.00    -0.289 N 
ATOM      6  C   UNL     1       7.237  -2.621  -0.941  0.00  0.00    +0.117 A 
ATOM      7  C   UNL     1       8.197  -3.159  -0.057  0.00  0.00    +0.048 A 
ATOM      8  N   UNL     1       7.235  -2.463  -2.255  0.00  0.00    -0.338 N 
ATOM      9  C   UNL     1       6.072  -1.902  -2.633  0.00  0.00    +0.090 A 
ATOM     10  C   UNL     1       5.313  -1.690  -1.501  0.00  0.00    +0.129 A 
ATOM     11  H   UNL     1       8.106  -2.779  -2.848  0.00  0.00    +0.167 HD
ENDROOT
BRANCH   9  12
ATOM     12  C   UNL     1       5.678  -1.567  -4.021  0.00  0.00    +0.044 A 
ATOM     13  C   UNL     1       4.439  -0.982  -4.275  0.00  0.00    +0.014 A 
ATOM     14  C   UNL     1       4.076  -0.671  -5.570  0.00  0.00    +0.001 A 
ATOM     15  C   UNL     1       4.939  -0.939  -6.618  0.00  0.00    +0.004 A 
ATOM     16  C   UNL     1       6.171  -1.519  -6.377  0.00  0.00    +0.047 A 
ATOM     17  C   UNL     1       6.550  -1.831  -5.082  0.00  0.00    +0.141 A 
BRANCH  17  18
ATOM     18  O   UNL     1       7.763  -2.396  -4.844  0.00  0.00    -0.425 OA
BRANCH  18  19
ATOM     19  C   UNL     1       7.812  -3.737  -4.799  0.00  0.00    +0.312 C 
ATOM     20  O   UNL     1       6.793  -4.382  -4.875  0.00  0.00    -0.250 OA
BRANCH  19  21
ATOM     21  C   UNL     1       9.139  -4.437  -4.653  0.00  0.00    +0.122 C 
BRANCH  21  22
ATOM     22  C   UNL     1       8.916  -5.951  -4.628  0.00  0.00    +0.027 C 
BRANCH  22  23
ATOM     23  C   UNL     1      10.262  -6.662  -4.480  0.00  0.00    +0.109 C 
ATOM     24 CL   UNL     1      10.000  -8.445  -4.450  0.00  0.00    -0.125 Cl
ENDBRANCH  22  23
ENDBRANCH  21  22
ENDBRANCH  19  21
ENDBRANCH  18  19
ENDBRANCH  17  18
ENDBRANCH   9  12
BRANCH  10  25
ATOM     25  N   UNL     1       4.038  -1.124  -1.448  0.00  0.00    -0.324 N 
ATOM     26  H   UNL     1       3.396  -0.786  -2.275  0.00  0.00    +0.148 HD
BRANCH  25  27
ATOM     27  C   UNL     1       3.572  -1.004  -0.060  0.00  0.00    +0.138 C 
BRANCH  27  28
ATOM     28  C   UNL     1       2.260  -0.263  -0.033  0.00  0.00    -0.030 A 
ATOM     29  C   UNL     1       1.071  -0.961  -0.128  0.00  0.00    +0.005 A 
ATOM     30  C   UNL     1      -0.133  -0.282  -0.103  0.00  0.00    +0.000 A 
ATOM     31  C   UNL     1      -0.147   1.095   0.016  0.00  0.00    +0.000 A 
ATOM     32  C   UNL     1       1.042   1.793   0.111  0.00  0.00    +0.000 A 
ATOM     33  C   UNL     1       2.246   1.114   0.086  0.00  0.00    +0.005 A 
ENDBRANCH  27  28
ENDBRANCH  25  27
ENDBRANCH  10  25
TORSDOF 9
