REMARK  Name = ZINC02284305
REMARK  6 active torsions:
REMARK  status: ('A' for Active; 'I' for Inactive)
REMARK    1  A    between atoms: C_3  and  C_8
REMARK    2  A    between atoms: N_9  and  N_10
REMARK    3  A    between atoms: C_11  and  C_13
REMARK    4  A    between atoms: C_13  and  N_49
REMARK    5  A    between atoms: N_16  and  S_19
REMARK    6  A    between atoms: S_19  and  C_22
REMARK                            x       y       z     vdW  Elec       q    Type
REMARK                         _______ _______ _______ _____ _____    ______ ____
ROOT
ATOM      1  C   UNL     1       7.324  -3.800   0.482  0.00  0.00    -0.061 C 
ATOM      2  C   UNL     1       8.375  -4.847   0.099  0.00  0.00    +0.091 C 
ATOM      3  N   UNL     1       9.605  -4.148  -0.306  0.00  0.00    -0.180 NA
ATOM      4  C   UNL     1       9.500  -3.081  -1.312  0.00  0.00    +0.091 C 
ATOM      5  C   UNL     1       8.405  -2.103  -0.873  0.00  0.00    -0.061 C 
ATOM      6  N   UNL     1       7.155  -2.861  -0.648  0.00  0.00    +0.387 N 
ATOM      7  H   UNL     1       6.933  -3.397  -1.496  0.00  0.00    -0.081 HD
ENDROOT
BRANCH   3   8
ATOM      8  S   UNL     1      11.069  -4.552   0.355  0.00  0.00    +0.061 S 
ATOM      9  O   UNL     1      10.951  -5.892   0.813  0.00  0.00    -0.153 OA
ATOM     10  O   UNL     1      12.061  -4.150  -0.579  0.00  0.00    -0.153 OA
BRANCH   8  11
ATOM     11  C   UNL     1      11.288  -3.549   1.787  0.00  0.00    +0.106 A 
ATOM     12  C   UNL     1      11.913  -2.320   1.680  0.00  0.00    +0.029 A 
ATOM     13  C   UNL     1      12.081  -1.530   2.802  0.00  0.00    +0.017 A 
ATOM     14  C   UNL     1      11.634  -1.974   4.034  0.00  0.00    +0.018 A 
ATOM     15  C   UNL     1      11.014  -3.206   4.141  0.00  0.00    +0.017 A 
ATOM     16  C   UNL     1      10.841  -3.993   3.017  0.00  0.00    +0.029 A 
ATOM     17 BR   UNL     1      11.870  -0.897   5.570  0.00  0.00    -0.050 Br
ENDBRANCH   8  11
ENDBRANCH   3   8
BRANCH   6  18
ATOM     18  C   UNL     1       6.044  -1.928  -0.367  0.00  0.00    +0.020 C 
BRANCH  18  20
ATOM     19  N   UNL     1       3.584  -2.064  -0.142  0.00  0.00    -0.209 N 
ATOM     20  C   UNL     1       4.751  -2.703  -0.359  0.00  0.00    +0.216 C 
ATOM     21  O   UNL     1       4.760  -3.901  -0.548  0.00  0.00    -0.276 OA
ATOM     22  H   UNL     1       3.577  -1.106   0.010  0.00  0.00    +0.177 HD
BRANCH  19  24
ATOM     23  C   UNL     1       1.250  -2.155  -0.052  0.00  0.00    +0.138 C 
ATOM     24  N   UNL     1       2.382  -2.783  -0.134  0.00  0.00    -0.188 NA
BRANCH  23  27
ATOM     25  C   UNL     1       2.044   1.093  -1.756  0.00  0.00    +0.002 A 
ATOM     26  C   UNL     1       2.149  -0.212  -1.321  0.00  0.00    +0.009 A 
ATOM     27  C   UNL     1       1.145  -0.760  -0.519  0.00  0.00    -0.004 A 
ATOM     28  C   UNL     1       0.042   0.019  -0.162  0.00  0.00    +0.029 A 
ATOM     29  C   UNL     1      -0.050   1.323  -0.604  0.00  0.00    +0.042 A 
ATOM     30  C   UNL     1       0.949   1.860  -1.399  0.00  0.00    +0.020 A 
ATOM     31 CL   UNL     1      -1.424   2.291  -0.168  0.00  0.00    -0.084 Cl
ENDBRANCH  23  27
ENDBRANCH  19  24
ENDBRANCH  18  20
ENDBRANCH   6  18
TORSDOF 6
