REMARK  Name = ZINC35747277
REMARK  17 active torsions:
REMARK  status: ('A' for Active; 'I' for Inactive)
REMARK    1  A    between atoms: C_1  and  O_2
REMARK    2  A    between atoms: O_2  and  C_3
REMARK    3  A    between atoms: C_3  and  C_4
REMARK    4  A    between atoms: C_4  and  N_5
REMARK    5  A    between atoms: N_5  and  C_6
REMARK    6  A    between atoms: N_5  and  C_28
REMARK    7  A    between atoms: C_6  and  C_7
REMARK    8  A    between atoms: C_13  and  C_18
REMARK    9  A    between atoms: C_21  and  O_26
REMARK   10  A    between atoms: C_22  and  O_24
REMARK   11  A    between atoms: O_24  and  C_25
REMARK   12  A    between atoms: O_26  and  C_27
REMARK   13  A    between atoms: C_28  and  C_29
REMARK   14  A    between atoms: C_29  and  C_31
REMARK   15  A    between atoms: C_29  and  O_39
REMARK   16  A    between atoms: C_31  and  O_32
REMARK   17  A    between atoms: O_32  and  C_33
REMARK                            x       y       z     vdW  Elec       q    Type
REMARK                         _______ _______ _______ _____ _____    ______ ____
ROOT
ATOM      1  C   UNL     1       1.368  -3.100  -0.285  0.00  0.00    +0.094 A 
ATOM      2  N   UNL     1       2.044  -4.092  -0.920  0.00  0.00    -0.312 N 
ATOM      3  H   UNL     1       1.813  -5.016  -0.739  0.00  0.00    +0.170 HD
ATOM      4  C   UNL     1       3.027  -3.817  -1.798  0.00  0.00    +0.260 A 
ATOM      5  O   UNL     1       3.624  -4.718  -2.361  0.00  0.00    -0.267 OA
ATOM      6  C   UNL     1       3.361  -2.450  -2.060  0.00  0.00    +0.080 A 
ATOM      7  C   UNL     1       4.372  -1.902  -2.955  0.00  0.00    +0.004 A 
ATOM      8  C   UNL     1       4.508  -0.557  -3.041  0.00  0.00    +0.056 A 
ATOM      9  S   UNL     1       3.272   0.055  -1.911  0.00  0.00    -0.076 S 
ATOM     10  C   UNL     1       2.608  -1.494  -1.356  0.00  0.00    +0.116 A 
ATOM     11  N   UNL     1       1.646  -1.844  -0.507  0.00  0.00    -0.229 NA
ENDROOT
BRANCH   7  12
ATOM     12  C   UNL     1       5.236  -2.801  -3.758  0.00  0.00    -0.013 A 
ATOM     13  C   UNL     1       5.899  -3.863  -3.144  0.00  0.00    +0.012 A 
ATOM     14  C   UNL     1       6.704  -4.699  -3.892  0.00  0.00    +0.050 A 
ATOM     15  C   UNL     1       6.855  -4.485  -5.254  0.00  0.00    +0.162 A 
ATOM     16  C   UNL     1       6.194  -3.426  -5.872  0.00  0.00    +0.162 A 
ATOM     17  C   UNL     1       5.383  -2.588  -5.128  0.00  0.00    +0.058 A 
BRANCH  16  18
ATOM     18  O   UNL     1       6.344  -3.219  -7.207  0.00  0.00    -0.491 OA
ATOM     19  C   UNL     1       5.637  -2.114  -7.775  0.00  0.00    +0.277 C 
ENDBRANCH  16  18
BRANCH  15  20
ATOM     20  O   UNL     1       7.649  -5.311  -5.987  0.00  0.00    -0.491 OA
ATOM     21  C   UNL     1       8.296  -6.376  -5.289  0.00  0.00    +0.277 C 
ENDBRANCH  15  20
ENDBRANCH   7  12
BRANCH   1  22
ATOM     22  C   UNL     1       0.274  -3.456   0.689  0.00  0.00    -0.003 C 
BRANCH  22  23
ATOM     23  N   UNL     1      -0.310  -2.226   1.240  0.00  0.00    +0.388 N 
ATOM     24  H   UNL     1       0.421  -1.657   1.641  0.00  0.00    -0.081 HD
BRANCH  23  25
ATOM     25  C   UNL     1      -0.979  -1.478   0.167  0.00  0.00    -0.050 C 
BRANCH  25  26
ATOM     26  C   UNL     1      -1.448  -0.125   0.705  0.00  0.00    +0.141 C 
BRANCH  26  28
ATOM     27  C   UNL     1      -0.642   1.938   1.623  0.00  0.00    +0.193 C 
ATOM     28  O   UNL     1      -0.314   0.648   1.104  0.00  0.00    -0.385 OA
ENDBRANCH  26  28
ENDBRANCH  25  26
ENDBRANCH  23  25
BRANCH  23  29
ATOM     29  C   UNL     1      -1.288  -2.572   2.280  0.00  0.00    -0.043 C 
BRANCH  29  30
ATOM     30  C   UNL     1      -0.560  -3.166   3.488  0.00  0.00    +0.135 C 
BRANCH  30  31
ATOM     31  O   UNL     1      -0.031  -4.448   3.142  0.00  0.00    -0.390 OA
ATOM     32  H   UNL     1      -0.702  -5.089   2.870  0.00  0.00    +0.210 HD
ENDBRANCH  30  31
BRANCH  30  33
ATOM     33  C   UNL     1      -1.541  -3.315   4.652  0.00  0.00    +0.258 C 
BRANCH  33  34
ATOM     34  O   UNL     1      -0.837  -3.760   5.814  0.00  0.00    -0.489 OA
BRANCH  34  35
ATOM     35  C   UNL     1      -1.568  -3.944   6.945  0.00  0.00    +0.121 A 
ATOM     36  C   UNL     1      -2.935  -3.708   6.935  0.00  0.00    +0.045 A 
ATOM     37  C   UNL     1      -3.676  -3.897   8.086  0.00  0.00    +0.004 A 
ATOM     38  C   UNL     1      -3.056  -4.320   9.247  0.00  0.00    +0.000 A 
ATOM     39  C   UNL     1      -1.693  -4.556   9.259  0.00  0.00    +0.004 A 
ATOM     40  C   UNL     1      -0.949  -4.375   8.109  0.00  0.00    +0.045 A 
ENDBRANCH  34  35
ENDBRANCH  33  34
ENDBRANCH  30  33
ENDBRANCH  29  30
ENDBRANCH  23  29
ENDBRANCH  22  23
ENDBRANCH   1  22
TORSDOF 14
