REMARK  Name = ZINC41260174
REMARK  4 active torsions:
REMARK  status: ('A' for Active; 'I' for Inactive)
REMARK    1  A    between atoms: C_6  and  C_7
REMARK    2  A    between atoms: C_7  and  C_9
REMARK    3  A    between atoms: C_7  and  N_11
REMARK    4  A    between atoms: N_19  and  C_20
REMARK                            x       y       z     vdW  Elec       q    Type
REMARK                         _______ _______ _______ _____ _____    ______ ____
ROOT
ATOM      1  N   UNL     1      -1.265  -1.984  -0.822  0.00  0.00    -0.281 NA
ATOM      2  C   UNL     1      -0.361  -3.001  -0.268  0.00  0.00    +0.105 C 
ATOM      3  C   UNL     1      -0.235  -4.162  -1.260  0.00  0.00    +0.124 C 
ATOM      4  N   UNL     1      -1.585  -4.643  -1.590  0.00  0.00    -0.283 N 
ATOM      5  C   UNL     1      -2.588  -3.658  -2.023  0.00  0.00    +0.124 C 
ATOM      6  C   UNL     1      -2.622  -2.517  -1.000  0.00  0.00    +0.105 C 
ATOM      7  C   UNL     1      -1.895  -5.952  -1.500  0.00  0.00    +0.302 C 
ATOM      8  O   UNL     1      -1.086  -6.738  -1.048  0.00  0.00    -0.253 OA
ATOM      9  N   UNL     1      -3.102  -6.388  -1.912  0.00  0.00    -0.296 N 
ATOM     10  H   UNL     1      -3.773  -5.753  -2.205  0.00  0.00    +0.151 HD
ENDROOT
BRANCH   9  11
ATOM     11  C   UNL     1      -3.400  -7.823  -1.916  0.00  0.00    +0.074 C 
ATOM     12  C   UNL     1      -2.893  -8.445  -3.219  0.00  0.00    +0.022 C 
ATOM     13  C   UNL     1      -3.204  -9.943  -3.223  0.00  0.00    +0.002 C 
ATOM     14  C   UNL     1      -4.716 -10.151  -3.112  0.00  0.00    +0.000 C 
ATOM     15  C   UNL     1      -5.222  -9.528  -1.809  0.00  0.00    +0.002 C 
ATOM     16  C   UNL     1      -4.912  -8.030  -1.805  0.00  0.00    +0.022 C 
ENDBRANCH   9  11
BRANCH   1  17
ATOM     17  C   UNL     1      -1.279  -0.779   0.019  0.00  0.00    +0.191 C 
BRANCH  17  23
ATOM     18  C   UNL     1      -3.112   0.911   0.234  0.00  0.00    +0.007 A 
ATOM     19  C   UNL     1      -3.974   1.844  -0.312  0.00  0.00    +0.020 A 
ATOM     20  C   UNL     1      -3.940   2.105  -1.671  0.00  0.00    +0.041 A 
ATOM     21  C   UNL     1      -3.044   1.431  -2.482  0.00  0.00    +0.020 A 
ATOM     22  C   UNL     1      -2.183   0.498  -1.935  0.00  0.00    +0.007 A 
ATOM     23  C   UNL     1      -2.218   0.238  -0.577  0.00  0.00    -0.016 A 
ATOM     24 CL   UNL     1      -5.022   3.276  -2.357  0.00  0.00    -0.084 Cl
ENDBRANCH  17  23
BRANCH  17  25
ATOM     25  C   UNL     1       0.079  -0.213   0.087  0.00  0.00    +0.086 C 
ATOM     26  N   UNL     1       1.126   0.224   0.140  0.00  0.00    -0.195 NA
ENDBRANCH  17  25
ENDBRANCH   1  17
TORSDOF 4
