REMARK  Name = ZINC11839576
REMARK  10 active torsions:
REMARK  status: ('A' for Active; 'I' for Inactive)
REMARK    1  A    between atoms: C_1  and  C_2
REMARK    2  A    between atoms: C_11  and  C_12
REMARK    3  A    between atoms: C_18  and  C_21
REMARK    4  A    between atoms: C_21  and  O_22
REMARK    5  A    between atoms: O_22  and  C_23
REMARK    6  A    between atoms: C_26  and  C_29
REMARK    7  A    between atoms: C_29  and  N_67
REMARK    8  A    between atoms: C_30  and  N_67
REMARK    9  A    between atoms: C_31  and  C_32
REMARK   10  A    between atoms: C_31  and  N_67
REMARK                            x       y       z     vdW  Elec       q    Type
REMARK                         _______ _______ _______ _____ _____    ______ ____
ROOT
ATOM      1  C   UNL     1       0.002  -0.004   0.002  0.00  0.00    +0.263 C 
ATOM      2  O   UNL     1       1.062  -0.597  -0.073  0.00  0.00    -0.268 OA
ATOM      3  N   UNL     1      -0.019   1.343  -0.024  0.00  0.00    -0.296 N 
ATOM      4  C   UNL     1      -1.295   2.071  -0.066  0.00  0.00    +0.108 C 
ATOM      5  C   UNL     1      -1.277   3.040  -1.247  0.00  0.00    +0.019 C 
ATOM      6  C   UNL     1      -0.042   3.939  -1.147  0.00  0.00    +0.010 C 
ATOM      7  C   UNL     1       1.223   3.080  -1.205  0.00  0.00    +0.044 C 
ATOM      8  C   UNL     1       1.233   2.112  -0.018  0.00  0.00    +0.115 C 
ENDROOT
BRANCH   1  19
ATOM      9  C   UNL     1      -1.733  -0.181   2.565  0.00  0.00    +0.047 C 
ATOM     10  C   UNL     1      -2.021  -0.840   1.240  0.00  0.00    -0.013 A 
ATOM     11  C   UNL     1      -3.139  -1.655   0.939  0.00  0.00    +0.005 A 
ATOM     12  C   UNL     1      -4.244  -2.086   1.684  0.00  0.00    +0.030 A 
ATOM     13  C   UNL     1      -5.183  -2.889   1.104  0.00  0.00    +0.042 A 
ATOM     14  C   UNL     1      -5.053  -3.284  -0.223  0.00  0.00    +0.022 A 
ATOM     15  C   UNL     1      -3.977  -2.873  -0.975  0.00  0.00    +0.027 A 
ATOM     16  C   UNL     1      -3.006  -2.054  -0.405  0.00  0.00    +0.047 A 
ATOM     17  N   UNL     1      -1.849  -1.489  -0.889  0.00  0.00    -0.350 N 
ATOM     18  H   UNL     1      -1.506  -1.589  -1.791  0.00  0.00    +0.166 HD
ATOM     19  C   UNL     1      -1.255  -0.757   0.121  0.00  0.00    +0.106 A 
ATOM     20 CL   UNL     1      -6.551  -3.422   2.030  0.00  0.00    -0.084 Cl
ENDBRANCH   1  19
BRANCH   7  21
ATOM     21  C   UNL     1       2.456   3.983  -1.139  0.00  0.00    +0.234 C 
BRANCH  21  22
ATOM     22  O   UNL     1       3.635   3.192  -1.306  0.00  0.00    -0.492 OA
BRANCH  22  23
ATOM     23  C   UNL     1       4.826   3.845  -1.272  0.00  0.00    +0.121 A 
ATOM     24  C   UNL     1       4.860   5.220  -1.087  0.00  0.00    +0.046 A 
ATOM     25  C   UNL     1       6.072   5.881  -1.047  0.00  0.00    +0.005 A 
ATOM     26  C   UNL     1       7.251   5.175  -1.203  0.00  0.00    -0.064 A 
ATOM     27  C   UNL     1       7.220   3.806  -1.393  0.00  0.00    +0.005 A 
ATOM     28  C   UNL     1       6.010   3.139  -1.428  0.00  0.00    +0.046 A 
BRANCH  26  29
ATOM     29  C   UNL     1       8.572   5.899  -1.165  0.00  0.00    -0.043 C 
BRANCH  29  31
ATOM     30  C   UNL     1       9.197   5.167  -3.387  0.00  0.00    -0.095 C 
ATOM     31  N   UNL     1       8.913   6.341  -2.534  0.00  0.00    +0.384 N 
ATOM     32  H   UNL     1       8.115   6.854  -2.927  0.00  0.00    -0.081 HD
BRANCH  31  33
ATOM     33  C   UNL     1      10.089   7.235  -2.498  0.00  0.00    -0.019 C 
BRANCH  33  34
ATOM     34  C   UNL     1      10.280   7.842  -3.864  0.00  0.00    +0.067 A 
ATOM     35  C   UNL     1       9.786   9.088  -4.314  0.00  0.00    +0.065 A 
ATOM     36  C   UNL     1      10.223   9.172  -5.593  0.00  0.00    +0.230 A 
ATOM     37  O   UNL     1      10.912   8.047  -5.833  0.00  0.00    -0.363 OA
ATOM     38  N   UNL     1      10.937   7.326  -4.862  0.00  0.00    -0.085 NA
ENDBRANCH  33  34
ENDBRANCH  31  33
ENDBRANCH  29  31
ENDBRANCH  26  29
ENDBRANCH  22  23
ENDBRANCH  21  22
ENDBRANCH   7  21
TORSDOF 8
