REMARK  Name = ZINC21104655
REMARK  8 active torsions:
REMARK  status: ('A' for Active; 'I' for Inactive)
REMARK    1  A    between atoms: C_1  and  C_2
REMARK    2  A    between atoms: C_5  and  N_11
REMARK    3  A    between atoms: C_7  and  N_8
REMARK    4  A    between atoms: N_8  and  C_9
REMARK    5  A    between atoms: N_8  and  C_10
REMARK    6  A    between atoms: N_11  and  C_12
REMARK    7  A    between atoms: N_22  and  C_23
REMARK    8  A    between atoms: C_23  and  C_24
REMARK                            x       y       z     vdW  Elec       q    Type
REMARK                         _______ _______ _______ _____ _____    ______ ____
ROOT
ATOM      1  C   UNL     1       2.513  -2.785  -0.148  0.00  0.00    +0.212 C 
ATOM      2  C   UNL     1       2.396  -3.880  -1.181  0.00  0.00    +0.092 A 
ATOM      3  C   UNL     1       2.655  -5.078  -0.511  0.00  0.00    +0.062 A 
ATOM      4  C   UNL     1       2.616  -6.276  -1.232  0.00  0.00    +0.016 A 
ATOM      5  C   UNL     1       2.319  -6.218  -2.583  0.00  0.00    +0.020 A 
ATOM      6  C   UNL     1       2.075  -4.990  -3.171  0.00  0.00    +0.111 A 
ATOM      7  N   UNL     1       2.119  -3.875  -2.466  0.00  0.00    -0.256 NA
ATOM      8  C   UNL     1       2.930  -4.772   0.904  0.00  0.00    +0.250 C 
ATOM      9  O   UNL     1       3.192  -5.599   1.756  0.00  0.00    -0.270 OA
ATOM     10  N   UNL     1       2.849  -3.447   1.118  0.00  0.00    -0.269 N 
ENDROOT
BRANCH   1  11
ATOM     11  N   UNL     1       1.238  -2.075  -0.021  0.00  0.00    -0.321 N 
ATOM     12  H   UNL     1       0.294  -2.639   0.006  0.00  0.00    +0.148 HD
BRANCH  11  17
ATOM     13  C   UNL     1       1.153   3.590   0.326  0.00  0.00    +0.045 C 
ATOM     14  C   UNL     1       1.177   2.086   0.233  0.00  0.00    -0.029 A 
ATOM     15  C   UNL     1      -0.007   1.382   0.120  0.00  0.00    +0.007 A 
ATOM     16  C   UNL     1       0.011   0.003   0.035  0.00  0.00    +0.023 A 
ATOM     17  C   UNL     1       1.221  -0.681   0.064  0.00  0.00    +0.030 A 
ATOM     18  C   UNL     1       2.411   0.023   0.178  0.00  0.00    +0.046 A 
ATOM     19  C   UNL     1       2.390   1.408   0.263  0.00  0.00    +0.034 A 
BRANCH  19  20
ATOM     20  N   UNL     1       3.586   2.119   0.385  0.00  0.00    -0.336 N 
ATOM     21  C   UNL     1       4.312   1.726   1.599  0.00  0.00    +0.129 C 
ATOM     22  C   UNL     1       4.424   1.947  -0.809  0.00  0.00    +0.129 C 
ENDBRANCH  19  20
ENDBRANCH  11  17
ENDBRANCH   1  11
BRANCH  10  23
ATOM     23  C   UNL     1       3.060  -2.776   2.402  0.00  0.00    +0.145 C 
BRANCH  23  24
ATOM     24  C   UNL     1       1.749  -2.679   3.140  0.00  0.00    -0.030 A 
ATOM     25  C   UNL     1       0.938  -1.573   2.964  0.00  0.00    +0.008 A 
ATOM     26  C   UNL     1      -0.267  -1.486   3.635  0.00  0.00    +0.038 A 
ATOM     27  C   UNL     1      -0.656  -2.501   4.494  0.00  0.00    +0.123 A 
ATOM     28  C   UNL     1       0.161  -3.605   4.673  0.00  0.00    +0.038 A 
ATOM     29  C   UNL     1       1.362  -3.692   3.996  0.00  0.00    +0.008 A 
ATOM     30  F   UNL     1      -1.830  -2.414   5.156  0.00  0.00    -0.205 F 
ENDBRANCH  23  24
ENDBRANCH  10  23
TORSDOF 5
