REMARK  Name = ZINC23176191
REMARK  7 active torsions:
REMARK  status: ('A' for Active; 'I' for Inactive)
REMARK    1  A    between atoms: C_1  and  C_2
REMARK    2  A    between atoms: N_11  and  C_15
REMARK    3  A    between atoms: C_15  and  C_16
REMARK    4  A    between atoms: N_18  and  C_19
REMARK    5  A    between atoms: C_24  and  N_25
REMARK    6  A    between atoms: N_25  and  C_26
REMARK    7  A    between atoms: N_25  and  C_27
REMARK                            x       y       z     vdW  Elec       q    Type
REMARK                         _______ _______ _______ _____ _____    ______ ____
ROOT
ATOM      1  C   UNL     1      -1.220   2.160  -2.478  0.00  0.00    +0.010 C 
ATOM      2  C   UNL     1      -2.071   1.866  -1.241  0.00  0.00    +0.018 C 
ATOM      3  C   UNL     1      -3.282   2.802  -1.221  0.00  0.00    +0.006 C 
ATOM      4  C   UNL     1      -4.122   2.522   0.026  0.00  0.00    +0.000 C 
ATOM      5  C   UNL     1      -3.277   2.770   1.278  0.00  0.00    +0.003 C 
ATOM      6  C   UNL     1      -2.066   1.834   1.268  0.00  0.00    +0.035 C 
ATOM      7  C   UNL     1      -1.235   2.086   0.015  0.00  0.00    +0.115 C 
ATOM      8  C   UNL     1      -0.018   1.189   0.001  0.00  0.00    +0.247 C 
ATOM      9  O   UNL     1      -0.000  -0.023  -0.015  0.00  0.00    -0.273 OA
ATOM     10  N   UNL     1       1.043   2.022   0.004  0.00  0.00    -0.215 N 
ATOM     11  C   UNL     1       0.663   3.305   0.023  0.00  0.00    +0.310 C 
ATOM     12  O   UNL     1       1.439   4.240   0.029  0.00  0.00    -0.252 OA
ATOM     13  N   UNL     1      -0.677   3.444   0.034  0.00  0.00    -0.285 N 
ATOM     14  H   UNL     1      -1.349   4.314   0.053  0.00  0.00    +0.151 HD
ENDROOT
BRANCH  10  15
ATOM     15  C   UNL     1       2.439   1.577  -0.012  0.00  0.00    +0.214 C 
BRANCH  15  16
ATOM     16  C   UNL     1       2.907   1.443  -1.438  0.00  0.00    +0.235 C 
ATOM     17  O   UNL     1       2.149   1.694  -2.352  0.00  0.00    -0.274 OA
ATOM     18  N   UNL     1       4.168   1.043  -1.699  0.00  0.00    -0.283 N 
ATOM     19  H   UNL     1       4.882   0.903  -0.875  0.00  0.00    +0.155 HD
BRANCH  18  20
ATOM     20  C   UNL     1       4.568   0.807  -3.021  0.00  0.00    +0.055 A 
ATOM     21  C   UNL     1       3.627   0.475  -3.984  0.00  0.00    +0.025 A 
ATOM     22  C   UNL     1       4.025   0.242  -5.288  0.00  0.00    +0.002 A 
ATOM     23  C   UNL     1       5.360   0.339  -5.636  0.00  0.00    +0.002 A 
ATOM     24  C   UNL     1       6.304   0.670  -4.682  0.00  0.00    +0.025 A 
ATOM     25  C   UNL     1       5.914   0.910  -3.373  0.00  0.00    +0.051 A 
BRANCH  25  26
ATOM     26  N   UNL     1       6.868   1.249  -2.407  0.00  0.00    -0.335 N 
ATOM     27  C   UNL     1       7.874   0.189  -2.266  0.00  0.00    +0.129 C 
ATOM     28  C   UNL     1       7.500   2.537  -2.722  0.00  0.00    +0.129 C 
ENDBRANCH  25  26
ENDBRANCH  18  20
ENDBRANCH  15  16
ENDBRANCH  10  15
TORSDOF 4
