REMARK  Name = ZINC20813523
REMARK  6 active torsions:
REMARK  status: ('A' for Active; 'I' for Inactive)
REMARK    1  A    between atoms: C_1  and  C_2
REMARK    2  A    between atoms: C_2  and  C_20
REMARK    3  A    between atoms: C_12  and  S_14
REMARK    4  A    between atoms: S_14  and  C_15
REMARK    5  A    between atoms: C_15  and  C_16
REMARK    6  A    between atoms: C_16  and  N_17
REMARK                            x       y       z     vdW  Elec       q    Type
REMARK                         _______ _______ _______ _____ _____    ______ ____
ROOT
ATOM      1  C   UNL     1      -0.019   1.526   0.010  0.00  0.00    +0.041 C 
ATOM      2  C   UNL     1       0.002  -0.004   0.002  0.00  0.00    +0.068 C 
ATOM      3  C   UNL     1      -1.435  -0.531  -0.004  0.00  0.00    +0.071 C 
ATOM      4  C   UNL     1      -2.059  -0.227   1.356  0.00  0.00    -0.018 A 
ATOM      5  C   UNL     1      -1.252   0.068   2.405  0.00  0.00    +0.021 A 
ATOM      6  S   UNL     1      -2.352   0.351   3.766  0.00  0.00    -0.073 S 
ATOM      7  C   UNL     1      -3.878   0.074   2.927  0.00  0.00    +0.093 A 
ATOM      8  C   UNL     1      -3.485  -0.230   1.613  0.00  0.00    +0.075 A 
ATOM      9  C   UNL     1      -4.571  -0.518   0.642  0.00  0.00    +0.282 A 
ATOM     10  O   UNL     1      -4.339  -0.794  -0.524  0.00  0.00    -0.265 OA
ATOM     11  N   UNL     1      -5.825  -0.457   1.123  0.00  0.00    -0.185 NA
ATOM     12  C   UNL     1      -6.125  -0.166   2.369  0.00  0.00    +0.171 A 
ATOM     13  N   UNL     1      -5.179   0.112   3.323  0.00  0.00    -0.328 N 
ATOM     14  C   UNL     1       0.243   0.132   2.383  0.00  0.00    +0.203 C 
ATOM     15  O   UNL     1       0.694  -0.475   1.161  0.00  0.00    -0.368 OA
ATOM     16  C   UNL     1       0.725  -0.495  -1.254  0.00  0.00    +0.041 C 
ATOM     17  H   UNL     1      -5.427   0.324   4.237  0.00  0.00    +0.168 HD
ENDROOT
BRANCH  12  18
ATOM     18  S   UNL     1      -7.824  -0.129   2.835  0.00  0.00    -0.090 S 
BRANCH  18  19
ATOM     19  C   UNL     1      -8.708  -0.543   1.307  0.00  0.00    +0.058 C 
BRANCH  19  20
ATOM     20  C   UNL     1     -10.215  -0.546   1.574  0.00  0.00    -0.075 C 
BRANCH  20  21
ATOM     21  N   UNL     1     -10.931  -0.882   0.336  0.00  0.00    +0.379 N 
ATOM     22  H   UNL     1     -11.924  -0.884   0.512  0.00  0.00    -0.090 HD
ATOM     23  H   UNL     1     -10.716  -0.197  -0.373  0.00  0.00    -0.090 HD
ATOM     24  H   UNL     1     -10.644  -1.796   0.019  0.00  0.00    -0.090 HD
ENDBRANCH  20  21
ENDBRANCH  19  20
ENDBRANCH  18  19
ENDBRANCH  12  18
TORSDOF 4
