REMARK  Name = ZINC36483289
REMARK  11 active torsions:
REMARK  status: ('A' for Active; 'I' for Inactive)
REMARK    1  A    between atoms: C_1  and  C_2
REMARK    2  A    between atoms: C_3  and  C_4
REMARK    3  A    between atoms: C_4  and  C_6
REMARK    4  A    between atoms: C_4  and  N_13
REMARK    5  A    between atoms: N_8  and  C_9
REMARK    6  A    between atoms: C_9  and  C_10
REMARK    7  A    between atoms: C_9  and  C_11
REMARK    8  A    between atoms: C_9  and  C_12
REMARK    9  A    between atoms: N_13  and  C_14
REMARK   10  A    between atoms: C_21  and  C_23
REMARK   11  A    between atoms: C_28  and  O_29
REMARK                            x       y       z     vdW  Elec       q    Type
REMARK                         _______ _______ _______ _____ _____    ______ ____
ROOT
ATOM      1  N   UNL     1      -0.232  -3.201  -0.108  0.00  0.00    -0.252 N 
ATOM      2  C   UNL     1       0.598  -3.262  -1.168  0.00  0.00    +0.255 C 
ATOM      3  O   UNL     1       0.174  -3.039  -2.286  0.00  0.00    -0.269 OA
ENDROOT
BRANCH   1   4
ATOM      4  C   UNL     1      -1.591  -2.931  -0.299  0.00  0.00    +0.039 A 
ATOM      5  C   UNL     1      -2.417  -2.709   0.796  0.00  0.00    +0.023 A 
ATOM      6  C   UNL     1      -3.759  -2.443   0.605  0.00  0.00    +0.003 A 
ATOM      7  C   UNL     1      -4.281  -2.398  -0.675  0.00  0.00    +0.020 A 
ATOM      8  C   UNL     1      -3.461  -2.618  -1.768  0.00  0.00    +0.043 A 
ATOM      9  C   UNL     1      -2.116  -2.879  -1.583  0.00  0.00    +0.043 A 
ATOM     10 CL   UNL     1      -4.121  -2.560  -3.373  0.00  0.00    -0.083 Cl
ENDBRANCH   1   4
BRANCH   2  11
ATOM     11  C   UNL     1       2.020  -3.600  -0.972  0.00  0.00    +0.079 A 
ATOM     12  C   UNL     1       2.686  -3.193   0.187  0.00  0.00    +0.017 A 
ATOM     13  C   UNL     1       4.015  -3.511   0.363  0.00  0.00    +0.001 A 
ATOM     14  C   UNL     1       4.695  -4.234  -0.603  0.00  0.00    +0.004 A 
ATOM     15  C   UNL     1       4.050  -4.642  -1.753  0.00  0.00    +0.046 A 
ATOM     16  C   UNL     1       2.711  -4.336  -1.945  0.00  0.00    +0.129 A 
BRANCH  16  17
ATOM     17  O   UNL     1       2.073  -4.741  -3.072  0.00  0.00    -0.506 OA
ATOM     18  H   UNL     1       2.122  -4.108  -3.801  0.00  0.00    +0.292 HD
ENDBRANCH  16  17
ENDBRANCH   2  11
BRANCH   1  19
ATOM     19  C   UNL     1       0.289  -3.417   1.244  0.00  0.00    +0.190 C 
BRANCH  19  20
ATOM     20  C   UNL     1      -0.519  -4.490   1.928  0.00  0.00    +0.238 C 
ATOM     21  O   UNL     1      -1.439  -5.021   1.344  0.00  0.00    -0.273 OA
ATOM     22  N   UNL     1      -0.218  -4.858   3.189  0.00  0.00    -0.309 N 
ATOM     23  H   UNL     1       0.518  -4.433   3.656  0.00  0.00    +0.149 HD
BRANCH  22  24
ATOM     24  C   UNL     1      -1.003  -5.901   3.854  0.00  0.00    +0.026 C 
ATOM     25  C   UNL     1      -0.903  -7.202   3.055  0.00  0.00    +0.031 C 
ATOM     26  C   UNL     1      -0.459  -6.127   5.266  0.00  0.00    +0.031 C 
ATOM     27  C   UNL     1      -2.467  -5.464   3.936  0.00  0.00    +0.031 C 
ENDBRANCH  22  24
ENDBRANCH  19  20
BRANCH  19  30
ATOM     28  C   UNL     1      -0.405   0.221   2.259  0.00  0.00    +0.035 C 
ATOM     29  C   UNL     1      -0.306  -1.060   1.472  0.00  0.00    -0.032 C 
ATOM     30  C   UNL     1       0.191  -2.135   2.031  0.00  0.00    +0.000 C 
ENDBRANCH  19  30
ENDBRANCH   1  19
TORSDOF 7
