REMARK  Name = ZINC14511890
REMARK  9 active torsions:
REMARK  status: ('A' for Active; 'I' for Inactive)
REMARK    1  A    between atoms: C_1  and  O_2
REMARK    2  A    between atoms: O_2  and  C_3
REMARK    3  A    between atoms: C_3  and  C_4
REMARK    4  A    between atoms: C_4  and  N_5
REMARK    5  A    between atoms: N_5  and  C_6
REMARK    6  A    between atoms: C_7  and  N_22
REMARK    7  A    between atoms: N_8  and  C_15
REMARK    8  A    between atoms: C_15  and  C_16
REMARK    9  A    between atoms: C_23  and  C_25
REMARK                            x       y       z     vdW  Elec       q    Type
REMARK                         _______ _______ _______ _____ _____    ______ ____
ROOT
ATOM      1  C   UNL     1      -2.283   4.080  -0.273  0.00  0.00    +0.140 A 
ATOM      2  C   UNL     1      -3.529   3.500  -0.139  0.00  0.00    +0.128 A 
ATOM      3  N   UNL     1      -4.652   4.269  -0.337  0.00  0.00    -0.276 N 
ATOM      4  C   UNL     1      -4.539   5.568  -0.666  0.00  0.00    +0.331 A 
ATOM      5  O   UNL     1      -5.544   6.229  -0.841  0.00  0.00    -0.246 OA
ATOM      6  N   UNL     1      -3.334   6.149  -0.806  0.00  0.00    -0.273 N 
ATOM      7  H   UNL     1      -3.277   7.117  -1.051  0.00  0.00    +0.173 HD
ATOM      8  C   UNL     1      -2.202   5.442  -0.619  0.00  0.00    +0.277 A 
ATOM      9  O   UNL     1      -1.115   5.979  -0.747  0.00  0.00    -0.266 OA
ENDROOT
BRANCH   1  10
ATOM     10  N   UNL     1      -1.113   3.320  -0.072  0.00  0.00    -0.258 N 
ATOM     11  C   UNL     1      -0.754   2.384  -0.974  0.00  0.00    +0.251 C 
ATOM     12  O   UNL     1       0.244   1.714  -0.791  0.00  0.00    -0.270 OA
BRANCH  11  13
ATOM     13  C   UNL     1      -1.575   2.171  -2.184  0.00  0.00    +0.039 A 
ATOM     14  C   UNL     1      -2.382   3.200  -2.673  0.00  0.00    +0.014 A 
ATOM     15  C   UNL     1      -3.150   2.994  -3.800  0.00  0.00    +0.022 A 
ATOM     16  C   UNL     1      -3.124   1.769  -4.446  0.00  0.00    +0.059 A 
ATOM     17  C   UNL     1      -2.325   0.743  -3.965  0.00  0.00    +0.060 A 
ATOM     18  C   UNL     1      -1.552   0.938  -2.838  0.00  0.00    +0.034 A 
ATOM     19 CL   UNL     1      -2.297  -0.789  -4.781  0.00  0.00    -0.082 Cl
ATOM     20 CL   UNL     1      -4.094   1.517  -5.863  0.00  0.00    -0.082 Cl
ENDBRANCH  11  13
BRANCH  10  21
ATOM     21  C   UNL     1      -0.286   3.547   1.115  0.00  0.00    +0.142 C 
BRANCH  21  22
ATOM     22  C   UNL     1       0.810   4.564   0.787  0.00  0.00    +0.179 C 
BRANCH  22  24
ATOM     23  C   UNL     1       1.224   6.917   0.595  0.00  0.00    +0.194 C 
ATOM     24  O   UNL     1       0.277   5.886   0.884  0.00  0.00    -0.381 OA
ENDBRANCH  22  24
ENDBRANCH  21  22
ENDBRANCH  10  21
ENDBRANCH   1  10
BRANCH   2  25
ATOM     25  N   UNL     1      -3.645   2.171   0.192  0.00  0.00    -0.343 N 
ATOM     26  H   UNL     1      -2.851   1.651   0.394  0.00  0.00    +0.144 HD
ATOM     27  H   UNL     1      -4.520   1.754   0.224  0.00  0.00    +0.144 HD
ENDBRANCH   2  25
BRANCH   3  28
ATOM     28  C   UNL     1      -5.980   3.667  -0.194  0.00  0.00    +0.163 C 
BRANCH  28  29
ATOM     29  C   UNL     1      -6.426   3.111  -1.522  0.00  0.00    -0.028 A 
ATOM     30  C   UNL     1      -7.140   3.905  -2.399  0.00  0.00    +0.005 A 
ATOM     31  C   UNL     1      -7.544   3.397  -3.619  0.00  0.00    +0.000 A 
ATOM     32  C   UNL     1      -7.243   2.091  -3.958  0.00  0.00    +0.000 A 
ATOM     33  C   UNL     1      -6.534   1.295  -3.079  0.00  0.00    +0.000 A 
ATOM     34  C   UNL     1      -6.125   1.805  -1.861  0.00  0.00    +0.005 A 
ENDBRANCH  28  29
ENDBRANCH   3  28
TORSDOF 8
