REMARK  Name = ZINC36038473
REMARK  9 active torsions:
REMARK  status: ('A' for Active; 'I' for Inactive)
REMARK    1  A    between atoms: C_1  and  C_2
REMARK    2  A    between atoms: C_2  and  C_3
REMARK    3  A    between atoms: C_2  and  C_4
REMARK    4  A    between atoms: C_4  and  C_5
REMARK    5  A    between atoms: N_9  and  C_30
REMARK    6  A    between atoms: N_14  and  S_17
REMARK    7  A    between atoms: S_17  and  C_20
REMARK    8  A    between atoms: C_24  and  C_26
REMARK    9  A    between atoms: C_30  and  C_31
REMARK                            x       y       z     vdW  Elec       q    Type
REMARK                         _______ _______ _______ _____ _____    ______ ____
ROOT
ATOM      1  C   UNL     1      -2.195   0.294  -1.698  0.00  0.00    +0.019 C 
ATOM      2  C   UNL     1      -3.519  -0.437  -1.652  0.00  0.00    +0.201 C 
ATOM      3  O   UNL     1      -4.516  -0.060  -1.075  0.00  0.00    -0.277 OA
ATOM      4  N   UNL     1      -3.402  -1.579  -2.361  0.00  0.00    -0.310 N 
ATOM      5  C   UNL     1      -2.044  -1.683  -2.901  0.00  0.00    +0.006 C 
ATOM      6  N   UNL     1      -1.457  -0.326  -2.826  0.00  0.00    +0.401 N 
ATOM      7  C   UNL     1      -1.214  -2.651  -2.059  0.00  0.00    +0.023 C 
ATOM      8  C   UNL     1      -1.852  -4.044  -2.111  0.00  0.00    +0.109 C 
ATOM      9  N   UNL     1      -2.013  -4.438  -3.517  0.00  0.00    -0.177 NA
ATOM     10  C   UNL     1      -2.732  -3.535  -4.427  0.00  0.00    +0.109 C 
ATOM     11  C   UNL     1      -2.087  -2.147  -4.356  0.00  0.00    +0.023 C 
ATOM     12  H   UNL     1      -1.622   0.182  -3.682  0.00  0.00    -0.082 HD
ATOM     13  H   UNL     1      -0.470  -0.373  -2.623  0.00  0.00    -0.082 HD
ENDROOT
BRANCH   9  14
ATOM     14  S   UNL     1      -1.395  -5.872  -4.067  0.00  0.00    +0.061 S 
ATOM     15  O   UNL     1      -1.203  -5.722  -5.467  0.00  0.00    -0.153 OA
ATOM     16  O   UNL     1      -0.337  -6.223  -3.186  0.00  0.00    -0.153 OA
BRANCH  14  17
ATOM     17  C   UNL     1      -2.649  -7.093  -3.859  0.00  0.00    +0.106 A 
ATOM     18  C   UNL     1      -2.728  -7.809  -2.679  0.00  0.00    +0.028 A 
ATOM     19  C   UNL     1      -3.711  -8.766  -2.515  0.00  0.00    +0.002 A 
ATOM     20  C   UNL     1      -4.616  -9.008  -3.532  0.00  0.00    +0.012 A 
ATOM     21  C   UNL     1      -4.538  -8.292  -4.712  0.00  0.00    +0.057 A 
ATOM     22  C   UNL     1      -3.557  -7.331  -4.873  0.00  0.00    +0.041 A 
BRANCH  21  23
ATOM     23  C   UNL     1      -5.524  -8.555  -5.820  0.00  0.00    +0.417 C 
ATOM     24  F   UNL     1      -6.414  -9.559  -5.424  0.00  0.00    -0.166 F 
ATOM     25  F   UNL     1      -6.237  -7.384  -6.099  0.00  0.00    -0.166 F 
ATOM     26  F   UNL     1      -4.838  -8.967  -6.967  0.00  0.00    -0.166 F 
ENDBRANCH  21  23
ENDBRANCH  14  17
ENDBRANCH   9  14
BRANCH   1  27
ATOM     27  C   UNL     1      -1.430   0.095  -0.388  0.00  0.00    -0.004 C 
BRANCH  27  29
ATOM     28  C   UNL     1      -0.418   2.376  -0.509  0.00  0.00    +0.007 C 
ATOM     29  C   UNL     1      -0.117   0.878  -0.440  0.00  0.00    -0.018 C 
ATOM     30  C   UNL     1       0.705   0.580   0.816  0.00  0.00    +0.007 C 
ENDBRANCH  27  29
ENDBRANCH   1  27
BRANCH   4  31
ATOM     31  C   UNL     1      -4.470  -2.562  -2.562  0.00  0.00    +0.132 C 
BRANCH  31  32
ATOM     32  C   UNL     1      -5.323  -2.146  -3.732  0.00  0.00    -0.016 C 
ATOM     33  C   UNL     1      -5.597  -3.006  -4.681  0.00  0.00    +0.005 C 
ENDBRANCH  31  32
ENDBRANCH   4  31
TORSDOF 7
