REMARK  Name = ZINC12480742
REMARK  12 active torsions:
REMARK  status: ('A' for Active; 'I' for Inactive)
REMARK    1  A    between atoms: C_1  and  C_2
REMARK    2  A    between atoms: C_7  and  C_8
REMARK    3  A    between atoms: C_8  and  C_9
REMARK    4  A    between atoms: C_9  and  N_10
REMARK    5  A    between atoms: N_10  and  C_11
REMARK    6  A    between atoms: C_11  and  C_13
REMARK    7  A    between atoms: C_11  and  C_19
REMARK    8  A    between atoms: C_14  and  C_18
REMARK    9  A    between atoms: N_21  and  C_22
REMARK   10  A    between atoms: C_22  and  C_23
REMARK   11  A    between atoms: C_29  and  C_31
REMARK   12  A    between atoms: C_31  and  N_32
REMARK                            x       y       z     vdW  Elec       q    Type
REMARK                         _______ _______ _______ _____ _____    ______ ____
ROOT
ATOM      1  N   UNL     1       3.940  -3.558  -5.093  0.00  0.00    -0.284 N 
ATOM      2  C   UNL     1       4.598  -3.108  -6.181  0.00  0.00    +0.238 C 
ATOM      3  O   UNL     1       5.302  -2.124  -6.099  0.00  0.00    -0.274 OA
ENDROOT
BRANCH   1   4
ATOM      4  C   UNL     1       3.089  -4.747  -5.192  0.00  0.00    +0.113 C 
BRANCH   4   5
ATOM      5  C   UNL     1       1.642  -4.318  -5.441  0.00  0.00    +0.054 C 
BRANCH   5  12
ATOM      6  C   UNL     1       0.623  -5.319  -2.929  0.00  0.00    +0.044 C 
ATOM      7  C   UNL     1       0.260  -6.010  -4.219  0.00  0.00    -0.047 A 
ATOM      8  C   UNL     1      -0.560  -7.123  -4.200  0.00  0.00    +0.003 A 
ATOM      9  C   UNL     1      -0.892  -7.756  -5.383  0.00  0.00    +0.000 A 
ATOM     10  C   UNL     1      -0.405  -7.277  -6.585  0.00  0.00    +0.000 A 
ATOM     11  C   UNL     1       0.411  -6.162  -6.604  0.00  0.00    +0.004 A 
ATOM     12  C   UNL     1       0.748  -5.531  -5.420  0.00  0.00    -0.043 A 
ENDBRANCH   5  12
ENDBRANCH   4   5
ENDBRANCH   1   4
BRANCH   1  13
ATOM     13  C   UNL     1       4.077  -2.859  -3.813  0.00  0.00    +0.199 C 
BRANCH  13  14
ATOM     14  C   UNL     1       3.465  -1.487  -3.922  0.00  0.00    +0.022 A 
ATOM     15  C   UNL     1       2.717  -0.811  -3.017  0.00  0.00    -0.038 A 
ATOM     16  C   UNL     1       2.256   0.453  -3.336  0.00  0.00    +0.011 A 
ATOM     17  C   UNL     1       2.567   0.979  -4.546  0.00  0.00    +0.046 A 
ATOM     18  S   UNL     1       3.545  -0.325  -5.276  0.00  0.00    -0.099 S 
ATOM     19  C   UNL     1       2.392  -1.428  -1.681  0.00  0.00    +0.044 C 
ENDBRANCH  13  14
BRANCH  13  20
ATOM     20  C   UNL     1       5.538  -2.732  -3.464  0.00  0.00    +0.239 C 
ATOM     21  O   UNL     1       6.378  -3.245  -4.173  0.00  0.00    -0.273 OA
ATOM     22  N   UNL     1       5.910  -2.048  -2.364  0.00  0.00    -0.311 N 
ATOM     23  H   UNL     1       5.239  -1.637  -1.798  0.00  0.00    +0.149 HD
BRANCH  22  24
ATOM     24  C   UNL     1       7.330  -1.924  -2.025  0.00  0.00    +0.135 C 
BRANCH  24  25
ATOM     25  C   UNL     1       7.478  -1.105  -0.741  0.00  0.00    +0.135 C 
ATOM     26  C   UNL     1       8.970  -0.863  -0.443  0.00  0.00    +0.035 C 
ATOM     27  C   UNL     1       9.182  -1.480   0.961  0.00  0.00    +0.031 C 
ATOM     28  C   UNL     1       7.739  -1.508   1.525  0.00  0.00    +0.160 C 
ATOM     29  O   UNL     1       6.933  -1.834   0.372  0.00  0.00    -0.375 OA
ENDBRANCH  24  25
ENDBRANCH  22  24
ENDBRANCH  13  20
ENDBRANCH   1  13
BRANCH   2  30
ATOM     30  C   UNL     1       4.457  -3.827  -7.497  0.00  0.00    +0.241 C 
BRANCH  30  31
ATOM     31  N   UNL     1       5.263  -3.147  -8.514  0.00  0.00    -0.235 N 
ATOM     32  C   UNL     1       4.854  -2.131  -9.345  0.00  0.00    +0.090 A 
ATOM     33  C   UNL     1       3.656  -1.444  -9.514  0.00  0.00    +0.029 A 
ATOM     34  C   UNL     1       3.567  -0.456 -10.454  0.00  0.00    +0.002 A 
ATOM     35  C   UNL     1       4.663  -0.130 -11.242  0.00  0.00    +0.002 A 
ATOM     36  C   UNL     1       5.851  -0.783 -11.091  0.00  0.00    +0.032 A 
ATOM     37  C   UNL     1       5.967  -1.804 -10.138  0.00  0.00    +0.113 A 
ATOM     38  N   UNL     1       6.980  -2.616  -9.776  0.00  0.00    -0.129 NA
ATOM     39  N   UNL     1       6.604  -3.408  -8.835  0.00  0.00    -0.064 NA
ENDBRANCH  30  31
ENDBRANCH   2  30
TORSDOF 10
