REMARK  Name = ZINC50831248
REMARK  4 active torsions:
REMARK  status: ('A' for Active; 'I' for Inactive)
REMARK    1  A    between atoms: C_7  and  O_11
REMARK    2  A    between atoms: O_11  and  C_12
REMARK    3  A    between atoms: C_12  and  C_13
REMARK    4  A    between atoms: C_14  and  N_18
REMARK                            x       y       z     vdW  Elec       q    Type
REMARK                         _______ _______ _______ _____ _____    ______ ____
ROOT
ATOM      1  C   UNL     1      -0.017   1.389   0.010  0.00  0.00    +0.020 A 
ATOM      2  C   UNL     1       1.158   2.086   0.002  0.00  0.00    +0.013 A 
ATOM      3  C   UNL     1       2.362   1.359  -0.013  0.00  0.00    +0.022 A 
ATOM      4  C   UNL     1       3.609   2.007  -0.021  0.00  0.00    +0.050 A 
ATOM      5  C   UNL     1       4.754   1.269  -0.035  0.00  0.00    +0.024 A 
ATOM      6  C   UNL     1       4.708  -0.123  -0.043  0.00  0.00    +0.049 A 
ATOM      7  C   UNL     1       3.515  -0.788  -0.036  0.00  0.00    +0.147 A 
ATOM      8  C   UNL     1       2.309  -0.057  -0.020  0.00  0.00    +0.114 A 
ATOM      9  N   UNL     1       1.126  -0.678  -0.012  0.00  0.00    -0.251 NA
ATOM     10  C   UNL     1       0.002  -0.004   0.002  0.00  0.00    +0.111 A 
ATOM     11 CL   UNL     1       3.690   3.741  -0.013  0.00  0.00    -0.083 Cl
ENDROOT
BRANCH   7  12
ATOM     12  O   UNL     1       3.491  -2.146  -0.044  0.00  0.00    -0.484 OA
BRANCH  12  13
ATOM     13  C   UNL     1       4.752  -2.818  -0.060  0.00  0.00    +0.288 C 
BRANCH  13  14
ATOM     14  C   UNL     1       4.528  -4.308  -0.067  0.00  0.00    +0.130 A 
ATOM     15  C   UNL     1       4.426  -5.027   1.090  0.00  0.00    +0.110 A 
ATOM     16  S   UNL     1       4.188  -6.587   0.510  0.00  0.00    +0.051 S 
ATOM     17  N   UNL     1       4.227  -6.262  -1.133  0.00  0.00    -0.108 NA
ATOM     18  N   UNL     1       4.413  -4.987  -1.187  0.00  0.00    -0.141 NA
BRANCH  15  19
ATOM     19  N   UNL     1       4.501  -4.583   2.407  0.00  0.00    -0.350 N 
ATOM     20  H   UNL     1       4.644  -3.642   2.595  0.00  0.00    +0.143 HD
ATOM     21  H   UNL     1       4.410  -5.215   3.138  0.00  0.00    +0.143 HD
ENDBRANCH  15  19
ENDBRANCH  13  14
ENDBRANCH  12  13
ENDBRANCH   7  12
TORSDOF 4
