REMARK  Name = ZINC09243671
REMARK  12 active torsions:
REMARK  status: ('A' for Active; 'I' for Inactive)
REMARK    1  A    between atoms: C_1  and  C_2
REMARK    2  A    between atoms: C_2  and  C_3
REMARK    3  A    between atoms: C_2  and  O_4
REMARK    4  A    between atoms: O_4  and  C_5
REMARK    5  A    between atoms: C_5  and  C_6
REMARK    6  A    between atoms: C_6  and  C_7
REMARK    7  A    between atoms: C_7  and  N_8
REMARK    8  A    between atoms: C_9  and  C_26
REMARK    9  A    between atoms: C_12  and  C_19
REMARK   10  A    between atoms: C_24  and  O_25
REMARK   11  A    between atoms: C_29  and  S_32
REMARK   12  A    between atoms: S_32  and  C_33
REMARK                            x       y       z     vdW  Elec       q    Type
REMARK                         _______ _______ _______ _____ _____    ______ ____
ROOT
ATOM      1  N   UNL     1       4.779  -1.794  -3.407  0.00  0.00    -0.285 N 
ATOM      2  C   UNL     1       4.933  -3.199  -3.801  0.00  0.00    +0.141 C 
ATOM      3  C   UNL     1       5.575  -3.189  -5.162  0.00  0.00    +0.035 A 
ATOM      4  C   UNL     1       6.053  -3.908  -6.211  0.00  0.00    +0.075 A 
ATOM      5  N   UNL     1       6.507  -3.006  -7.130  0.00  0.00    -0.276 N 
ATOM      6  H   UNL     1       6.904  -3.234  -7.984  0.00  0.00    +0.189 HD
ATOM      7  N   UNL     1       6.329  -1.809  -6.694  0.00  0.00    -0.168 NA
ATOM      8  C   UNL     1       5.767  -1.831  -5.502  0.00  0.00    +0.153 A 
ATOM      9  C   UNL     1       5.255  -1.009  -4.390  0.00  0.00    +0.268 C 
ATOM     10  O   UNL     1       5.264   0.206  -4.364  0.00  0.00    -0.268 OA
ENDROOT
BRANCH   4  11
ATOM     11  C   UNL     1       6.077  -5.382  -6.333  0.00  0.00    +0.042 A 
ATOM     12  C   UNL     1       7.293  -6.062  -6.379  0.00  0.00    +0.013 A 
ATOM     13  C   UNL     1       7.310  -7.437  -6.493  0.00  0.00    +0.001 A 
ATOM     14  C   UNL     1       6.123  -8.145  -6.562  0.00  0.00    +0.004 A 
ATOM     15  C   UNL     1       4.911  -7.482  -6.518  0.00  0.00    +0.046 A 
ATOM     16  C   UNL     1       4.878  -6.102  -6.398  0.00  0.00    +0.126 A 
BRANCH  16  17
ATOM     17  O   UNL     1       3.688  -5.450  -6.348  0.00  0.00    -0.506 OA
ATOM     18  H   UNL     1       3.346  -5.188  -7.215  0.00  0.00    +0.292 HD
ENDBRANCH  16  17
ENDBRANCH   4  11
BRANCH   2  19
ATOM     19  C   UNL     1       5.816  -3.919  -2.816  0.00  0.00    -0.022 A 
ATOM     20  C   UNL     1       6.931  -3.286  -2.298  0.00  0.00    +0.007 A 
ATOM     21  C   UNL     1       7.744  -3.943  -1.395  0.00  0.00    +0.015 A 
ATOM     22  C   UNL     1       7.439  -5.242  -1.007  0.00  0.00    +0.008 A 
ATOM     23  C   UNL     1       6.318  -5.875  -1.529  0.00  0.00    +0.015 A 
ATOM     24  C   UNL     1       5.507  -5.210  -2.427  0.00  0.00    +0.007 A 
BRANCH  22  25
ATOM     25  S   UNL     1       8.473  -6.085   0.145  0.00  0.00    -0.129 S 
ATOM     26  C   UNL     1       7.687  -7.708   0.334  0.00  0.00    +0.090 C 
ENDBRANCH  22  25
ENDBRANCH   2  19
BRANCH   1  27
ATOM     27  C   UNL     1       4.197  -1.321  -2.149  0.00  0.00    +0.111 C 
BRANCH  27  28
ATOM     28  C   UNL     1       2.688  -1.133  -2.324  0.00  0.00    +0.047 C 
BRANCH  28  29
ATOM     29  C   UNL     1       2.080  -0.640  -1.010  0.00  0.00    +0.161 C 
BRANCH  29  30
ATOM     30  O   UNL     1       0.671  -0.465  -1.174  0.00  0.00    -0.377 OA
BRANCH  30  32
ATOM     31  C   UNL     1      -0.019   1.526   0.010  0.00  0.00    +0.037 C 
ATOM     32  C   UNL     1       0.002  -0.004   0.002  0.00  0.00    +0.112 C 
ATOM     33  C   UNL     1      -1.433  -0.534   0.013  0.00  0.00    +0.037 C 
ENDBRANCH  30  32
ENDBRANCH  29  30
ENDBRANCH  28  29
ENDBRANCH  27  28
ENDBRANCH   1  27
TORSDOF 9
