REMARK  Name = ZINC36990810
REMARK  5 active torsions:
REMARK  status: ('A' for Active; 'I' for Inactive)
REMARK    1  A    between atoms: C_1  and  C_2
REMARK    2  A    between atoms: C_5  and  N_13
REMARK    3  A    between atoms: C_7  and  C_12
REMARK    4  A    between atoms: N_10  and  C_11
REMARK    5  A    between atoms: N_13  and  C_14
REMARK                            x       y       z     vdW  Elec       q    Type
REMARK                         _______ _______ _______ _____ _____    ______ ____
ROOT
ATOM      1  N   UNL     1      -0.638  -2.534  -1.322  0.00  0.00    -0.340 N 
ATOM      2  H   UNL     1      -1.103  -2.773  -0.505  0.00  0.00    +0.146 HD
ENDROOT
BRANCH   1   3
ATOM      3  C   UNL     1      -1.280  -2.673  -2.558  0.00  0.00    +0.046 A 
ATOM      4  C   UNL     1      -0.615  -2.337  -3.731  0.00  0.00    +0.030 A 
ATOM      5  C   UNL     1      -1.252  -2.476  -4.944  0.00  0.00    -0.016 A 
ATOM      6  C   UNL     1      -2.556  -2.949  -5.014  0.00  0.00    +0.039 A 
ATOM      7  C   UNL     1      -3.220  -3.284  -3.836  0.00  0.00    +0.045 A 
ATOM      8  C   UNL     1      -2.583  -3.152  -2.619  0.00  0.00    +0.064 A 
ATOM      9 CL   UNL     1      -3.416  -3.580  -1.157  0.00  0.00    -0.082 Cl
ATOM     10  N   UNL     1      -2.979  -3.000  -6.346  0.00  0.00    -0.285 N 
ATOM     11  C   UNL     1      -2.027  -2.584  -7.197  0.00  0.00    +0.222 C 
ATOM     12  O   UNL     1      -2.118  -2.522  -8.405  0.00  0.00    -0.275 OA
ATOM     13  C   UNL     1      -0.820  -2.206  -6.367  0.00  0.00    +0.133 C 
ATOM     14  H   UNL     1      -3.859  -3.301  -6.623  0.00  0.00    +0.155 HD
ENDBRANCH   1   3
BRANCH   1  18
ATOM     15  C   UNL     1      -0.019   1.526   0.010  0.00  0.00    -0.013 C 
ATOM     16  C   UNL     1       0.002  -0.004   0.002  0.00  0.00    -0.070 C 
ATOM     17  C   UNL     1       0.717  -0.497  -1.258  0.00  0.00    +0.007 C 
ATOM     18  C   UNL     1       0.735  -2.028  -1.262  0.00  0.00    +0.070 C 
ATOM     19  C   UNL     1       1.410  -2.524   0.020  0.00  0.00    -0.011 C 
ATOM     20  C   UNL     1       0.669  -1.956   1.232  0.00  0.00    -0.074 C 
ATOM     21  N   UNL     1       0.711  -0.490   1.192  0.00  0.00    +0.380 N 
ATOM     22  C   UNL     1       0.067   0.050   2.397  0.00  0.00    -0.096 C 
ATOM     23  C   UNL     1       1.365  -4.053   0.062  0.00  0.00    +0.007 C 
ATOM     24  H   UNL     1       1.671  -0.182   1.159  0.00  0.00    -0.082 HD
ENDBRANCH   1  18
TORSDOF 2
