REMARK  Name = ZINC14187876
REMARK  6 active torsions:
REMARK  status: ('A' for Active; 'I' for Inactive)
REMARK    1  A    between atoms: C_1  and  C_2
REMARK    2  A    between atoms: C_3  and  C_17
REMARK    3  A    between atoms: C_4  and  N_16
REMARK    4  A    between atoms: C_17  and  C_18
REMARK    5  A    between atoms: C_17  and  C_27
REMARK    6  A    between atoms: C_17  and  O_31
REMARK                            x       y       z     vdW  Elec       q    Type
REMARK                         _______ _______ _______ _____ _____    ______ ____
ROOT
ATOM      1  C   UNL     1       3.797   5.695  -2.058  0.00  0.00    +0.068 C 
ATOM      2  C   UNL     1       4.027   6.768  -1.025  0.00  0.00    +0.069 A 
ATOM      3  C   UNL     1       3.064   7.665  -0.551  0.00  0.00    +0.061 A 
ATOM      4  C   UNL     1       3.663   8.475   0.365  0.00  0.00    +0.131 A 
ATOM      5  N   UNL     1       4.965   8.084   0.465  0.00  0.00    -0.169 N 
ATOM      6  N   UNL     1       5.160   7.016  -0.421  0.00  0.00    -0.166 NA
ATOM      7  C   UNL     1       5.927   8.647   1.291  0.00  0.00    +0.327 A 
ATOM      8  N   UNL     1       7.171   8.257   1.365  0.00  0.00    -0.191 NA
ATOM      9  C   UNL     1       7.820   9.033   2.275  0.00  0.00    +0.111 A 
ATOM     10  C   UNL     1       9.131   9.069   2.751  0.00  0.00    +0.031 A 
ATOM     11  C   UNL     1       9.487  10.002   3.701  0.00  0.00    +0.002 A 
ATOM     12  C   UNL     1       8.551  10.903   4.186  0.00  0.00    +0.004 A 
ATOM     13  C   UNL     1       7.251  10.877   3.724  0.00  0.00    +0.048 A 
ATOM     14  C   UNL     1       6.875   9.946   2.769  0.00  0.00    +0.157 A 
ATOM     15  O   UNL     1       5.715   9.677   2.129  0.00  0.00    -0.421 OA
ENDROOT
BRANCH   4  16
ATOM     16  N   UNL     1       3.057   9.508   1.071  0.00  0.00    -0.343 N 
ATOM     17  H   UNL     1       2.095   9.628   1.025  0.00  0.00    +0.144 HD
ATOM     18  H   UNL     1       3.595  10.108   1.610  0.00  0.00    +0.144 HD
ENDBRANCH   4  16
BRANCH   3  19
ATOM     19  C   UNL     1       1.622   7.729  -0.983  0.00  0.00    +0.239 C 
BRANCH  19  20
ATOM     20  C   UNL     1       1.191   9.169  -1.084  0.00  0.00    +0.125 A 
ATOM     21  N   UNL     1      -0.020   9.648  -1.150  0.00  0.00    -0.240 NA
ATOM     22  C   UNL     1      -0.272  10.970  -1.238  0.00  0.00    +0.079 A 
ATOM     23  C   UNL     1      -1.515  11.636  -1.317  0.00  0.00    +0.029 A 
ATOM     24  C   UNL     1      -1.573  12.993  -1.396  0.00  0.00    +0.002 A 
ATOM     25  C   UNL     1      -0.423  13.771  -1.414  0.00  0.00    +0.001 A 
ATOM     26  C   UNL     1       0.813  13.157  -1.338  0.00  0.00    +0.017 A 
ATOM     27  C   UNL     1       0.881  11.787  -1.253  0.00  0.00    +0.039 A 
ATOM     28  S   UNL     1       2.187  10.590  -1.140  0.00  0.00    -0.069 S 
ENDBRANCH  19  20
BRANCH  19  29
ATOM     29  C   UNL     1       0.749   7.006   0.045  0.00  0.00    +0.429 C 
ATOM     30  F   UNL     1      -0.590   7.065  -0.356  0.00  0.00    -0.167 F 
ATOM     31  F   UNL     1       1.150   5.669   0.139  0.00  0.00    -0.167 F 
ATOM     32  F   UNL     1       0.890   7.623   1.293  0.00  0.00    -0.167 F 
ENDBRANCH  19  29
BRANCH  19  33
ATOM     33  O   UNL     1       1.478   7.098  -2.257  0.00  0.00    -0.370 OA
ATOM     34  H   UNL     1       2.004   7.504  -2.959  0.00  0.00    +0.211 HD
ENDBRANCH  19  33
ENDBRANCH   3  19
TORSDOF 5
