REMARK  Name = ZINC35694930
REMARK  11 active torsions:
REMARK  status: ('A' for Active; 'I' for Inactive)
REMARK    1  A    between atoms: C_1  and  C_2
REMARK    2  A    between atoms: C_5  and  N_8
REMARK    3  A    between atoms: C_10  and  C_26
REMARK    4  A    between atoms: C_14  and  C_16
REMARK    5  A    between atoms: C_16  and  N_17
REMARK    6  A    between atoms: N_17  and  C_18
REMARK    7  A    between atoms: C_18  and  C_19
REMARK    8  A    between atoms: C_19  and  N_20
REMARK    9  A    between atoms: N_20  and  C_21
REMARK   10  A    between atoms: N_20  and  C_22
REMARK   11  A    between atoms: C_23  and  C_25
REMARK                            x       y       z     vdW  Elec       q    Type
REMARK                         _______ _______ _______ _____ _____    ______ ____
ROOT
ATOM      1  N   UNL     1      -0.744  -5.165   0.488  0.00  0.00    -0.287 N 
ATOM      2  C   UNL     1      -1.672  -6.121   0.153  0.00  0.00    +0.122 A 
ATOM      3  C   UNL     1      -1.216  -7.301   0.643  0.00  0.00    +0.091 A 
ATOM      4  N   UNL     1      -0.037  -7.069   1.261  0.00  0.00    -0.214 NA
ATOM      5  C   UNL     1       0.256  -5.796   1.168  0.00  0.00    +0.207 A 
ATOM      6  N   UNL     1       1.394  -5.188   1.681  0.00  0.00    -0.254 N 
ATOM      7  C   UNL     1       2.313  -5.923   2.338  0.00  0.00    +0.237 C 
ATOM      8  O   UNL     1       2.146  -7.116   2.481  0.00  0.00    -0.274 OA
ATOM      9  H   UNL     1       1.528  -4.234   1.567  0.00  0.00    +0.158 HD
ENDROOT
BRANCH   1  14
ATOM     10  C   UNL     1      -1.007   0.367  -0.753  0.00  0.00    +0.044 C 
ATOM     11  C   UNL     1      -0.937  -1.102  -0.423  0.00  0.00    -0.050 A 
ATOM     12  C   UNL     1      -1.140  -2.043  -1.417  0.00  0.00    +0.005 A 
ATOM     13  C   UNL     1      -1.076  -3.390  -1.118  0.00  0.00    +0.026 A 
ATOM     14  C   UNL     1      -0.808  -3.799   0.181  0.00  0.00    +0.049 A 
ATOM     15  C   UNL     1      -0.604  -2.853   1.176  0.00  0.00    +0.026 A 
ATOM     16  C   UNL     1      -0.664  -1.507   0.870  0.00  0.00    +0.005 A 
ENDBRANCH   1  14
BRANCH   3  17
ATOM     17  C   UNL     1      -1.892  -8.616   0.522  0.00  0.00    +0.002 A 
ATOM     18  C   UNL     1      -3.109  -8.716  -0.150  0.00  0.00    +0.011 A 
ATOM     19  C   UNL     1      -3.734  -9.941  -0.261  0.00  0.00    +0.020 A 
ATOM     20  C   UNL     1      -3.155 -11.069   0.294  0.00  0.00    +0.041 A 
ATOM     21  C   UNL     1      -1.946 -10.975   0.963  0.00  0.00    +0.020 A 
ATOM     22  C   UNL     1      -1.310  -9.755   1.074  0.00  0.00    +0.011 A 
ATOM     23 CL   UNL     1      -3.946 -12.608   0.153  0.00  0.00    -0.084 Cl
ENDBRANCH   3  17
BRANCH   7  24
ATOM     24  C   UNL     1       3.548  -5.264   2.895  0.00  0.00    +0.203 C 
BRANCH  24  25
ATOM     25  N   UNL     1       4.382  -6.269   3.558  0.00  0.00    -0.295 N 
ATOM     26  C   UNL     1       4.144  -6.602   4.842  0.00  0.00    +0.213 C 
ATOM     27  O   UNL     1       4.889  -7.365   5.419  0.00  0.00    -0.276 OA
ATOM     28  C   UNL     1       2.950  -6.027   5.561  0.00  0.00    +0.109 C 
BRANCH  25  29
ATOM     29  C   UNL     1       5.475  -6.913   2.825  0.00  0.00    +0.090 C 
BRANCH  29  30
ATOM     30  C   UNL     1       6.759  -6.101   3.006  0.00  0.00    -0.060 C 
BRANCH  30  31
ATOM     31  N   UNL     1       7.855  -6.746   2.272  0.00  0.00    +0.377 N 
ATOM     32  C   UNL     1       7.569  -6.705   0.831  0.00  0.00    -0.097 C 
ATOM     33  C   UNL     1       9.111  -6.035   2.542  0.00  0.00    -0.097 C 
ATOM     34  H   UNL     1       7.941  -7.706   2.570  0.00  0.00    -0.083 HD
ENDBRANCH  30  31
ENDBRANCH  29  30
ENDBRANCH  25  29
ENDBRANCH  24  25
ENDBRANCH   7  24
TORSDOF 7
