REMARK  Name = ZINC67388894
REMARK  8 active torsions:
REMARK  status: ('A' for Active; 'I' for Inactive)
REMARK    1  A    between atoms: C_1  and  C_2
REMARK    2  A    between atoms: C_6  and  C_7
REMARK    3  A    between atoms: N_9  and  N_10
REMARK    4  A    between atoms: N_13  and  C_14
REMARK    5  A    between atoms: C_20  and  C_22
REMARK    6  A    between atoms: C_22  and  C_23
REMARK    7  A    between atoms: C_22  and  C_24
REMARK    8  A    between atoms: C_22  and  C_25
REMARK                            x       y       z     vdW  Elec       q    Type
REMARK                         _______ _______ _______ _____ _____    ______ ____
ROOT
ATOM      1  N   UNL     1       0.687  -1.218   4.590  0.00  0.00    -0.218 N 
ATOM      2  C   UNL     1       0.673  -2.127   5.585  0.00  0.00    +0.316 C 
ATOM      3  O   UNL     1       0.923  -1.784   6.725  0.00  0.00    -0.251 OA
ATOM      4  N   UNL     1       0.382  -3.415   5.317  0.00  0.00    -0.295 N 
ATOM      5  H   UNL     1       0.896  -0.291   4.783  0.00  0.00    +0.174 HD
ATOM      6  H   UNL     1       0.183  -3.688   4.408  0.00  0.00    +0.151 HD
ENDROOT
BRANCH   4   7
ATOM      7  C   UNL     1       0.367  -4.403   6.399  0.00  0.00    +0.078 C 
ATOM      8  C   UNL     1       1.759  -5.022   6.543  0.00  0.00    +0.022 C 
ATOM      9  C   UNL     1       2.151  -5.707   5.233  0.00  0.00    +0.002 C 
ATOM     10  C   UNL     1       1.136  -6.805   4.907  0.00  0.00    +0.000 C 
ATOM     11  C   UNL     1      -0.256  -6.185   4.763  0.00  0.00    +0.006 C 
ATOM     12  C   UNL     1      -0.648  -5.500   6.074  0.00  0.00    +0.015 C 
BRANCH  12  13
ATOM     13  C   UNL     1      -2.039  -4.881   5.929  0.00  0.00    -0.033 C 
ATOM     14  C   UNL     1      -2.065  -3.965   4.705  0.00  0.00    +0.011 C 
ATOM     15  C   UNL     1      -3.077  -5.992   5.757  0.00  0.00    +0.011 C 
ATOM     16  C   UNL     1      -2.368  -4.067   7.183  0.00  0.00    +0.011 C 
ENDBRANCH  12  13
ENDBRANCH   4   7
BRANCH   1  19
ATOM     17  C   UNL     1       0.412  -0.704   2.282  0.00  0.00    +0.267 C 
ATOM     18  O   UNL     1       0.675   0.460   2.524  0.00  0.00    -0.268 OA
ATOM     19  N   UNL     1       0.399  -1.613   3.277  0.00  0.00    -0.229 N 
ATOM     20  H   UNL     1       0.189  -2.540   3.084  0.00  0.00    +0.173 HD
BRANCH  17  26
ATOM     21  C   UNL     1       0.358   1.130  -0.236  0.00  0.00    +0.045 C 
ATOM     22  C   UNL     1       0.072  -0.350  -0.246  0.00  0.00    -0.031 A 
ATOM     23  C   UNL     1      -0.239  -1.026  -1.402  0.00  0.00    +0.011 A 
ATOM     24  C   UNL     1      -0.485  -2.358  -1.340  0.00  0.00    +0.046 A 
ATOM     25  S   UNL     1      -0.302  -2.736   0.286  0.00  0.00    -0.092 S 
ATOM     26  C   UNL     1       0.111  -1.117   0.908  0.00  0.00    +0.078 A 
ENDBRANCH  17  26
ENDBRANCH   1  19
TORSDOF 4
