REMARK  Name = ZINC20895005
REMARK  8 active torsions:
REMARK  status: ('A' for Active; 'I' for Inactive)
REMARK    1  A    between atoms: C_1  and  C_2
REMARK    2  A    between atoms: C_2  and  N_3
REMARK    3  A    between atoms: C_7  and  C_9
REMARK    4  A    between atoms: C_9  and  C_11
REMARK    5  A    between atoms: C_9  and  S_12
REMARK    6  A    between atoms: S_12  and  C_13
REMARK    7  A    between atoms: C_18  and  C_20
REMARK    8  A    between atoms: N_28  and  C_29
REMARK                            x       y       z     vdW  Elec       q    Type
REMARK                         _______ _______ _______ _____ _____    ______ ____
ROOT
ATOM      1  C   UNL     1       7.709   4.734  -0.552  0.00  0.00    +0.178 A 
ATOM      2  N   UNL     1       7.353   3.465  -0.569  0.00  0.00    -0.215 NA
ATOM      3  C   UNL     1       6.179   3.080  -0.088  0.00  0.00    +0.117 A 
ATOM      4  C   UNL     1       5.256   3.995   0.462  0.00  0.00    +0.073 A 
ATOM      5  C   UNL     1       4.052   3.438   0.927  0.00  0.00    +0.031 A 
ATOM      6  C   UNL     1       3.847   2.100   0.837  0.00  0.00    +0.022 A 
ATOM      7  S   UNL     1       5.349   1.519   0.070  0.00  0.00    -0.068 S 
ATOM      8  C   UNL     1       5.671   5.366   0.466  0.00  0.00    +0.267 A 
ATOM      9  O   UNL     1       4.942   6.230   0.920  0.00  0.00    -0.267 OA
ATOM     10  N   UNL     1       6.877   5.688  -0.038  0.00  0.00    -0.255 N 
ENDROOT
BRANCH   6  11
ATOM     11  C   UNL     1       2.667   1.318   1.264  0.00  0.00    -0.011 A 
ATOM     12  C   UNL     1       1.576   1.960   1.851  0.00  0.00    +0.009 A 
ATOM     13  C   UNL     1       0.478   1.225   2.247  0.00  0.00    +0.001 A 
ATOM     14  C   UNL     1       0.457  -0.146   2.062  0.00  0.00    +0.000 A 
ATOM     15  C   UNL     1       1.536  -0.789   1.480  0.00  0.00    +0.001 A 
ATOM     16  C   UNL     1       2.640  -0.065   1.080  0.00  0.00    +0.009 A 
ENDBRANCH   6  11
BRANCH  10  17
ATOM     17  C   UNL     1       7.286   7.028  -0.036  0.00  0.00    +0.052 A 
ATOM     18  C   UNL     1       7.982   7.541   1.051  0.00  0.00    +0.026 A 
ATOM     19  C   UNL     1       8.389   8.861   1.048  0.00  0.00    +0.002 A 
ATOM     20  C   UNL     1       8.095   9.674  -0.031  0.00  0.00    +0.000 A 
ATOM     21  C   UNL     1       7.398   9.167  -1.113  0.00  0.00    +0.002 A 
ATOM     22  C   UNL     1       6.993   7.847  -1.118  0.00  0.00    +0.026 A 
ENDBRANCH  10  17
BRANCH   1  23
ATOM     23  S   UNL     1       9.278   5.206  -1.201  0.00  0.00    -0.075 S 
BRANCH  23  24
ATOM     24  C   UNL     1       9.905   3.588  -1.716  0.00  0.00    +0.137 C 
ATOM     25  C   UNL     1      10.106   2.703  -0.483  0.00  0.00    +0.029 C 
BRANCH  24  30
ATOM     26  N   UNL     1      13.223   2.071  -4.847  0.00  0.00    -0.299 N 
ATOM     27  C   UNL     1      12.810   2.995  -3.956  0.00  0.00    +0.306 C 
ATOM     28  O   UNL     1      13.500   3.969  -3.728  0.00  0.00    -0.252 OA
ATOM     29  N   UNL     1      11.633   2.839  -3.319  0.00  0.00    -0.239 N 
ATOM     30  C   UNL     1      11.221   3.763  -2.428  0.00  0.00    +0.233 C 
ATOM     31  O   UNL     1      11.909   4.734  -2.201  0.00  0.00    -0.274 OA
ATOM     32  H   UNL     1      12.598   1.190  -5.053  0.00  0.00    +0.150 HD
ATOM     33  H   UNL     1      11.009   1.957  -3.525  0.00  0.00    +0.159 HD
BRANCH  26  35
ATOM     34  C   UNL     1      14.729   1.062  -6.487  0.00  0.00    +0.024 C 
ATOM     35  C   UNL     1      14.502   2.241  -5.540  0.00  0.00    +0.102 C 
ENDBRANCH  26  35
ENDBRANCH  24  30
ENDBRANCH  23  24
ENDBRANCH   1  23
TORSDOF 6
