REMARK  Name = ZINC20663118
REMARK  4 active torsions:
REMARK  status: ('A' for Active; 'I' for Inactive)
REMARK    1  A    between atoms: C_5  and  C_7
REMARK    2  A    between atoms: N_9  and  C_10
REMARK    3  A    between atoms: C_10  and  C_21
REMARK    4  A    between atoms: C_11  and  C_12
REMARK                            x       y       z     vdW  Elec       q    Type
REMARK                         _______ _______ _______ _____ _____    ______ ____
ROOT
ATOM      1  C   UNL     1      -0.936  -2.000  -0.066  0.00  0.00    +0.097 C 
ATOM      2  C   UNL     1      -2.068  -2.736   0.025  0.00  0.00    +0.036 C 
ENDROOT
BRANCH   1   3
ATOM      3  C   UNL     1       0.372  -2.666  -0.104  0.00  0.00    +0.261 C 
ATOM      4  O   UNL     1       0.873  -2.962  -1.173  0.00  0.00    -0.269 OA
ATOM      5  N   UNL     1       1.018  -2.950   1.044  0.00  0.00    -0.296 N 
ATOM      6  C   UNL     1       2.365  -3.531   1.024  0.00  0.00    +0.113 C 
ATOM      7  C   UNL     1       2.432  -4.751   1.924  0.00  0.00    +0.027 C 
ATOM      8  C   UNL     1       1.854  -4.452   3.307  0.00  0.00    +0.018 C 
ATOM      9  C   UNL     1       0.398  -4.010   3.135  0.00  0.00    +0.054 C 
ATOM     10  C   UNL     1       0.385  -2.688   2.347  0.00  0.00    +0.117 C 
ATOM     11  C   UNL     1      -0.354  -5.036   2.319  0.00  0.00    +0.027 A 
ATOM     12  C   UNL     1      -1.700  -5.108   2.496  0.00  0.00    +0.022 A 
ATOM     13  C   UNL     1      -2.474  -5.987   1.731  0.00  0.00    +0.007 A 
ATOM     14  C   UNL     1      -1.857  -6.758   0.789  0.00  0.00    +0.070 A 
ATOM     15  C   UNL     1      -0.467  -6.662   0.634  0.00  0.00    +0.251 A 
ATOM     16  O   UNL     1       0.088  -7.310  -0.238  0.00  0.00    -0.268 OA
ATOM     17  N   UNL     1       0.268  -5.857   1.441  0.00  0.00    -0.312 N 
ATOM     18  C   UNL     1       1.722  -5.946   1.315  0.00  0.00    +0.130 C 
ENDBRANCH   1   3
BRANCH   2  19
ATOM     19  C   UNL     1      -3.376  -2.069   0.089  0.00  0.00    -0.019 A 
ATOM     20  C   UNL     1      -4.464  -2.711   0.692  0.00  0.00    +0.012 A 
ATOM     21  C   UNL     1      -5.687  -2.081   0.754  0.00  0.00    +0.050 A 
ATOM     22  C   UNL     1      -5.849  -0.813   0.211  0.00  0.00    +0.166 A 
ATOM     23  C   UNL     1      -4.771  -0.169  -0.396  0.00  0.00    +0.167 A 
ATOM     24  C   UNL     1      -3.540  -0.791  -0.458  0.00  0.00    +0.057 A 
ATOM     25  O   UNL     1      -5.189   1.052  -0.843  0.00  0.00    -0.453 OA
ATOM     26  C   UNL     1      -6.420   1.316  -0.144  0.00  0.00    +0.466 C 
ATOM     27  O   UNL     1      -6.939   0.005   0.143  0.00  0.00    -0.453 OA
ENDBRANCH   2  19
BRANCH   1  30
ATOM     28  C   UNL     1      -0.425   0.061  -1.140  0.00  0.00    +0.251 C 
ATOM     29  O   UNL     1       0.100  -0.555  -2.047  0.00  0.00    -0.270 OA
ATOM     30  N   UNL     1      -1.012  -0.604  -0.125  0.00  0.00    -0.277 N 
ATOM     31  H   UNL     1      -1.552  -0.049   0.657  0.00  0.00    +0.155 HD
BRANCH  28  36
ATOM     32  C   UNL     1      -1.103   3.627  -0.181  0.00  0.00    +0.001 A 
ATOM     33  C   UNL     1      -0.409   4.309  -1.167  0.00  0.00    +0.003 A 
ATOM     34  C   UNL     1       0.279   3.614  -2.143  0.00  0.00    +0.039 A 
ATOM     35  C   UNL     1       0.279   2.231  -2.142  0.00  0.00    +0.135 A 
ATOM     36  C   UNL     1      -0.420   1.538  -1.149  0.00  0.00    +0.072 A 
ATOM     37  C   UNL     1      -1.117   2.249  -0.170  0.00  0.00    +0.016 A 
ATOM     38  F   UNL     1       0.951   1.553  -3.098  0.00  0.00    -0.205 F 
ENDBRANCH  28  36
ENDBRANCH   1  30
TORSDOF 4
