REMARK  Name = ZINC39637893
REMARK  8 active torsions:
REMARK  status: ('A' for Active; 'I' for Inactive)
REMARK    1  A    between atoms: C_1  and  C_2
REMARK    2  A    between atoms: C_2  and  C_3
REMARK    3  A    between atoms: C_3  and  C_5
REMARK    4  A    between atoms: C_3  and  N_8
REMARK    5  A    between atoms: C_5  and  O_6
REMARK    6  A    between atoms: O_6  and  C_7
REMARK    7  A    between atoms: C_9  and  C_11
REMARK    8  A    between atoms: C_22  and  C_24
REMARK                            x       y       z     vdW  Elec       q    Type
REMARK                         _______ _______ _______ _____ _____    ______ ____
ROOT
ATOM      1  C   UNL     1      -3.417   1.359   2.949  0.00  0.00    +0.100 C 
ATOM      2  C   UNL     1      -2.345   1.339   4.062  0.00  0.00    +0.121 C 
ATOM      3  N   UNL     1      -1.822   2.725   4.101  0.00  0.00    -0.296 N 
ATOM      4  C   UNL     1      -3.019   3.577   3.905  0.00  0.00    +0.115 C 
ATOM      5  C   UNL     1      -3.859   2.828   2.851  0.00  0.00    -0.004 C 
ATOM      6  C   UNL     1      -3.566   3.377   1.458  0.00  0.00    -0.010 C 
ATOM      7  C   UNL     1      -4.066   4.821   1.368  0.00  0.00    -0.082 C 
ATOM      8  N   UNL     1      -5.508   4.860   1.638  0.00  0.00    +0.379 N 
ATOM      9  C   UNL     1      -5.773   4.418   3.012  0.00  0.00    -0.082 C 
ATOM     10  C   UNL     1      -5.345   2.956   3.172  0.00  0.00    -0.010 C 
ATOM     11  C   UNL     1      -0.545   3.121   4.277  0.00  0.00    +0.247 C 
ATOM     12  O   UNL     1      -0.284   4.305   4.373  0.00  0.00    -0.270 OA
ATOM     13  H   UNL     1      -5.846   5.803   1.518  0.00  0.00    -0.086 HD
ATOM     14  H   UNL     1      -5.986   4.250   0.992  0.00  0.00    -0.086 HD
ENDROOT
BRANCH  11  15
ATOM     15  C   UNL     1       0.536   2.118   4.351  0.00  0.00    +0.045 A 
ATOM     16  C   UNL     1       0.422   1.025   5.218  0.00  0.00    +0.014 A 
ATOM     17  C   UNL     1       1.429   0.087   5.288  0.00  0.00    +0.001 A 
ATOM     18  C   UNL     1       2.565   0.215   4.504  0.00  0.00    +0.012 A 
ATOM     19  C   UNL     1       2.698   1.293   3.637  0.00  0.00    +0.031 A 
ATOM     20  C   UNL     1       1.677   2.253   3.550  0.00  0.00    +0.006 A 
ATOM     21  C   UNL     1       2.072   3.279   2.552  0.00  0.00    -0.006 A 
ATOM     22  C   UNL     1       1.433   4.426   2.101  0.00  0.00    +0.009 A 
ATOM     23  C   UNL     1       2.038   5.225   1.142  0.00  0.00    +0.001 A 
ATOM     24  C   UNL     1       3.275   4.887   0.629  0.00  0.00    +0.001 A 
ATOM     25  C   UNL     1       3.925   3.745   1.069  0.00  0.00    +0.012 A 
ATOM     26  C   UNL     1       3.331   2.937   2.030  0.00  0.00    +0.030 A 
ATOM     27  C   UNL     1       3.773   1.688   2.696  0.00  0.00    +0.194 C 
ATOM     28  O   UNL     1       4.813   1.093   2.497  0.00  0.00    -0.287 OA
ENDBRANCH  11  15
BRANCH   1  30
ATOM     29  N   UNL     1      -3.598   0.279   0.730  0.00  0.00    -0.310 N 
ATOM     30  C   UNL     1      -2.823   0.901   1.641  0.00  0.00    +0.218 C 
ATOM     31  O   UNL     1      -1.649   1.093   1.408  0.00  0.00    -0.275 OA
ATOM     32  H   UNL     1      -4.537   0.126   0.916  0.00  0.00    +0.149 HD
BRANCH  29  33
ATOM     33  C   UNL     1      -3.021  -0.166  -0.541  0.00  0.00    +0.098 C 
BRANCH  33  35
ATOM     34  C   UNL     1      -1.202  -1.435   0.608  0.00  0.00    +0.006 C 
ATOM     35  C   UNL     1      -2.384  -1.544  -0.357  0.00  0.00    +0.021 C 
ENDBRANCH  33  35
BRANCH  33  36
ATOM     36  C   UNL     1      -4.122  -0.250  -1.599  0.00  0.00    +0.181 C 
BRANCH  36  37
ATOM     37  O   UNL     1      -5.058  -1.266  -1.233  0.00  0.00    -0.381 OA
ATOM     38  C   UNL     1      -6.134  -1.427  -2.160  0.00  0.00    +0.194 C 
ENDBRANCH  36  37
ENDBRANCH  33  36
ENDBRANCH  29  33
ENDBRANCH   1  30
TORSDOF 6
