REMARK  Name = ZINC67303131
REMARK  7 active torsions:
REMARK  status: ('A' for Active; 'I' for Inactive)
REMARK    1  A    between atoms: C_1  and  C_2
REMARK    2  A    between atoms: C_2  and  C_4
REMARK    3  A    between atoms: C_2  and  N_18
REMARK    4  A    between atoms: N_14  and  C_15
REMARK    5  A    between atoms: C_15  and  C_16
REMARK    6  A    between atoms: C_15  and  C_17
REMARK    7  A    between atoms: C_19  and  C_21
REMARK                            x       y       z     vdW  Elec       q    Type
REMARK                         _______ _______ _______ _____ _____    ______ ____
ROOT
ATOM      1  C   UNL     1       0.609  -0.452  -1.303  0.00  0.00    +0.236 C 
ATOM      2  O   UNL     1       1.573  -1.189  -1.303  0.00  0.00    -0.274 OA
ATOM      3  N   UNL     1       0.088  -0.025  -2.470  0.00  0.00    -0.297 N 
ATOM      4  C   UNL     1      -0.997   0.966  -2.487  0.00  0.00    +0.127 C 
ATOM      5  C   UNL     1      -0.565   2.152  -3.357  0.00  0.00    +0.128 C 
ATOM      6  N   UNL     1      -0.057   1.637  -4.636  0.00  0.00    -0.283 N 
ATOM      7  C   UNL     1       1.028   0.647  -4.620  0.00  0.00    +0.128 C 
ATOM      8  C   UNL     1       0.600  -0.536  -3.750  0.00  0.00    +0.127 C 
ATOM      9  C   UNL     1      -0.578   2.064  -5.803  0.00  0.00    +0.302 C 
ATOM     10  O   UNL     1      -1.536   2.814  -5.803  0.00  0.00    -0.253 OA
ATOM     11  N   UNL     1      -0.038   1.660  -6.970  0.00  0.00    -0.297 N 
ATOM     12  H   UNL     1       0.678   1.006  -6.973  0.00  0.00    +0.150 HD
ENDROOT
BRANCH  11  13
ATOM     13  C   UNL     1      -0.534   2.209  -8.235  0.00  0.00    +0.068 C 
ATOM     14  C   UNL     1       0.564   2.115  -9.296  0.00  0.00    +0.027 C 
ATOM     15  C   UNL     1      -1.756   1.411  -8.693  0.00  0.00    +0.027 C 
ENDBRANCH  11  13
BRANCH   1  17
ATOM     16  C   UNL     1       0.537   1.365   0.383  0.00  0.00    +0.038 C 
ATOM     17  C   UNL     1      -0.005  -0.014   0.001  0.00  0.00    +0.156 C 
BRANCH  17  18
ATOM     18  N   UNL     1       0.335  -0.979   1.050  0.00  0.00    -0.304 N 
ATOM     19  C   UNL     1      -0.460  -1.109   2.130  0.00  0.00    +0.217 C 
ATOM     20  O   UNL     1      -1.457  -0.426   2.235  0.00  0.00    -0.275 OA
ATOM     21  H   UNL     1       1.133  -1.526   0.966  0.00  0.00    +0.149 HD
BRANCH  19  22
ATOM     22  C   UNL     1      -0.110  -2.102   3.208  0.00  0.00    +0.075 C 
ATOM     23  C   UNL     1      -0.067  -3.510   2.611  0.00  0.00    +0.013 C 
ATOM     24  C   UNL     1       0.288  -4.518   3.705  0.00  0.00    +0.001 C 
ATOM     25  C   UNL     1      -0.769  -4.465   4.810  0.00  0.00    +0.000 C 
ATOM     26  C   UNL     1      -0.812  -3.057   5.408  0.00  0.00    +0.001 C 
ATOM     27  C   UNL     1      -1.167  -2.049   4.313  0.00  0.00    +0.013 C 
ENDBRANCH  19  22
ENDBRANCH  17  18
ENDBRANCH   1  17
TORSDOF 4
