REMARK  Name = ZINC20168498
REMARK  10 active torsions:
REMARK  status: ('A' for Active; 'I' for Inactive)
REMARK    1  A    between atoms: C_1  and  C_2
REMARK    2  A    between atoms: C_2  and  O_3
REMARK    3  A    between atoms: O_3  and  C_4
REMARK    4  A    between atoms: C_4  and  C_6
REMARK    5  A    between atoms: C_10  and  N_11
REMARK    6  A    between atoms: N_11  and  C_12
REMARK    7  A    between atoms: C_12  and  N_14
REMARK    8  A    between atoms: N_14  and  N_15
REMARK    9  A    between atoms: C_16  and  C_18
REMARK   10  A    between atoms: C_25  and  C_28
REMARK                            x       y       z     vdW  Elec       q    Type
REMARK                         _______ _______ _______ _____ _____    ______ ____
ROOT
ATOM      1  C   UNL     1       6.607  -2.401   1.590  0.00  0.00    +0.151 C 
ATOM      2  S   UNL     1       7.025  -1.270   0.375  0.00  0.00    -0.017 S 
ENDROOT
BRANCH   1   3
ATOM      3  N   UNL     1       5.329  -2.501   2.007  0.00  0.00    -0.290 N 
ATOM      4  H   UNL     1       5.060  -3.228   2.787  0.00  0.00    +0.154 HD
BRANCH   3   9
ATOM      5  C   UNL     1       2.999  -1.643   1.746  0.00  0.00    +0.091 A 
ATOM      6  C   UNL     1       2.179  -0.684   1.016  0.00  0.00    -0.021 A 
ATOM      7  C   UNL     1       2.846   0.061   0.110  0.00  0.00    -0.004 A 
ATOM      8  S   UNL     1       4.530  -0.480   0.224  0.00  0.00    -0.077 S 
ATOM      9  C   UNL     1       4.354  -1.688   1.452  0.00  0.00    +0.086 A 
ATOM     10  C   UNL     1       2.288   1.104  -0.807  0.00  0.00    +0.043 C 
ATOM     11  C   UNL     1       1.407   2.067  -0.000  0.00  0.00    +0.005 C 
ATOM     12  C   UNL     1      -0.019   1.523   0.010  0.00  0.00    +0.001 C 
ATOM     13  C   UNL     1       0.002  -0.004   0.002  0.00  0.00    +0.005 C 
ATOM     14  C   UNL     1       0.683  -0.534   1.259  0.00  0.00    +0.037 C 
BRANCH   5  15
ATOM     15  C   UNL     1       2.413  -2.526   2.756  0.00  0.00    +0.342 C 
ATOM     16  O   UNL     1       1.984  -3.618   2.434  0.00  0.00    -0.245 OA
BRANCH  15  17
ATOM     17  O   UNL     1       2.349  -2.129   4.044  0.00  0.00    -0.461 OA
BRANCH  17  19
ATOM     18  C   UNL     1       1.770  -2.437   6.389  0.00  0.00    +0.048 C 
ATOM     19  C   UNL     1       1.755  -3.057   4.990  0.00  0.00    +0.229 C 
ENDBRANCH  17  19
ENDBRANCH  15  17
ENDBRANCH   5  15
ENDBRANCH   3   9
ENDBRANCH   1   3
BRANCH   1  20
ATOM     20  N   UNL     1       7.555  -3.192   2.129  0.00  0.00    -0.245 N 
ATOM     21  H   UNL     1       8.598  -3.111   1.788  0.00  0.00    +0.172 HD
BRANCH  20  22
ATOM     22  N   UNL     1       7.213  -4.119   3.123  0.00  0.00    -0.231 N 
ATOM     23  C   UNL     1       8.162  -4.910   3.662  0.00  0.00    +0.261 C 
ATOM     24  O   UNL     1       9.315  -4.820   3.286  0.00  0.00    -0.269 OA
ATOM     25  H   UNL     1       6.170  -4.200   3.463  0.00  0.00    +0.173 HD
BRANCH  23  26
ATOM     26  C   UNL     1       7.802  -5.883   4.707  0.00  0.00    +0.049 A 
ATOM     27  C   UNL     1       6.503  -6.003   5.149  0.00  0.00    +0.058 A 
ATOM     28  S   UNL     1       6.607  -7.251   6.347  0.00  0.00    -0.101 S 
ATOM     29  C   UNL     1       8.341  -7.593   6.250  0.00  0.00    -0.006 A 
ATOM     30  C   UNL     1       8.803  -6.749   5.299  0.00  0.00    -0.025 A 
ATOM     31  C   UNL     1      10.276  -6.737   4.911  0.00  0.00    +0.037 C 
ATOM     32  C   UNL     1      11.083  -7.417   6.019  0.00  0.00    +0.008 C 
ATOM     33  C   UNL     1      10.487  -8.793   6.328  0.00  0.00    -0.009 C 
ATOM     34  C   UNL     1       9.134  -8.594   7.033  0.00  0.00    +0.046 C 
ATOM     35  C   UNL     1      11.434  -9.568   7.246  0.00  0.00    +0.008 C 
ENDBRANCH  23  26
ENDBRANCH  20  22
ENDBRANCH   1  20
TORSDOF 8
