REMARK  Name = ZINC01414748
REMARK  9 active torsions:
REMARK  status: ('A' for Active; 'I' for Inactive)
REMARK    1  A    between atoms: C_1  and  C_2
REMARK    2  A    between atoms: C_2  and  C_3
REMARK    3  A    between atoms: C_2  and  C_4
REMARK    4  A    between atoms: C_7  and  C_10
REMARK    5  A    between atoms: C_12  and  C_13
REMARK    6  A    between atoms: C_13  and  C_14
REMARK    7  A    between atoms: N_26  and  C_27
REMARK    8  A    between atoms: C_27  and  C_28
REMARK    9  A    between atoms: C_28  and  C_29
REMARK                            x       y       z     vdW  Elec       q    Type
REMARK                         _______ _______ _______ _____ _____    ______ ____
ROOT
ATOM      1  C   UNL     1       0.667   3.330  -0.382  0.00  0.00    +0.145 C 
ATOM      2  C   UNL     1       0.846   1.838  -0.225  0.00  0.00    +0.076 C 
ATOM      3  C   UNL     1      -0.445   1.301  -0.101  0.00  0.00    +0.249 C 
ATOM      4  O   UNL     1      -0.718   0.124   0.048  0.00  0.00    -0.282 OA
ATOM      5  C   UNL     1      -1.423   2.420  -0.182  0.00  0.00    +0.288 C 
ATOM      6  O   UNL     1      -2.629   2.297  -0.114  0.00  0.00    -0.266 OA
ATOM      7  N   UNL     1      -0.776   3.587  -0.338  0.00  0.00    -0.283 N 
ENDROOT
BRANCH   1  11
ATOM      8  C   UNL     1       2.266   4.609  -4.131  0.00  0.00    -0.045 A 
ATOM      9  C   UNL     1       2.883   4.984  -2.952  0.00  0.00    +0.004 A 
ATOM     10  C   UNL     1       2.365   4.571  -1.739  0.00  0.00    +0.006 A 
ATOM     11  C   UNL     1       1.231   3.781  -1.705  0.00  0.00    -0.022 A 
ATOM     12  C   UNL     1       0.617   3.401  -2.884  0.00  0.00    +0.006 A 
ATOM     13  C   UNL     1       1.133   3.819  -4.097  0.00  0.00    +0.004 A 
BRANCH   8  15
ATOM     14  C   UNL     1       3.207   3.838  -6.292  0.00  0.00    +0.012 C 
ATOM     15  C   UNL     1       2.830   5.061  -5.454  0.00  0.00    +0.013 C 
ATOM     16  C   UNL     1       1.781   5.887  -6.199  0.00  0.00    +0.012 C 
ENDBRANCH   8  15
ENDBRANCH   1  11
BRANCH   2  17
ATOM     17  C   UNL     1       2.038   1.143  -0.208  0.00  0.00    +0.195 C 
ATOM     18  O   UNL     1       2.033  -0.207  -0.193  0.00  0.00    -0.287 OA
BRANCH  17  19
ATOM     19  C   UNL     1       3.316   1.874  -0.206  0.00  0.00    +0.022 A 
ATOM     20  C   UNL     1       4.331   1.518  -1.102  0.00  0.00    +0.014 A 
ATOM     21  C   UNL     1       5.523   2.208  -1.097  0.00  0.00    +0.039 A 
ATOM     22  C   UNL     1       5.722   3.248  -0.201  0.00  0.00    +0.123 A 
ATOM     23  C   UNL     1       4.722   3.603   0.693  0.00  0.00    +0.039 A 
ATOM     24  C   UNL     1       3.524   2.924   0.696  0.00  0.00    +0.014 A 
ATOM     25  F   UNL     1       6.895   3.918  -0.199  0.00  0.00    -0.205 F 
ENDBRANCH  17  19
ENDBRANCH   2  17
BRANCH   7  26
ATOM     26  C   UNL     1      -1.410   4.903  -0.453  0.00  0.00    +0.114 C 
BRANCH  26  27
ATOM     27  C   UNL     1      -1.702   5.202  -1.924  0.00  0.00    +0.056 C 
BRANCH  27  28
ATOM     28  C   UNL     1      -2.355   6.555  -2.042  0.00  0.00    -0.021 A 
ATOM     29  C   UNL     1      -3.672   6.804  -2.098  0.00  0.00    +0.087 A 
ATOM     30  N   UNL     1      -3.889   8.152  -2.202  0.00  0.00    -0.360 N 
ATOM     31  H   UNL     1      -4.916   8.541  -2.260  0.00  0.00    +0.165 HD
ATOM     32  C   UNL     1      -2.684   8.819  -2.216  0.00  0.00    +0.047 A 
ATOM     33  C   UNL     1      -1.671   7.849  -2.111  0.00  0.00    +0.003 A 
ATOM     34  C   UNL     1      -0.331   8.239  -2.106  0.00  0.00    +0.010 A 
ATOM     35  C   UNL     1      -0.010   9.565  -2.193  0.00  0.00    +0.001 A 
ATOM     36  C   UNL     1      -1.006  10.526  -2.292  0.00  0.00    +0.002 A 
ATOM     37  C   UNL     1      -2.335  10.162  -2.304  0.00  0.00    +0.026 A 
ENDBRANCH  27  28
ENDBRANCH  26  27
ENDBRANCH   7  26
TORSDOF 7
