REMARK  Name = ZINC22039255
REMARK  10 active torsions:
REMARK  status: ('A' for Active; 'I' for Inactive)
REMARK    1  A    between atoms: C_1  and  C_2
REMARK    2  A    between atoms: C_5  and  N_9
REMARK    3  A    between atoms: C_10  and  C_12
REMARK    4  A    between atoms: C_12  and  O_13
REMARK    5  A    between atoms: O_13  and  C_14
REMARK    6  A    between atoms: C_14  and  C_16
REMARK    7  A    between atoms: C_16  and  N_17
REMARK    8  A    between atoms: C_22  and  C_29
REMARK    9  A    between atoms: C_25  and  C_27
REMARK   10  A    between atoms: C_25  and  C_28
REMARK                            x       y       z     vdW  Elec       q    Type
REMARK                         _______ _______ _______ _____ _____    ______ ____
ROOT
ATOM      1  C   UNL     1       0.533   2.720  -0.131  0.00  0.00    +0.238 C 
ENDROOT
BRANCH   1   2
ATOM      2  N   UNL     1      -0.316   2.833  -1.320  0.00  0.00    -0.213 N 
ATOM      3  C   UNL     1      -1.207   1.897  -1.706  0.00  0.00    +0.247 C 
ATOM      4  O   UNL     1      -1.448   0.842  -1.159  0.00  0.00    -0.273 OA
ATOM      5  C   UNL     1      -1.843   2.440  -2.965  0.00  0.00    +0.113 C 
ATOM      6  C   UNL     1      -1.572   1.505  -4.139  0.00  0.00    +0.038 C 
ATOM      7  C   UNL     1      -2.191   2.090  -5.412  0.00  0.00    -0.011 C 
ATOM      8  C   UNL     1      -3.697   2.264  -5.212  0.00  0.00    +0.009 C 
ATOM      9  C   UNL     1      -3.953   3.220  -4.045  0.00  0.00    -0.032 C 
ATOM     10  C   UNL     1      -3.341   2.639  -2.768  0.00  0.00    +0.041 C 
ATOM     11  C   UNL     1      -5.460   3.400  -3.853  0.00  0.00    +0.011 C 
ATOM     12  C   UNL     1      -3.312   4.576  -4.347  0.00  0.00    +0.011 C 
ATOM     13  C   UNL     1      -1.937   1.141  -6.585  0.00  0.00    +0.007 C 
ATOM     14  N   UNL     1      -1.175   3.732  -3.172  0.00  0.00    -0.285 N 
ATOM     15  C   UNL     1      -0.299   3.875  -2.160  0.00  0.00    +0.310 C 
ATOM     16  O   UNL     1       0.425   4.841  -2.024  0.00  0.00    -0.252 OA
ATOM     17  H   UNL     1      -1.444   4.357  -4.037  0.00  0.00    +0.151 HD
ENDBRANCH   1   2
BRANCH   1  18
ATOM     18  C   UNL     1      -0.178   3.323   1.053  0.00  0.00    +0.326 C 
ATOM     19  O   UNL     1      -1.280   3.798   0.918  0.00  0.00    -0.249 OA
BRANCH  18  20
ATOM     20  O   UNL     1       0.414   3.332   2.258  0.00  0.00    -0.454 OA
BRANCH  20  21
ATOM     21  C   UNL     1      -0.329   3.929   3.353  0.00  0.00    +0.328 C 
BRANCH  21  23
ATOM     22  N   UNL     1      -0.005   4.343   5.770  0.00  0.00    -0.282 N 
ATOM     23  C   UNL     1       0.487   3.849   4.617  0.00  0.00    +0.255 C 
ATOM     24  O   UNL     1       1.588   3.338   4.597  0.00  0.00    -0.272 OA
ATOM     25  H   UNL     1      -1.034   4.731   5.807  0.00  0.00    +0.155 HD
BRANCH  22  30
ATOM     26  C   UNL     1       3.231   4.431  10.430  0.00  0.00    +0.044 C 
ATOM     27  C   UNL     1       2.371   4.408   9.193  0.00  0.00    -0.049 A 
ATOM     28  C   UNL     1       2.950   4.566   7.947  0.00  0.00    +0.005 A 
ATOM     29  C   UNL     1       2.165   4.546   6.811  0.00  0.00    +0.025 A 
ATOM     30  C   UNL     1       0.793   4.365   6.920  0.00  0.00    +0.048 A 
ATOM     31  C   UNL     1       0.213   4.211   8.172  0.00  0.00    +0.039 A 
ATOM     32  C   UNL     1       1.005   4.228   9.305  0.00  0.00    +0.020 A 
ATOM     33 BR   UNL     1      -1.657   3.973   8.328  0.00  0.00    -0.048 Br
ENDBRANCH  22  30
ENDBRANCH  21  23
ENDBRANCH  20  21
ENDBRANCH  18  20
ENDBRANCH   1  18
TORSDOF 6
