REMARK  Name = ZINC59403332
REMARK  8 active torsions:
REMARK  status: ('A' for Active; 'I' for Inactive)
REMARK    1  A    between atoms: C_1  and  C_2
REMARK    2  A    between atoms: C_7  and  C_8
REMARK    3  A    between atoms: N_10  and  C_11
REMARK    4  A    between atoms: C_11  and  C_12
REMARK    5  A    between atoms: C_15  and  C_18
REMARK    6  A    between atoms: C_18  and  N_19
REMARK    7  A    between atoms: C_21  and  C_28
REMARK    8  A    between atoms: C_24  and  C_27
REMARK                            x       y       z     vdW  Elec       q    Type
REMARK                         _______ _______ _______ _____ _____    ______ ____
ROOT
ATOM      1  C   UNL     1       0.825  -0.913   6.011  0.00  0.00    -0.030 A 
ATOM      2  C   UNL     1      -0.243  -1.475   6.685  0.00  0.00    +0.005 A 
ATOM      3  C   UNL     1      -0.017  -2.375   7.710  0.00  0.00    +0.005 A 
ATOM      4  C   UNL     1       1.277  -2.713   8.059  0.00  0.00    -0.033 A 
ATOM      5  C   UNL     1       2.345  -2.152   7.384  0.00  0.00    +0.005 A 
ATOM      6  C   UNL     1       2.119  -1.256   6.356  0.00  0.00    +0.005 A 
ENDROOT
BRANCH   1   7
ATOM      7  C   UNL     1       0.578   0.068   4.893  0.00  0.00    +0.139 C 
BRANCH   7  10
ATOM      8  C   UNL     1       0.242   0.022   2.481  0.00  0.00    +0.245 C 
ATOM      9  O   UNL     1       0.135   1.232   2.502  0.00  0.00    -0.270 OA
ATOM     10  N   UNL     1       0.465  -0.655   3.624  0.00  0.00    -0.307 N 
ATOM     11  H   UNL     1       0.551  -1.621   3.607  0.00  0.00    +0.149 HD
BRANCH   8  18
ATOM     12  C   UNL     1      -0.514   1.452   0.082  0.00  0.00    +0.044 C 
ATOM     13  C   UNL     1      -0.236  -0.029   0.037  0.00  0.00    -0.037 A 
ATOM     14  C   UNL     1      -0.335  -0.714  -1.156  0.00  0.00    +0.019 A 
ATOM     15  C   UNL     1      -0.080  -2.074  -1.200  0.00  0.00    +0.018 A 
ATOM     16  C   UNL     1       0.276  -2.755  -0.047  0.00  0.00    +0.016 A 
ATOM     17  C   UNL     1       0.378  -2.081   1.151  0.00  0.00    +0.014 A 
ATOM     18  C   UNL     1       0.128  -0.708   1.200  0.00  0.00    +0.040 A 
ATOM     19 BR   UNL     1      -0.219  -3.006  -2.839  0.00  0.00    -0.050 Br
ENDBRANCH   8  18
ENDBRANCH   7  10
ENDBRANCH   1   7
BRANCH   4  20
ATOM     20  C   UNL     1       1.524  -3.694   9.177  0.00  0.00    +0.119 C 
BRANCH  20  21
ATOM     21  N   UNL     1       1.576  -5.056   8.631  0.00  0.00    -0.293 NA
ATOM     22  C   UNL     1       0.267  -5.462   8.101  0.00  0.00    +0.116 C 
ATOM     23  C   UNL     1       0.381  -6.861   7.489  0.00  0.00    +0.130 C 
ATOM     24  O   UNL     1       0.870  -7.770   8.479  0.00  0.00    -0.371 OA
ATOM     25  C   UNL     1       2.144  -7.405   9.016  0.00  0.00    +0.130 C 
ATOM     26  C   UNL     1       2.048  -6.012   9.643  0.00  0.00    +0.116 C 
ATOM     27  C   UNL     1       3.186  -7.391   7.896  0.00  0.00    +0.039 C 
ATOM     28  C   UNL     1      -0.996  -7.322   7.007  0.00  0.00    +0.039 C 
ENDBRANCH  20  21
ENDBRANCH   4  20
TORSDOF 5
