REMARK  Name = ZINC65968419
REMARK  3 active torsions:
REMARK  status: ('A' for Active; 'I' for Inactive)
REMARK    1  A    between atoms: C_1  and  C_2
REMARK    2  A    between atoms: C_2  and  C_3
REMARK    3  A    between atoms: C_2  and  N_9
REMARK                            x       y       z     vdW  Elec       q    Type
REMARK                         _______ _______ _______ _____ _____    ______ ____
ROOT
ATOM      1  N   UNL     1      -0.922  -1.093  -0.342  0.00  0.00    +0.389 N 
ATOM      2  C   UNL     1      -0.168  -2.308  -0.443  0.00  0.00    -0.074 C 
ATOM      3  C   UNL     1      -0.784  -3.407  -1.260  0.00  0.00    -0.027 C 
ATOM      4  C   UNL     1      -0.288  -3.333  -2.703  0.00  0.00    +0.005 C 
ATOM      5  C   UNL     1      -1.062  -2.257  -3.455  0.00  0.00    -0.012 C 
ATOM      6  C   UNL     1      -2.538  -2.659  -3.513  0.00  0.00    +0.007 C 
ATOM      7  C   UNL     1      -3.087  -2.651  -2.086  0.00  0.00    -0.012 C 
ATOM      8  C   UNL     1      -2.276  -3.544  -1.171  0.00  0.00    +0.005 C 
ATOM      9  C   UNL     1      -3.074  -1.210  -1.570  0.00  0.00    -0.012 C 
ATOM     10  C   UNL     1      -1.646  -0.712  -1.521  0.00  0.00    -0.067 C 
ATOM     11  C   UNL     1      -0.900  -0.885  -2.824  0.00  0.00    -0.012 C 
ATOM     12  H   UNL     1      -1.582  -1.195   0.415  0.00  0.00    -0.080 HD
ENDROOT
BRANCH   1  14
ATOM     13  C   UNL     1      -0.798   1.244   0.381  0.00  0.00    -0.004 C 
ATOM     14  C   UNL     1       0.002  -0.004   0.002  0.00  0.00    +0.017 C 
BRANCH  14  15
ATOM     15  C   UNL     1       0.861  -0.423   1.167  0.00  0.00    +0.207 C 
ATOM     16  O   UNL     1       0.424  -1.192   1.997  0.00  0.00    -0.277 OA
ATOM     17  N   UNL     1       2.115   0.056   1.287  0.00  0.00    -0.242 N 
ATOM     18  C   UNL     1       2.883  -0.319   2.329  0.00  0.00    +0.303 C 
ATOM     19  O   UNL     1       2.445  -1.090   3.160  0.00  0.00    -0.253 OA
ATOM     20  N   UNL     1       4.137   0.160   2.449  0.00  0.00    -0.313 N 
ATOM     21  H   UNL     1       2.465   0.671   0.623  0.00  0.00    +0.159 HD
ATOM     22  H   UNL     1       4.487   0.775   1.785  0.00  0.00    +0.146 HD
ATOM     23  H   UNL     1       4.690  -0.110   3.199  0.00  0.00    +0.146 HD
ENDBRANCH  14  15
ENDBRANCH   1  14
TORSDOF 2
