REMARK  Name = ZINC35938809
REMARK  10 active torsions:
REMARK  status: ('A' for Active; 'I' for Inactive)
REMARK    1  A    between atoms: C_1  and  C_2
REMARK    2  A    between atoms: C_2  and  C_3
REMARK    3  A    between atoms: C_3  and  C_4
REMARK    4  A    between atoms: C_4  and  N_5
REMARK    5  A    between atoms: C_13  and  C_15
REMARK    6  A    between atoms: C_16  and  C_18
REMARK    7  A    between atoms: C_18  and  C_19
REMARK    8  A    between atoms: C_19  and  N_20
REMARK    9  A    between atoms: C_28  and  C_30
REMARK   10  A    between atoms: C_33  and  C_36
REMARK                            x       y       z     vdW  Elec       q    Type
REMARK                         _______ _______ _______ _____ _____    ______ ____
ROOT
ATOM      1  C   UNL     1       3.425  -4.706  -8.623  0.00  0.00    +0.077 C 
ENDROOT
BRANCH   1  12
ATOM      2  N   UNL     1       0.788  -2.513  -2.901  0.00  0.00    -0.299 N 
ATOM      3  C   UNL     1       1.147  -3.811  -2.962  0.00  0.00    +0.303 C 
ATOM      4  O   UNL     1       0.820  -4.574  -2.074  0.00  0.00    -0.253 OA
ATOM      5  N   UNL     1       1.869  -4.262  -4.007  0.00  0.00    -0.280 N 
ATOM      6  C   UNL     1       2.383  -3.330  -5.020  0.00  0.00    +0.128 C 
ATOM      7  C   UNL     1       1.896  -3.789  -6.400  0.00  0.00    +0.127 C 
ATOM      8  N   UNL     1       2.184  -5.223  -6.546  0.00  0.00    -0.298 N 
ATOM      9  C   UNL     1       1.671  -6.155  -5.533  0.00  0.00    +0.130 C 
ATOM     10  C   UNL     1       2.162  -5.695  -4.150  0.00  0.00    +0.092 C 
ATOM     11  C   UNL     1       1.434  -6.480  -3.057  0.00  0.00    +0.030 C 
ATOM     12  C   UNL     1       2.906  -5.674  -7.591  0.00  0.00    +0.214 C 
ATOM     13  O   UNL     1       3.137  -6.859  -7.701  0.00  0.00    -0.276 OA
ATOM     14  H   UNL     1       1.110  -1.889  -3.570  0.00  0.00    +0.150 HD
BRANCH   2  15
ATOM     15  C   UNL     1      -0.088  -2.045  -1.825  0.00  0.00    +0.106 C 
BRANCH  15  16
ATOM     16  C   UNL     1      -0.339  -0.544  -1.987  0.00  0.00    +0.018 C 
BRANCH  16  18
ATOM     17  C   UNL     1      -1.505   1.445  -1.025  0.00  0.00    +0.004 C 
ATOM     18  C   UNL     1      -1.254  -0.056  -0.863  0.00  0.00    -0.002 C 
ENDBRANCH  16  18
ENDBRANCH  15  16
ENDBRANCH   2  15
ENDBRANCH   1  12
BRANCH   1  19
ATOM     19  C   UNL     1       4.206  -5.471  -9.693  0.00  0.00    -0.068 C 
BRANCH  19  20
ATOM     20  N   UNL     1       4.713  -4.527 -10.698  0.00  0.00    +0.388 N 
ATOM     21  C   UNL     1       5.665  -3.608 -10.062  0.00  0.00    -0.072 C 
ATOM     22  C   UNL     1       5.936  -2.433 -11.017  0.00  0.00    +0.024 C 
ATOM     23  C   UNL     1       6.207  -3.005 -12.370  0.00  0.00    -0.010 A 
ATOM     24  C   UNL     1       5.968  -4.286 -12.769  0.00  0.00    -0.047 A 
ATOM     25  C   UNL     1       6.306  -4.601 -14.083  0.00  0.00    +0.010 A 
ATOM     26  C   UNL     1       6.839  -3.654 -14.890  0.00  0.00    +0.045 A 
ATOM     27  S   UNL     1       6.892  -2.233 -13.807  0.00  0.00    -0.101 S 
ATOM     28  C   UNL     1       5.356  -5.277 -11.783  0.00  0.00    -0.006 C 
ATOM     29  H   UNL     1       3.941  -3.997 -11.074  0.00  0.00    -0.080 HD
BRANCH  28  30
ATOM     30  C   UNL     1       4.330  -6.125 -12.490  0.00  0.00    -0.057 A 
ATOM     31  C   UNL     1       3.068  -5.619 -12.738  0.00  0.00    +0.002 A 
ATOM     32  C   UNL     1       2.127  -6.396 -13.387  0.00  0.00    +0.003 A 
ATOM     33  C   UNL     1       2.448  -7.680 -13.787  0.00  0.00    -0.050 A 
ATOM     34  C   UNL     1       3.710  -8.186 -13.539  0.00  0.00    +0.003 A 
ATOM     35  C   UNL     1       4.653  -7.407 -12.895  0.00  0.00    +0.002 A 
ATOM     36  C   UNL     1       1.421  -8.528 -14.493  0.00  0.00    +0.044 C 
ENDBRANCH  28  30
ENDBRANCH  19  20
ENDBRANCH   1  19
TORSDOF 7
