REMARK  Name = ZINC59293472
REMARK  16 active torsions:
REMARK  status: ('A' for Active; 'I' for Inactive)
REMARK    1  A    between atoms: C_1  and  C_2
REMARK    2  A    between atoms: C_3  and  C_28
REMARK    3  A    between atoms: N_11  and  C_14
REMARK    4  A    between atoms: C_14  and  C_15
REMARK    5  A    between atoms: C_15  and  O_17
REMARK    6  A    between atoms: O_17  and  C_18
REMARK    7  A    between atoms: C_18  and  C_19
REMARK    8  A    between atoms: C_18  and  C_20
REMARK    9  A    between atoms: C_18  and  C_21
REMARK   10  A    between atoms: C_22  and  C_26
REMARK   11  A    between atoms: C_23  and  N_25
REMARK   12  A    between atoms: C_28  and  O_30
REMARK   13  A    between atoms: O_30  and  C_31
REMARK   14  A    between atoms: C_31  and  C_32
REMARK   15  A    between atoms: C_31  and  C_33
REMARK   16  A    between atoms: C_31  and  C_34
REMARK                            x       y       z     vdW  Elec       q    Type
REMARK                         _______ _______ _______ _____ _____    ______ ____
ROOT
ATOM      1  C   UNL     1       0.481   1.540  -0.823  0.00  0.00    +0.087 C 
ATOM      2  C   UNL     1       0.436   0.044  -0.641  0.00  0.00    +0.116 C 
ATOM      3  C   UNL     1      -0.741  -0.544  -0.380  0.00  0.00    +0.099 C 
ATOM      4  C   UNL     1      -0.834  -2.031  -0.192  0.00  0.00    +0.148 C 
ATOM      5  C   UNL     1      -1.065  -2.367   1.260  0.00  0.00    -0.001 A 
ATOM      6  C   UNL     1      -0.334  -2.145   2.405  0.00  0.00    +0.007 A 
ATOM      7  C   UNL     1      -0.815  -2.580   3.628  0.00  0.00    +0.000 A 
ATOM      8  C   UNL     1      -2.029  -3.238   3.694  0.00  0.00    +0.002 A 
ATOM      9  C   UNL     1      -2.765  -3.462   2.549  0.00  0.00    +0.024 A 
ATOM     10  C   UNL     1      -2.288  -3.026   1.315  0.00  0.00    +0.042 A 
ATOM     11  N   UNL     1      -2.837  -3.131   0.036  0.00  0.00    -0.259 N 
ATOM     12  C   UNL     1      -2.052  -2.574  -0.902  0.00  0.00    +0.241 C 
ATOM     13  O   UNL     1      -2.278  -2.517  -2.093  0.00  0.00    -0.274 OA
ATOM     14  C   UNL     1       0.408  -2.708  -0.697  0.00  0.00    +0.110 C 
ATOM     15  C   UNL     1       1.532  -1.990  -0.945  0.00  0.00    +0.199 C 
ATOM     16  O   UNL     1       1.573  -0.660  -0.750  0.00  0.00    -0.445 OA
ENDROOT
BRANCH  15  17
ATOM     17  N   UNL     1       2.652  -2.634  -1.409  0.00  0.00    -0.328 N 
ATOM     18  H   UNL     1       2.633  -3.593  -1.556  0.00  0.00    +0.145 HD
ATOM     19  H   UNL     1       3.461  -2.131  -1.589  0.00  0.00    +0.145 HD
ENDBRANCH  15  17
BRANCH  14  20
ATOM     20  C   UNL     1       0.405  -4.122  -0.918  0.00  0.00    +0.102 C 
ATOM     21  N   UNL     1       0.403  -5.245  -1.094  0.00  0.00    -0.191 NA
ENDBRANCH  14  20
BRANCH   3  22
ATOM     22  C   UNL     1      -1.911   0.247  -0.280  0.00  0.00    +0.341 C 
ATOM     23  O   UNL     1      -2.994  -0.285  -0.129  0.00  0.00    -0.245 OA
BRANCH  22  24
ATOM     24  O   UNL     1      -1.824   1.592  -0.352  0.00  0.00    -0.456 OA
BRANCH  24  25
ATOM     25  C   UNL     1      -3.038   2.329  -0.195  0.00  0.00    +0.106 C 
ATOM     26  C   UNL     1      -3.678   1.978   1.150  0.00  0.00    +0.055 C 
ATOM     27  C   UNL     1      -2.733   3.828  -0.238  0.00  0.00    +0.055 C 
ATOM     28  C   UNL     1      -4.002   1.972  -1.327  0.00  0.00    +0.055 C 
ENDBRANCH  24  25
ENDBRANCH  22  24
ENDBRANCH   3  22
BRANCH  11  29
ATOM     29  C   UNL     1      -4.122  -3.774  -0.251  0.00  0.00    +0.234 C 
BRANCH  29  30
ATOM     30  C   UNL     1      -5.221  -2.743  -0.207  0.00  0.00    +0.326 C 
ATOM     31  O   UNL     1      -4.949  -1.578  -0.037  0.00  0.00    -0.249 OA
BRANCH  30  32
ATOM     32  O   UNL     1      -6.500  -3.119  -0.356  0.00  0.00    -0.458 OA
BRANCH  32  33
ATOM     33  C   UNL     1      -7.495  -2.100  -0.230  0.00  0.00    +0.105 C 
ATOM     34  C   UNL     1      -7.310  -1.067  -1.343  0.00  0.00    +0.055 C 
ATOM     35  C   UNL     1      -8.885  -2.729  -0.343  0.00  0.00    +0.055 C 
ATOM     36  C   UNL     1      -7.354  -1.415   1.131  0.00  0.00    +0.055 C 
ENDBRANCH  32  33
ENDBRANCH  30  32
ENDBRANCH  29  30
ENDBRANCH  11  29
TORSDOF 9
