REMARK  Name = ZINC02447894
REMARK  10 active torsions:
REMARK  status: ('A' for Active; 'I' for Inactive)
REMARK    1  A    between atoms: C_1  and  C_2
REMARK    2  A    between atoms: C_2  and  O_3
REMARK    3  A    between atoms: O_3  and  C_4
REMARK    4  A    between atoms: C_7  and  N_10
REMARK    5  A    between atoms: C_19  and  S_20
REMARK    6  A    between atoms: S_20  and  C_21
REMARK    7  A    between atoms: C_21  and  C_22
REMARK    8  A    between atoms: N_24  and  C_25
REMARK    9  A    between atoms: C_28  and  C_31
REMARK   10  A    between atoms: C_35  and  N_64
REMARK                            x       y       z     vdW  Elec       q    Type
REMARK                         _______ _______ _______ _____ _____    ______ ____
ROOT
ATOM      1  N   UNL     1       4.932  -7.392  -0.648  0.00  0.00    -0.255 N 
ATOM      2  C   UNL     1       4.636  -8.449  -1.426  0.00  0.00    +0.268 A 
ATOM      3  O   UNL     1       5.486  -8.941  -2.149  0.00  0.00    -0.267 OA
ATOM      4  C   UNL     1       3.312  -8.988  -1.393  0.00  0.00    +0.076 A 
ATOM      5  C   UNL     1       2.773 -10.121  -2.145  0.00  0.00    -0.026 A 
ATOM      6  C   UNL     1       1.477 -10.437  -1.936  0.00  0.00    -0.021 A 
ATOM      7  S   UNL     1       0.905  -9.262  -0.741  0.00  0.00    -0.075 S 
ATOM      8  C   UNL     1       2.411  -8.346  -0.525  0.00  0.00    +0.117 A 
ATOM      9  N   UNL     1       2.767  -7.309   0.222  0.00  0.00    -0.215 NA
ATOM     10  C   UNL     1       3.993  -6.828   0.169  0.00  0.00    +0.178 A 
ATOM     11  C   UNL     1       0.711 -11.546  -2.588  0.00  0.00    -0.036 C 
ATOM     12  C   UNL     1       2.884 -12.265  -3.379  0.00  0.00    -0.074 C 
ATOM     13  C   UNL     1       3.605 -10.938  -3.130  0.00  0.00    +0.018 C 
ATOM     14  C   UNL     1       0.875 -13.219  -4.338  0.00  0.00    -0.096 C 
ATOM     15  N   UNL     1       1.485 -11.997  -3.770  0.00  0.00    +0.381 N 
ATOM     16  H   UNL     1       1.472 -11.256  -4.481  0.00  0.00    -0.082 HD
ENDROOT
BRANCH   1  20
ATOM     17  C   UNL     1       8.790  -5.807  -0.731  0.00  0.00    +0.121 A 
ATOM     18  C   UNL     1       8.461  -6.784   0.198  0.00  0.00    +0.047 A 
ATOM     19  C   UNL     1       7.184  -7.309   0.226  0.00  0.00    +0.030 A 
ATOM     20  C   UNL     1       6.229  -6.859  -0.676  0.00  0.00    +0.052 A 
ATOM     21  C   UNL     1       6.560  -5.885  -1.608  0.00  0.00    +0.030 A 
ATOM     22  C   UNL     1       7.835  -5.356  -1.632  0.00  0.00    +0.047 A 
BRANCH  17  23
ATOM     23  O   UNL     1      10.047  -5.290  -0.758  0.00  0.00    -0.492 OA
BRANCH  23  25
ATOM     24  C   UNL     1      11.771  -3.831  -1.619  0.00  0.00    +0.048 C 
ATOM     25  C   UNL     1      10.315  -4.288  -1.740  0.00  0.00    +0.225 C 
ENDBRANCH  23  25
ENDBRANCH  17  23
ENDBRANCH   1  20
BRANCH  10  26
ATOM     26  S   UNL     1       4.429  -5.444   1.170  0.00  0.00    -0.078 S 
BRANCH  26  27
ATOM     27  C   UNL     1       2.848  -5.146   1.999  0.00  0.00    +0.173 C 
BRANCH  27  28
ATOM     28  C   UNL     1       2.984  -3.972   2.934  0.00  0.00    +0.227 C 
ATOM     29  O   UNL     1       4.046  -3.394   3.030  0.00  0.00    -0.275 OA
ATOM     30  N   UNL     1       1.927  -3.565   3.663  0.00  0.00    -0.285 N 
ATOM     31  H   UNL     1       1.099  -4.071   3.643  0.00  0.00    +0.155 HD
BRANCH  30  32
ATOM     32  C   UNL     1       2.022  -2.411   4.450  0.00  0.00    +0.033 A 
ATOM     33  C   UNL     1       2.803  -1.343   4.028  0.00  0.00    +0.023 A 
ATOM     34  C   UNL     1       2.894  -0.206   4.806  0.00  0.00    +0.005 A 
ATOM     35  C   UNL     1       2.209  -0.131   6.005  0.00  0.00    -0.050 A 
ATOM     36  C   UNL     1       1.431  -1.192   6.428  0.00  0.00    +0.005 A 
ATOM     37  C   UNL     1       1.335  -2.332   5.654  0.00  0.00    +0.023 A 
ATOM     38  C   UNL     1       2.311   1.112   6.852  0.00  0.00    +0.044 C 
ENDBRANCH  30  32
ENDBRANCH  27  28
ENDBRANCH  26  27
ENDBRANCH  10  26
TORSDOF 7
