REMARK  Name = ZINC36572824
REMARK  19 active torsions:
REMARK  status: ('A' for Active; 'I' for Inactive)
REMARK    1  A    between atoms: C_1  and  C_2
REMARK    2  A    between atoms: C_2  and  C_3
REMARK    3  A    between atoms: C_3  and  N_4
REMARK    4  A    between atoms: N_4  and  C_5
REMARK    5  A    between atoms: C_5  and  C_7
REMARK    6  A    between atoms: C_5  and  C_16
REMARK    7  A    between atoms: C_8  and  O_15
REMARK    8  A    between atoms: C_10  and  O_14
REMARK    9  A    between atoms: C_12  and  O_13
REMARK   10  A    between atoms: N_18  and  C_19
REMARK   11  A    between atoms: C_19  and  C_20
REMARK   12  A    between atoms: C_19  and  C_21
REMARK   13  A    between atoms: C_19  and  C_22
REMARK   14  A    between atoms: C_22  and  C_23
REMARK   15  A    between atoms: C_23  and  C_24
REMARK   16  A    between atoms: C_23  and  C_25
REMARK   17  A    between atoms: C_23  and  C_26
REMARK   18  A    between atoms: C_27  and  C_29
REMARK   19  A    between atoms: C_29  and  C_30
REMARK                            x       y       z     vdW  Elec       q    Type
REMARK                         _______ _______ _______ _____ _____    ______ ____
ROOT
ATOM      1  C   UNL     1      -1.850  -1.764   1.704  0.00  0.00    +0.199 C 
ENDROOT
BRANCH   1   2
ATOM      2  C   UNL     1      -0.834  -1.060   2.567  0.00  0.00    +0.065 A 
ATOM      3  C   UNL     1      -0.374  -1.663   3.728  0.00  0.00    +0.129 A 
ATOM      4  C   UNL     1       0.561  -1.016   4.521  0.00  0.00    +0.091 A 
ATOM      5  C   UNL     1       1.037   0.234   4.154  0.00  0.00    +0.124 A 
ATOM      6  C   UNL     1       0.577   0.836   2.992  0.00  0.00    +0.091 A 
ATOM      7  C   UNL     1      -0.355   0.187   2.196  0.00  0.00    +0.129 A 
BRANCH   7   8
ATOM      8  O   UNL     1      -0.802   0.775   1.056  0.00  0.00    -0.506 OA
ATOM      9  H   UNL     1      -1.443   1.484   1.204  0.00  0.00    +0.292 HD
ENDBRANCH   7   8
BRANCH   5  10
ATOM     10  O   UNL     1       1.952   0.869   4.932  0.00  0.00    -0.507 OA
ATOM     11  H   UNL     1       2.870   0.670   4.701  0.00  0.00    +0.292 HD
ENDBRANCH   5  10
BRANCH   3  12
ATOM     12  O   UNL     1      -0.839  -2.888   4.088  0.00  0.00    -0.506 OA
ATOM     13  H   UNL     1      -0.280  -3.622   3.800  0.00  0.00    +0.292 HD
ENDBRANCH   3  12
ENDBRANCH   1   2
BRANCH   1  14
ATOM     14  C   UNL     1      -3.209  -1.151   1.928  0.00  0.00    +0.239 C 
ATOM     15  O   UNL     1      -4.006  -1.096   1.016  0.00  0.00    -0.273 OA
ATOM     16  N   UNL     1      -3.538  -0.665   3.141  0.00  0.00    -0.308 N 
ATOM     17  H   UNL     1      -2.863  -0.594   3.834  0.00  0.00    +0.149 HD
BRANCH  16  18
ATOM     18  C   UNL     1      -4.914  -0.244   3.413  0.00  0.00    +0.030 C 
ATOM     19  C   UNL     1      -5.240   1.000   2.585  0.00  0.00    +0.031 C 
ATOM     20  C   UNL     1      -5.876  -1.373   3.037  0.00  0.00    +0.031 C 
BRANCH  18  21
ATOM     21  C   UNL     1      -5.064   0.079   4.901  0.00  0.00    +0.031 C 
BRANCH  21  22
ATOM     22  C   UNL     1      -4.856  -1.194   5.723  0.00  0.00    -0.036 C 
ATOM     23  C   UNL     1      -3.595  -1.913   5.239  0.00  0.00    +0.010 C 
ATOM     24  C   UNL     1      -4.697  -0.827   7.200  0.00  0.00    +0.010 C 
ATOM     25  C   UNL     1      -6.066  -2.114   5.554  0.00  0.00    +0.010 C 
ENDBRANCH  21  22
ENDBRANCH  18  21
ENDBRANCH  16  18
ENDBRANCH   1  14
BRANCH   1  26
ATOM     26  N   UNL     1      -1.476  -1.622   0.295  0.00  0.00    -0.285 N 
ATOM     27  C   UNL     1      -1.883  -0.545  -0.405  0.00  0.00    +0.221 C 
ATOM     28  O   UNL     1      -2.589   0.289   0.121  0.00  0.00    -0.275 OA
BRANCH  26  29
ATOM     29  C   UNL     1      -0.660  -2.652  -0.353  0.00  0.00    +0.108 C 
BRANCH  29  31
ATOM     30  C   UNL     1      -0.720  -4.658  -1.841  0.00  0.00    +0.005 C 
ATOM     31  C   UNL     1      -1.573  -3.655  -1.061  0.00  0.00    +0.016 C 
ENDBRANCH  29  31
ENDBRANCH  26  29
BRANCH  27  32
ATOM     32  C   UNL     1      -1.462  -0.377  -1.842  0.00  0.00    +0.131 C 
BRANCH  32  33
ATOM     33  C   UNL     1      -2.046   0.899  -2.392  0.00  0.00    -0.035 A 
ATOM     34  C   UNL     1      -3.291   0.884  -2.994  0.00  0.00    +0.008 A 
ATOM     35  C   UNL     1      -3.831   2.052  -3.498  0.00  0.00    +0.050 A 
ATOM     36  C   UNL     1      -3.126   3.241  -3.402  0.00  0.00    +0.166 A 
ATOM     37  C   UNL     1      -1.872   3.255  -2.796  0.00  0.00    +0.166 A 
ATOM     38  C   UNL     1      -1.339   2.082  -2.287  0.00  0.00    +0.053 A 
ATOM     39  O   UNL     1      -1.388   4.531  -2.825  0.00  0.00    -0.453 OA
ATOM     40  C   UNL     1      -2.175   5.218  -3.817  0.00  0.00    +0.466 C 
ATOM     41  O   UNL     1      -3.427   4.507  -3.812  0.00  0.00    -0.453 OA
ENDBRANCH  32  33
ENDBRANCH  27  32
ENDBRANCH   1  26
TORSDOF 13
