REMARK  Name = ZINC35374748
REMARK  5 active torsions:
REMARK  status: ('A' for Active; 'I' for Inactive)
REMARK    1  A    between atoms: C_1  and  O_2
REMARK    2  A    between atoms: O_2  and  C_3
REMARK    3  A    between atoms: C_10  and  C_26
REMARK    4  A    between atoms: C_12  and  C_20
REMARK    5  A    between atoms: C_26  and  C_28
REMARK                            x       y       z     vdW  Elec       q    Type
REMARK                         _______ _______ _______ _____ _____    ______ ____
ROOT
ATOM      1  C   UNL     1       0.546  -0.603  -0.753  0.00  0.00    +0.121 A 
ATOM      2  C   UNL     1       0.827   0.288  -1.779  0.00  0.00    +0.047 A 
ATOM      3  C   UNL     1       1.206  -0.178  -3.020  0.00  0.00    +0.027 A 
ATOM      4  C   UNL     1       1.311  -1.548  -3.254  0.00  0.00    +0.039 A 
ATOM      5  C   UNL     1       1.028  -2.434  -2.219  0.00  0.00    +0.007 A 
ATOM      6  C   UNL     1       0.654  -1.968  -0.978  0.00  0.00    +0.053 A 
ATOM      7  C   UNL     1       1.233  -3.808  -2.788  0.00  0.00    +0.138 C 
ATOM      8  C   UNL     1      -0.057  -4.644  -2.711  0.00  0.00    +0.103 C 
ATOM      9  C   UNL     1       0.039  -5.235  -1.277  0.00  0.00    +0.050 C 
ATOM     10  C   UNL     1       1.557  -5.436  -1.083  0.00  0.00    +0.077 C 
ATOM     11  N   UNL     1       2.248  -4.566  -2.040  0.00  0.00    -0.271 NA
ATOM     12  C   UNL     1       3.167  -5.241  -2.989  0.00  0.00    +0.155 C 
ATOM     13  S   UNL     1       3.515  -6.823  -2.102  0.00  0.00    -0.144 S 
ATOM     14  C   UNL     1       1.891  -6.936  -1.250  0.00  0.00    +0.090 C 
ATOM     15  C   UNL     1       1.649  -3.584  -4.216  0.00  0.00    +0.243 C 
ATOM     16  O   UNL     1       1.912  -4.439  -5.036  0.00  0.00    -0.273 OA
ATOM     17  N   UNL     1       1.671  -2.251  -4.408  0.00  0.00    -0.283 N 
ATOM     18  H   UNL     1       1.909  -1.829  -5.248  0.00  0.00    +0.155 HD
ENDROOT
BRANCH   9  19
ATOM     19  C   UNL     1      -0.690  -6.551  -1.193  0.00  0.00    -0.042 A 
ATOM     20  C   UNL     1      -0.510  -7.505  -2.177  0.00  0.00    +0.004 A 
ATOM     21  C   UNL     1      -1.179  -8.713  -2.100  0.00  0.00    +0.000 A 
ATOM     22  C   UNL     1      -2.029  -8.966  -1.039  0.00  0.00    +0.000 A 
ATOM     23  C   UNL     1      -2.208  -8.012  -0.055  0.00  0.00    +0.000 A 
ATOM     24  C   UNL     1      -1.536  -6.806  -0.129  0.00  0.00    +0.004 A 
ENDBRANCH   9  19
BRANCH   1  26
ATOM     25  C   UNL     1       0.082   1.278   0.626  0.00  0.00    +0.277 C 
ATOM     26  O   UNL     1       0.171  -0.140   0.469  0.00  0.00    -0.495 OA
ENDBRANCH   1  26
BRANCH   8  27
ATOM     27  C   UNL     1      -0.055  -5.738  -3.748  0.00  0.00    +0.170 C 
ATOM     28  O   UNL     1       0.993  -6.234  -4.104  0.00  0.00    -0.292 OA
BRANCH  27  29
ATOM     29  C   UNL     1      -1.322  -6.203  -4.327  0.00  0.00    +0.021 A 
ATOM     30  C   UNL     1      -2.533  -5.628  -3.921  0.00  0.00    +0.015 A 
ATOM     31  C   UNL     1      -3.718  -6.066  -4.466  0.00  0.00    +0.050 A 
ATOM     32  C   UNL     1      -3.720  -7.078  -5.418  0.00  0.00    +0.166 A 
ATOM     33  C   UNL     1      -2.516  -7.657  -5.827  0.00  0.00    +0.167 A 
ATOM     34  C   UNL     1      -1.323  -7.219  -5.290  0.00  0.00    +0.061 A 
ATOM     35  O   UNL     1      -2.790  -8.616  -6.760  0.00  0.00    -0.453 OA
ATOM     36  C   UNL     1      -4.194  -8.901  -6.617  0.00  0.00    +0.466 C 
ATOM     37  O   UNL     1      -4.741  -7.676  -6.095  0.00  0.00    -0.453 OA
ENDBRANCH  27  29
ENDBRANCH   8  27
TORSDOF 4
