REMARK  Name = ZINC01105137
REMARK  5 active torsions:
REMARK  status: ('A' for Active; 'I' for Inactive)
REMARK    1  A    between atoms: C_1  and  C_2
REMARK    2  A    between atoms: C_5  and  O_8
REMARK    3  A    between atoms: O_8  and  C_9
REMARK    4  A    between atoms: C_9  and  C_10
REMARK    5  A    between atoms: C_16  and  C_19
REMARK                            x       y       z     vdW  Elec       q    Type
REMARK                         _______ _______ _______ _____ _____    ______ ____
ROOT
ATOM      1  C   UNL     1       2.343  -4.165  -0.042  0.00  0.00    +0.193 A 
ATOM      2  N   UNL     1       2.244  -4.931  -1.098  0.00  0.00    -0.128 NA
ATOM      3  N   UNL     1       2.107  -6.165  -0.744  0.00  0.00    -0.121 NA
ATOM      4  C   UNL     1       2.115  -6.248   0.550  0.00  0.00    +0.213 A 
ATOM      5  N   UNL     1       2.266  -4.971   1.047  0.00  0.00    -0.188 N 
ATOM      6  N   UNL     1       2.309  -4.688   2.410  0.00  0.00    -0.166 NA
ATOM      7  C   UNL     1       2.587  -5.581   3.293  0.00  0.00    +0.079 C 
ATOM      8  C   UNL     1       2.940  -7.010   3.014  0.00  0.00    +0.135 C 
ATOM      9  S   UNL     1       1.980  -7.649   1.610  0.00  0.00    -0.078 S 
ENDROOT
BRANCH   7  10
ATOM     10  C   UNL     1       2.555  -5.161   4.706  0.00  0.00    -0.001 A 
ATOM     11  C   UNL     1       2.841  -6.080   5.719  0.00  0.00    +0.011 A 
ATOM     12  C   UNL     1       2.816  -5.679   7.038  0.00  0.00    +0.016 A 
ATOM     13  C   UNL     1       2.496  -4.371   7.361  0.00  0.00    +0.018 A 
ATOM     14  C   UNL     1       2.205  -3.456   6.362  0.00  0.00    +0.016 A 
ATOM     15  C   UNL     1       2.233  -3.843   5.039  0.00  0.00    +0.011 A 
ATOM     16 BR   UNL     1       2.456  -3.831   9.172  0.00  0.00    -0.050 Br
ENDBRANCH   7  10
BRANCH   1  17
ATOM     17  C   UNL     1       2.518  -2.668  -0.036  0.00  0.00    +0.307 C 
BRANCH  17  18
ATOM     18  O   UNL     1       1.234  -2.039  -0.020  0.00  0.00    -0.484 OA
BRANCH  18  23
ATOM     19  C   UNL     1       1.147   3.593   0.011  0.00  0.00    +0.044 C 
ATOM     20  C   UNL     1       1.171   2.086   0.002  0.00  0.00    -0.050 A 
ATOM     21  C   UNL     1      -0.017   1.377   0.010  0.00  0.00    +0.007 A 
ATOM     22  C   UNL     1       0.002  -0.004   0.002  0.00  0.00    +0.046 A 
ATOM     23  C   UNL     1       1.213  -0.680  -0.013  0.00  0.00    +0.121 A 
ATOM     24  C   UNL     1       2.403   0.033  -0.021  0.00  0.00    +0.046 A 
ATOM     25  C   UNL     1       2.379   1.415  -0.013  0.00  0.00    +0.007 A 
ENDBRANCH  18  23
ENDBRANCH  17  18
ENDBRANCH   1  17
TORSDOF 4
