REMARK  Name = ZINC47534872
REMARK  6 active torsions:
REMARK  status: ('A' for Active; 'I' for Inactive)
REMARK    1  A    between atoms: C_1  and  C_2
REMARK    2  A    between atoms: C_6  and  C_8
REMARK    3  A    between atoms: C_9  and  C_10
REMARK    4  A    between atoms: N_12  and  C_13
REMARK    5  A    between atoms: C_13  and  C_15
REMARK    6  A    between atoms: C_13  and  C_16
REMARK                            x       y       z     vdW  Elec       q    Type
REMARK                         _______ _______ _______ _____ _____    ______ ____
ROOT
ATOM      1  C   UNL     1       0.120  -7.030   4.946  0.00  0.00    +0.100 C 
ATOM      2  C   UNL     1      -1.312  -7.200   5.456  0.00  0.00    +0.033 C 
ENDROOT
BRANCH   1   3
ATOM      3  C   UNL     1       0.738  -8.386   4.721  0.00  0.00    -0.025 A 
ATOM      4  C   UNL     1       0.451  -9.091   3.564  0.00  0.00    +0.007 A 
ATOM      5  C   UNL     1       1.011 -10.334   3.348  0.00  0.00    +0.028 A 
ATOM      6  C   UNL     1       1.866 -10.879   4.295  0.00  0.00    +0.067 A 
ATOM      7  C   UNL     1       2.155 -10.169   5.461  0.00  0.00    +0.067 A 
ATOM      8  C   UNL     1       1.592  -8.919   5.666  0.00  0.00    +0.033 A 
ATOM      9  N   UNL     1       3.028 -10.958   6.207  0.00  0.00    -0.306 N 
ATOM     10  H   UNL     1       3.405 -10.727   7.070  0.00  0.00    +0.170 HD
ATOM     11  C   UNL     1       3.259 -12.096   5.525  0.00  0.00    +0.325 A 
ATOM     12  O   UNL     1       3.979 -13.003   5.899  0.00  0.00    -0.247 OA
ATOM     13  N   UNL     1       2.571 -12.078   4.367  0.00  0.00    -0.306 N 
ATOM     14  H   UNL     1       2.568 -12.780   3.698  0.00  0.00    +0.170 HD
ENDBRANCH   1   3
BRANCH   1  17
ATOM     15  C   UNL     1       0.086  -4.938   3.698  0.00  0.00    +0.237 C 
ATOM     16  O   UNL     1       0.084  -4.340   4.758  0.00  0.00    -0.271 OA
ATOM     17  N   UNL     1       0.104  -6.285   3.684  0.00  0.00    -0.305 N 
ATOM     18  H   UNL     1       0.106  -6.762   2.840  0.00  0.00    +0.150 HD
BRANCH  15  20
ATOM     19  C   UNL     1       0.052  -2.845   2.451  0.00  0.00    +0.013 C 
ATOM     20  C   UNL     1       0.070  -4.193   2.437  0.00  0.00    +0.068 C 
BRANCH  19  26
ATOM     21  C   UNL     1      -0.018   1.503   0.010  0.00  0.00    +0.044 C 
ATOM     22  C   UNL     1       0.002  -0.004   0.002  0.00  0.00    -0.050 A 
ATOM     23  C   UNL     1       0.006  -0.688  -1.202  0.00  0.00    +0.003 A 
ATOM     24  C   UNL     1       0.025  -2.071  -1.220  0.00  0.00    +0.001 A 
ATOM     25  C   UNL     1       0.040  -2.780  -0.036  0.00  0.00    +0.008 A 
ATOM     26  C   UNL     1       0.036  -2.096   1.183  0.00  0.00    -0.025 A 
ATOM     27  C   UNL     1       0.023  -0.698   1.193  0.00  0.00    +0.011 A 
ENDBRANCH  19  26
ENDBRANCH  15  20
ENDBRANCH   1  17
TORSDOF 4
