REMARK  Name = ZINC38652700
REMARK  9 active torsions:
REMARK  status: ('A' for Active; 'I' for Inactive)
REMARK    1  A    between atoms: C_1  and  C_2
REMARK    2  A    between atoms: C_6  and  O_8
REMARK    3  A    between atoms: O_8  and  C_9
REMARK    4  A    between atoms: C_9  and  C_10
REMARK    5  A    between atoms: C_10  and  O_12
REMARK    6  A    between atoms: O_12  and  C_13
REMARK    7  A    between atoms: C_20  and  N_33
REMARK    8  A    between atoms: C_21  and  C_31
REMARK    9  A    between atoms: C_22  and  C_24
REMARK                            x       y       z     vdW  Elec       q    Type
REMARK                         _______ _______ _______ _____ _____    ______ ____
ROOT
ATOM      1  C   UNL     1       0.148  -6.694   5.060  0.00  0.00    +0.135 A 
ATOM      2  C   UNL     1       0.100  -5.903   6.199  0.00  0.00    +0.047 A 
ATOM      3  C   UNL     1       0.148  -6.488   7.449  0.00  0.00    +0.012 A 
ATOM      4  C   UNL     1       0.244  -7.863   7.571  0.00  0.00    +0.008 A 
ATOM      5  C   UNL     1       0.293  -8.658   6.437  0.00  0.00    +0.138 A 
ATOM      6  C   UNL     1       0.239  -8.071   5.179  0.00  0.00    +0.093 A 
ATOM      7  O   UNL     1       0.388 -10.007   6.537  0.00  0.00    -0.441 OA
ATOM      8  C   UNL     1       0.054 -10.619   7.686  0.00  0.00    +0.199 C 
ATOM      9  C   UNL     1      -0.008  -9.951   8.862  0.00  0.00    +0.098 C 
ATOM     10  C   UNL     1       0.296  -8.482   8.943  0.00  0.00    +0.098 C 
ENDROOT
BRANCH  10  11
ATOM     11  C   UNL     1       1.673  -8.288   9.526  0.00  0.00    -0.034 A 
ATOM     12  C   UNL     1       2.777  -8.806   8.876  0.00  0.00    +0.007 A 
ATOM     13  C   UNL     1       4.040  -8.629   9.410  0.00  0.00    +0.038 A 
ATOM     14  C   UNL     1       4.198  -7.932  10.596  0.00  0.00    +0.123 A 
ATOM     15  C   UNL     1       3.090  -7.413  11.246  0.00  0.00    +0.038 A 
ATOM     16  C   UNL     1       1.829  -7.588  10.708  0.00  0.00    +0.007 A 
ATOM     17  F   UNL     1       5.431  -7.758  11.119  0.00  0.00    -0.205 F 
ENDBRANCH  10  11
BRANCH   8  18
ATOM     18  N   UNL     1      -0.233 -11.961   7.666  0.00  0.00    -0.328 N 
ATOM     19  H   UNL     1      -0.193 -12.454   6.831  0.00  0.00    +0.145 HD
ATOM     20  H   UNL     1      -0.475 -12.418   8.487  0.00  0.00    +0.145 HD
ENDBRANCH   8  18
BRANCH   9  21
ATOM     21  C   UNL     1      -0.370 -10.659  10.052  0.00  0.00    +0.101 C 
ATOM     22  N   UNL     1      -0.658 -11.221  10.997  0.00  0.00    -0.191 NA
ENDBRANCH   9  21
BRANCH   1  23
ATOM     23  O   UNL     1       0.101  -6.120   3.829  0.00  0.00    -0.423 OA
BRANCH  23  24
ATOM     24  C   UNL     1       1.217  -5.536   3.363  0.00  0.00    +0.350 C 
ATOM     25  O   UNL     1       2.195  -5.453   4.067  0.00  0.00    -0.247 OA
BRANCH  24  26
ATOM     26  C   UNL     1       1.249  -4.983   1.961  0.00  0.00    +0.349 C 
BRANCH  26  27
ATOM     27  O   UNL     1       2.535  -4.417   1.702  0.00  0.00    -0.481 OA
BRANCH  27  33
ATOM     28  C   UNL     1       5.486  -2.134  -1.445  0.00  0.00    +0.044 C 
ATOM     29  C   UNL     1       4.156  -2.750  -1.097  0.00  0.00    -0.047 A 
ATOM     30  C   UNL     1       3.134  -2.760  -2.029  0.00  0.00    +0.003 A 
ATOM     31  C   UNL     1       1.913  -3.325  -1.712  0.00  0.00    +0.004 A 
ATOM     32  C   UNL     1       1.709  -3.881  -0.464  0.00  0.00    +0.045 A 
ATOM     33  C   UNL     1       2.732  -3.872   0.473  0.00  0.00    +0.122 A 
ATOM     34  C   UNL     1       3.960  -3.309   0.151  0.00  0.00    +0.049 A 
ENDBRANCH  27  33
ENDBRANCH  26  27
ENDBRANCH  24  26
ENDBRANCH  23  24
ENDBRANCH   1  23
TORSDOF 8
