REMARK  Name = ZINC09968557
REMARK  9 active torsions:
REMARK  status: ('A' for Active; 'I' for Inactive)
REMARK    1  A    between atoms: C_1  and  C_2
REMARK    2  A    between atoms: C_2  and  C_3
REMARK    3  A    between atoms: C_3  and  C_4
REMARK    4  A    between atoms: C_11  and  N_33
REMARK    5  A    between atoms: C_12  and  C_31
REMARK    6  A    between atoms: C_13  and  C_15
REMARK    7  A    between atoms: C_18  and  O_21
REMARK    8  A    between atoms: O_21  and  C_22
REMARK    9  A    between atoms: C_22  and  C_24
REMARK                            x       y       z     vdW  Elec       q    Type
REMARK                         _______ _______ _______ _____ _____    ______ ____
ROOT
ATOM      1  C   UNL     1      -1.509  -2.300   0.017  0.00  0.00    +0.071 A 
ATOM      2  C   UNL     1      -1.464  -3.020  -1.169  0.00  0.00    +0.049 A 
ATOM      3  C   UNL     1      -1.442  -4.351  -0.856  0.00  0.00    +0.222 A 
ATOM      4  N   UNL     1      -1.474  -4.453   0.483  0.00  0.00    -0.246 N 
ATOM      5  H   UNL     1      -1.469  -5.278   0.993  0.00  0.00    +0.192 HD
ATOM      6  N   UNL     1      -1.510  -3.154   1.013  0.00  0.00    -0.176 NA
ATOM      7  O   UNL     1      -1.394  -5.324  -1.799  0.00  0.00    -0.423 OA
ATOM      8  C   UNL     1      -1.092  -4.957  -3.061  0.00  0.00    +0.200 C 
ATOM      9  C   UNL     1      -1.092  -3.676  -3.492  0.00  0.00    +0.098 C 
ATOM     10  C   UNL     1      -1.441  -2.518  -2.589  0.00  0.00    +0.101 C 
ENDROOT
BRANCH  10  11
ATOM     11  C   UNL     1      -2.797  -1.976  -2.959  0.00  0.00    -0.034 A 
ATOM     12  C   UNL     1      -3.906  -2.800  -2.912  0.00  0.00    +0.008 A 
ATOM     13  C   UNL     1      -5.151  -2.305  -3.250  0.00  0.00    +0.046 A 
ATOM     14  C   UNL     1      -5.287  -0.979  -3.638  0.00  0.00    +0.132 A 
ATOM     15  C   UNL     1      -4.173  -0.155  -3.684  0.00  0.00    +0.046 A 
ATOM     16  C   UNL     1      -2.931  -0.653  -3.340  0.00  0.00    +0.008 A 
BRANCH  14  17
ATOM     17  O   UNL     1      -6.511  -0.490  -3.971  0.00  0.00    -0.422 OA
BRANCH  17  18
ATOM     18  C   UNL     1      -7.424  -0.347  -2.991  0.00  0.00    +0.346 C 
ATOM     19  O   UNL     1      -7.111  -0.552  -1.835  0.00  0.00    -0.244 OA
BRANCH  18  20
ATOM     20  C   UNL     1      -8.804   0.059  -3.321  0.00  0.00    +0.078 A 
ATOM     21  C   UNL     1      -9.169   0.290  -4.649  0.00  0.00    +0.016 A 
ATOM     22  C   UNL     1     -10.460   0.669  -4.951  0.00  0.00    +0.001 A 
ATOM     23  C   UNL     1     -11.395   0.820  -3.941  0.00  0.00    +0.001 A 
ATOM     24  C   UNL     1     -11.042   0.594  -2.623  0.00  0.00    +0.021 A 
ATOM     25  C   UNL     1      -9.754   0.208  -2.307  0.00  0.00    +0.055 A 
ATOM     26 CL   UNL     1      -9.314  -0.083  -0.652  0.00  0.00    -0.083 Cl
ENDBRANCH  18  20
ENDBRANCH  17  18
ENDBRANCH  14  17
ENDBRANCH  10  11
BRANCH   8  27
ATOM     27  N   UNL     1      -0.765  -5.941  -3.960  0.00  0.00    -0.328 N 
ATOM     28  H   UNL     1      -0.756  -6.870  -3.680  0.00  0.00    +0.145 HD
ATOM     29  H   UNL     1      -0.542  -5.708  -4.875  0.00  0.00    +0.145 HD
ENDBRANCH   8  27
BRANCH   9  30
ATOM     30  C   UNL     1      -0.748  -3.407  -4.856  0.00  0.00    +0.101 C 
ATOM     31  N   UNL     1      -0.476  -3.194  -5.938  0.00  0.00    -0.191 NA
ENDBRANCH   9  30
BRANCH   1  32
ATOM     32  C   UNL     1      -1.545  -0.798   0.140  0.00  0.00    +0.057 C 
BRANCH  32  34
ATOM     33  C   UNL     1      -0.151   1.267   0.334  0.00  0.00    +0.004 C 
ATOM     34  C   UNL     1      -0.115  -0.258   0.210  0.00  0.00    +0.003 C 
ENDBRANCH  32  34
ENDBRANCH   1  32
TORSDOF 8
