REMARK  Name = ZINC36548575
REMARK  10 active torsions:
REMARK  status: ('A' for Active; 'I' for Inactive)
REMARK    1  A    between atoms: C_1  and  C_2
REMARK    2  A    between atoms: C_2  and  C_3
REMARK    3  A    between atoms: C_2  and  C_4
REMARK    4  A    between atoms: C_2  and  N_5
REMARK    5  A    between atoms: C_6  and  C_8
REMARK    6  A    between atoms: C_8  and  C_10
REMARK    7  A    between atoms: C_8  and  N_16
REMARK    8  A    between atoms: N_16  and  C_17
REMARK    9  A    between atoms: C_24  and  C_26
REMARK   10  A    between atoms: C_30  and  N_32
REMARK                            x       y       z     vdW  Elec       q    Type
REMARK                         _______ _______ _______ _____ _____    ______ ____
ROOT
ATOM      1  N   UNL     1       4.020  -0.301  -2.431  0.00  0.00    -0.254 N 
ATOM      2  C   UNL     1       4.708   0.015  -3.546  0.00  0.00    +0.252 C 
ATOM      3  O   UNL     1       4.113   0.263  -4.578  0.00  0.00    -0.270 OA
ENDROOT
BRANCH   1   4
ATOM      4  C   UNL     1       4.693  -0.454  -1.214  0.00  0.00    +0.056 A 
ATOM      5  C   UNL     1       4.931  -1.724  -0.706  0.00  0.00    +0.025 A 
ATOM      6  C   UNL     1       5.596  -1.872   0.496  0.00  0.00    +0.002 A 
ATOM      7  C   UNL     1       6.024  -0.757   1.193  0.00  0.00    +0.002 A 
ATOM      8  C   UNL     1       5.789   0.509   0.690  0.00  0.00    +0.022 A 
ATOM      9  C   UNL     1       5.130   0.664  -0.515  0.00  0.00    +0.062 A 
ATOM     10 CL   UNL     1       4.841   2.254  -1.149  0.00  0.00    -0.082 Cl
ENDBRANCH   1   4
BRANCH   2  11
ATOM     11  C   UNL     1       6.185   0.062  -3.516  0.00  0.00    +0.039 A 
ATOM     12  C   UNL     1       6.901  -0.889  -2.787  0.00  0.00    +0.013 A 
ATOM     13  C   UNL     1       8.279  -0.840  -2.762  0.00  0.00    +0.003 A 
ATOM     14  C   UNL     1       8.952   0.150  -3.457  0.00  0.00    +0.033 A 
ATOM     15  C   UNL     1       8.248   1.096  -4.181  0.00  0.00    +0.127 A 
ATOM     16  C   UNL     1       6.869   1.054  -4.220  0.00  0.00    +0.045 A 
BRANCH  15  17
ATOM     17  N   UNL     1       8.976   2.151  -4.921  0.00  0.00    +0.056 N 
ATOM     18  O   UNL     1      10.184   2.186  -4.892  0.00  0.00    -0.126 OA
ATOM     19  O   UNL     1       8.362   2.979  -5.554  0.00  0.00    -0.126 OA
ENDBRANCH  15  17
ENDBRANCH   2  11
BRANCH   1  20
ATOM     20  C   UNL     1       2.568  -0.485  -2.494  0.00  0.00    +0.170 C 
BRANCH  20  21
ATOM     21  C   UNL     1       2.224  -1.941  -2.175  0.00  0.00    +0.019 C 
ATOM     22  C   UNL     1       2.886  -2.859  -3.205  0.00  0.00    +0.006 C 
ATOM     23  C   UNL     1       2.542  -4.315  -2.887  0.00  0.00    +0.000 C 
ATOM     24  C   UNL     1       1.025  -4.503  -2.937  0.00  0.00    +0.000 C 
ATOM     25  C   UNL     1       0.363  -3.586  -1.907  0.00  0.00    +0.000 C 
ATOM     26  C   UNL     1       0.707  -2.130  -2.225  0.00  0.00    +0.006 C 
ENDBRANCH  20  21
BRANCH  20  28
ATOM     27  N   UNL     1       0.691   0.945  -1.752  0.00  0.00    -0.309 N 
ATOM     28  C   UNL     1       1.903   0.420  -1.488  0.00  0.00    +0.235 C 
ATOM     29  O   UNL     1       2.460   0.675  -0.441  0.00  0.00    -0.274 OA
ATOM     30  H   UNL     1       0.278   0.801  -2.618  0.00  0.00    +0.149 HD
BRANCH  27  32
ATOM     31  C   UNL     1       0.850   2.946  -0.354  0.00  0.00    +0.031 C 
ATOM     32  C   UNL     1      -0.004   1.734  -0.731  0.00  0.00    +0.026 C 
ATOM     33  C   UNL     1      -0.238   0.869   0.509  0.00  0.00    +0.031 C 
ATOM     34  C   UNL     1      -1.350   2.209  -1.282  0.00  0.00    +0.031 C 
ENDBRANCH  27  32
ENDBRANCH  20  28
ENDBRANCH   1  20
TORSDOF 7
