REMARK  Name = ZINC39689493
REMARK  7 active torsions:
REMARK  status: ('A' for Active; 'I' for Inactive)
REMARK    1  A    between atoms: C_1  and  C_2
REMARK    2  A    between atoms: C_6  and  C_8
REMARK    3  A    between atoms: C_8  and  C_9
REMARK    4  A    between atoms: C_9  and  N_10
REMARK    5  A    between atoms: C_11  and  C_13
REMARK    6  A    between atoms: C_24  and  C_26
REMARK    7  A    between atoms: C_29  and  C_31
REMARK                            x       y       z     vdW  Elec       q    Type
REMARK                         _______ _______ _______ _____ _____    ______ ____
ROOT
ATOM      1  C   UNL     1       2.709  -4.908   6.063  0.00  0.00    +0.100 C 
ATOM      2  C   UNL     1       1.957  -6.249   5.911  0.00  0.00    +0.121 C 
ATOM      3  N   UNL     1       3.016  -7.240   5.607  0.00  0.00    -0.294 N 
ATOM      4  C   UNL     1       4.152  -6.843   6.473  0.00  0.00    +0.115 C 
ATOM      5  C   UNL     1       4.148  -5.302   6.434  0.00  0.00    -0.004 C 
ATOM      6  C   UNL     1       5.124  -4.799   5.375  0.00  0.00    -0.010 C 
ATOM      7  C   UNL     1       6.553  -5.153   5.795  0.00  0.00    -0.082 C 
ATOM      8  N   UNL     1       6.850  -4.537   7.094  0.00  0.00    +0.379 N 
ATOM      9  C   UNL     1       5.968  -5.095   8.126  0.00  0.00    -0.082 C 
ATOM     10  C   UNL     1       4.513  -4.739   7.804  0.00  0.00    -0.010 C 
ATOM     11  C   UNL     1       2.959  -8.270   4.739  0.00  0.00    +0.282 C 
ATOM     12  O   UNL     1       3.921  -9.002   4.600  0.00  0.00    -0.267 OA
ATOM     13  H   UNL     1       7.811  -4.721   7.340  0.00  0.00    -0.086 HD
ATOM     14  H   UNL     1       6.706  -3.541   7.033  0.00  0.00    -0.086 HD
ENDROOT
BRANCH  11  15
ATOM     15  C   UNL     1       1.740  -8.507   3.963  0.00  0.00    +0.190 A 
ATOM     16  C   UNL     1       1.546  -9.521   3.050  0.00  0.00    +0.055 A 
ATOM     17  C   UNL     1       0.249  -9.371   2.550  0.00  0.00    +0.050 A 
ATOM     18  C   UNL     1      -0.297  -8.283   3.168  0.00  0.00    +0.136 A 
ATOM     19  O   UNL     1       0.608  -7.774   4.021  0.00  0.00    -0.450 OA
BRANCH  18  20
ATOM     20  C   UNL     1      -1.659  -7.757   2.942  0.00  0.00    +0.017 A 
ATOM     21  C   UNL     1      -2.511  -8.385   2.032  0.00  0.00    +0.011 A 
ATOM     22  C   UNL     1      -3.781  -7.888   1.826  0.00  0.00    +0.001 A 
ATOM     23  C   UNL     1      -4.211  -6.770   2.518  0.00  0.00    +0.000 A 
ATOM     24  C   UNL     1      -3.371  -6.142   3.421  0.00  0.00    +0.001 A 
ATOM     25  C   UNL     1      -2.100  -6.631   3.641  0.00  0.00    +0.011 A 
ENDBRANCH  18  20
ENDBRANCH  11  15
BRANCH   1  27
ATOM     26  N   UNL     1       2.752  -2.801   4.768  0.00  0.00    -0.315 N 
ATOM     27  C   UNL     1       2.692  -4.147   4.762  0.00  0.00    +0.218 C 
ATOM     28  O   UNL     1       2.625  -4.747   3.710  0.00  0.00    -0.275 OA
ATOM     29  H   UNL     1       2.807  -2.322   5.609  0.00  0.00    +0.149 HD
BRANCH  26  30
ATOM     30  C   UNL     1       2.736  -2.062   3.503  0.00  0.00    +0.109 C 
BRANCH  30  31
ATOM     31  C   UNL     1       2.815  -0.561   3.789  0.00  0.00    +0.054 C 
BRANCH  31  37
ATOM     32  C   UNL     1       5.265   1.518  -0.048  0.00  0.00    +0.044 C 
ATOM     33  C   UNL     1       3.971   1.195   0.653  0.00  0.00    -0.050 A 
ATOM     34  C   UNL     1       2.768   1.596   0.102  0.00  0.00    +0.003 A 
ATOM     35  C   UNL     1       1.581   1.300   0.744  0.00  0.00    +0.001 A 
ATOM     36  C   UNL     1       1.596   0.602   1.937  0.00  0.00    +0.004 A 
ATOM     37  C   UNL     1       2.798   0.200   2.488  0.00  0.00    -0.046 A 
ATOM     38  C   UNL     1       3.986   0.492   1.843  0.00  0.00    +0.007 A 
ENDBRANCH  31  37
ENDBRANCH  30  31
ENDBRANCH  26  30
ENDBRANCH   1  27
TORSDOF 6
