REMARK  Name = ZINC39696270
REMARK  11 active torsions:
REMARK  status: ('A' for Active; 'I' for Inactive)
REMARK    1  A    between atoms: C_1  and  C_2
REMARK    2  A    between atoms: C_2  and  C_3
REMARK    3  A    between atoms: C_6  and  C_9
REMARK    4  A    between atoms: C_9  and  C_11
REMARK    5  A    between atoms: C_9  and  N_12
REMARK    6  A    between atoms: C_13  and  C_15
REMARK    7  A    between atoms: C_26  and  C_28
REMARK    8  A    between atoms: C_28  and  C_29
REMARK    9  A    between atoms: C_29  and  C_30
REMARK   10  A    between atoms: C_33  and  O_36
REMARK   11  A    between atoms: O_36  and  C_37
REMARK                            x       y       z     vdW  Elec       q    Type
REMARK                         _______ _______ _______ _____ _____    ______ ____
ROOT
ATOM      1  C   UNL     1      -6.692  -4.983  -1.997  0.00  0.00    +0.100 C 
ATOM      2  C   UNL     1      -7.214  -4.319  -3.291  0.00  0.00    +0.121 C 
ATOM      3  N   UNL     1      -8.149  -5.312  -3.871  0.00  0.00    -0.300 N 
ATOM      4  C   UNL     1      -8.862  -5.875  -2.700  0.00  0.00    +0.115 C 
ATOM      5  C   UNL     1      -7.777  -6.003  -1.612  0.00  0.00    -0.004 C 
ATOM      6  C   UNL     1      -8.360  -5.663  -0.244  0.00  0.00    -0.010 C 
ATOM      7  C   UNL     1      -9.394  -6.723   0.144  0.00  0.00    -0.082 C 
ATOM      8  N   UNL     1      -8.755  -8.044   0.177  0.00  0.00    +0.379 N 
ATOM      9  C   UNL     1      -8.279  -8.404  -1.165  0.00  0.00    -0.082 C 
ATOM     10  C   UNL     1      -7.198  -7.414  -1.607  0.00  0.00    -0.010 C 
ATOM     11  C   UNL     1      -8.313  -5.632  -5.170  0.00  0.00    +0.216 C 
ATOM     12  O   UNL     1      -9.127  -6.473  -5.490  0.00  0.00    -0.276 OA
ATOM     13  H   UNL     1      -7.973  -8.022   0.815  0.00  0.00    -0.086 HD
ATOM     14  H   UNL     1      -9.422  -8.732   0.491  0.00  0.00    -0.086 HD
ENDROOT
BRANCH   1  16
ATOM     15  N   UNL     1      -5.603  -4.133   0.054  0.00  0.00    -0.308 N 
ATOM     16  C   UNL     1      -6.529  -3.954  -0.909  0.00  0.00    +0.219 C 
ATOM     17  O   UNL     1      -7.231  -2.965  -0.899  0.00  0.00    -0.275 OA
ATOM     18  H   UNL     1      -5.042  -4.924   0.047  0.00  0.00    +0.149 HD
BRANCH  15  19
ATOM     19  C   UNL     1      -5.445  -3.133   1.113  0.00  0.00    +0.100 C 
ATOM     20  C   UNL     1      -4.512  -2.021   0.628  0.00  0.00    +0.033 C 
BRANCH  19  24
ATOM     21  C   UNL     1      -3.773  -4.984   4.581  0.00  0.00    -0.048 A 
ATOM     22  C   UNL     1      -4.772  -4.038   4.716  0.00  0.00    +0.004 A 
ATOM     23  C   UNL     1      -5.313  -3.439   3.594  0.00  0.00    +0.006 A 
ATOM     24  C   UNL     1      -4.854  -3.785   2.336  0.00  0.00    -0.027 A 
ATOM     25  C   UNL     1      -3.855  -4.730   2.201  0.00  0.00    +0.006 A 
ATOM     26  C   UNL     1      -3.311  -5.326   3.324  0.00  0.00    +0.004 A 
BRANCH  21  28
ATOM     27  C   UNL     1      -1.992  -4.814   6.298  0.00  0.00    +0.009 C 
ATOM     28  C   UNL     1      -3.183  -5.637   5.804  0.00  0.00    +0.032 C 
ENDBRANCH  21  28
ENDBRANCH  19  24
ENDBRANCH  15  19
ENDBRANCH   1  16
BRANCH  11  29
ATOM     29  C   UNL     1      -7.486  -4.944  -6.226  0.00  0.00    +0.100 C 
BRANCH  29  30
ATOM     30  C   UNL     1      -7.867  -5.486  -7.605  0.00  0.00    +0.044 C 
BRANCH  30  31
ATOM     31  C   UNL     1      -7.040  -4.798  -8.661  0.00  0.00    -0.047 A 
ATOM     32  C   UNL     1      -7.497  -3.631  -9.243  0.00  0.00    +0.007 A 
ATOM     33  C   UNL     1      -6.741  -2.998 -10.211  0.00  0.00    +0.046 A 
ATOM     34  C   UNL     1      -5.522  -3.536 -10.599  0.00  0.00    +0.120 A 
ATOM     35  C   UNL     1      -5.065  -4.707 -10.012  0.00  0.00    +0.046 A 
ATOM     36  C   UNL     1      -5.823  -5.333  -9.041  0.00  0.00    +0.007 A 
BRANCH  34  37
ATOM     37  O   UNL     1      -4.777  -2.916 -11.551  0.00  0.00    -0.495 OA
ATOM     38  C   UNL     1      -3.533  -3.526 -11.900  0.00  0.00    +0.277 C 
ENDBRANCH  34  37
ENDBRANCH  30  31
ENDBRANCH  29  30
ENDBRANCH  11  29
TORSDOF 8
