REMARK  Name = ZINC39040552
REMARK  8 active torsions:
REMARK  status: ('A' for Active; 'I' for Inactive)
REMARK    1  A    between atoms: C_1  and  O_2
REMARK    2  A    between atoms: O_2  and  C_3
REMARK    3  A    between atoms: C_7  and  N_17
REMARK    4  A    between atoms: C_8  and  C_13
REMARK    5  A    between atoms: C_13  and  O_15
REMARK    6  A    between atoms: O_15  and  C_16
REMARK    7  A    between atoms: C_18  and  C_20
REMARK    8  A    between atoms: C_21  and  C_22
REMARK                            x       y       z     vdW  Elec       q    Type
REMARK                         _______ _______ _______ _____ _____    ______ ____
ROOT
ATOM      1  C   UNL     1      -0.674  -1.573   0.297  0.00  0.00    +0.122 A 
ATOM      2  C   UNL     1      -1.552  -0.529   0.630  0.00  0.00    +0.046 A 
ATOM      3  C   UNL     1      -2.894  -0.712   0.650  0.00  0.00    +0.015 A 
ATOM      4  C   UNL     1      -3.436  -1.980   0.329  0.00  0.00    +0.018 A 
ATOM      5  C   UNL     1      -4.736  -2.450   0.268  0.00  0.00    +0.053 C 
ATOM      6  C   UNL     1      -4.631  -3.903  -0.138  0.00  0.00    +0.234 C 
ATOM      7  N   UNL     1      -3.199  -4.178  -0.288  0.00  0.00    -0.367 N 
ATOM      8  C   UNL     1      -2.519  -3.079  -0.021  0.00  0.00    +0.048 A 
ATOM      9  C   UNL     1      -1.129  -2.815  -0.027  0.00  0.00    +0.071 A 
ATOM     10  H   UNL     1      -2.813  -5.031  -0.543  0.00  0.00    +0.161 HD
ENDROOT
BRANCH   5  11
ATOM     11  N   UNL     1      -5.874  -1.748   0.521  0.00  0.00    -0.281 N 
ATOM     12  C   UNL     1      -7.077  -2.308   0.285  0.00  0.00    +0.261 C 
ATOM     13  O   UNL     1      -7.147  -3.462  -0.097  0.00  0.00    -0.269 OA
ATOM     14  H   UNL     1      -5.820  -0.846   0.872  0.00  0.00    +0.155 HD
BRANCH  12  15
ATOM     15  C   UNL     1      -8.258  -1.555   0.480  0.00  0.00    +0.123 C 
ATOM     16  C   UNL     1      -9.471  -2.120   0.241  0.00  0.00    +0.085 C 
ATOM     17 CL   UNL     1      -9.568  -3.692  -0.488  0.00  0.00    -0.080 Cl
ATOM     18 CL   UNL     1      -8.158   0.090   1.024  0.00  0.00    -0.077 Cl
BRANCH  16  19
ATOM     19  C   UNL     1     -10.656  -1.425   0.589  0.00  0.00    +0.090 C 
ATOM     20  C   UNL     1     -11.847  -2.032   0.477  0.00  0.00    +0.126 C 
ATOM     21 CL   UNL     1     -11.925  -3.735   0.149  0.00  0.00    -0.069 Cl
ATOM     22 CL   UNL     1     -13.309  -1.115   0.661  0.00  0.00    -0.069 Cl
ATOM     23 CL   UNL     1     -10.568   0.213   1.159  0.00  0.00    -0.080 Cl
ENDBRANCH  16  19
ENDBRANCH  12  15
ENDBRANCH   5  11
BRANCH   1  25
ATOM     24  C   UNL     1       1.087  -0.016   0.638  0.00  0.00    +0.277 C 
ATOM     25  O   UNL     1       0.661  -1.336   0.291  0.00  0.00    -0.495 OA
ENDBRANCH   1  25
BRANCH   6  26
ATOM     26  C   UNL     1      -5.221  -4.784   0.933  0.00  0.00    +0.335 C 
ATOM     27  O   UNL     1      -4.636  -4.937   1.980  0.00  0.00    -0.248 OA
BRANCH  26  28
ATOM     28  O   UNL     1      -6.396  -5.399   0.725  0.00  0.00    -0.466 OA
ATOM     29  C   UNL     1      -6.895  -6.220   1.783  0.00  0.00    +0.280 C 
ENDBRANCH  26  28
ENDBRANCH   6  26
TORSDOF 6
