REMARK  Name = ZINC59720334
REMARK  16 active torsions:
REMARK  status: ('A' for Active; 'I' for Inactive)
REMARK    1  A    between atoms: C_1  and  C_2
REMARK    2  A    between atoms: C_2  and  N_3
REMARK    3  A    between atoms: N_3  and  C_4
REMARK    4  A    between atoms: N_3  and  C_6
REMARK    5  A    between atoms: C_4  and  C_5
REMARK    6  A    between atoms: C_9  and  N_12
REMARK    7  A    between atoms: C_13  and  C_28
REMARK    8  A    between atoms: N_15  and  C_21
REMARK    9  A    between atoms: C_17  and  C_18
REMARK   10  A    between atoms: C_18  and  C_20
REMARK   11  A    between atoms: C_24  and  C_27
REMARK   12  A    between atoms: C_31  and  O_36
REMARK   13  A    between atoms: C_32  and  O_34
REMARK   14  A    between atoms: O_34  and  C_35
REMARK   15  A    between atoms: O_36  and  C_37
REMARK   16  A    between atoms: C_37  and  C_38
REMARK                            x       y       z     vdW  Elec       q    Type
REMARK                         _______ _______ _______ _____ _____    ______ ____
ROOT
ATOM      1  N   UNL     1      -2.010  -6.058   0.054  0.00  0.00    -0.256 N 
ATOM      2  C   UNL     1      -2.832  -6.959   0.880  0.00  0.00    +0.221 C 
ATOM      3  N   UNL     1      -2.318  -8.303   0.568  0.00  0.00    -0.197 N 
ATOM      4  N   UNL     1      -1.289  -8.128  -0.364  0.00  0.00    -0.158 NA
ATOM      5  C   UNL     1      -1.121  -6.871  -0.656  0.00  0.00    +0.188 C 
ENDROOT
BRANCH   3   6
ATOM      6  C   UNL     1      -2.768  -9.512   1.096  0.00  0.00    +0.054 A 
ATOM      7  C   UNL     1      -3.699  -9.518   2.129  0.00  0.00    +0.025 A 
ATOM      8  C   UNL     1      -4.143 -10.717   2.650  0.00  0.00    +0.005 A 
ATOM      9  C   UNL     1      -3.662 -11.912   2.145  0.00  0.00    -0.050 A 
ATOM     10  C   UNL     1      -2.736 -11.911   1.118  0.00  0.00    +0.005 A 
ATOM     11  C   UNL     1      -2.292 -10.716   0.588  0.00  0.00    +0.025 A 
ATOM     12  C   UNL     1      -4.149 -13.219   2.717  0.00  0.00    +0.044 C 
ENDBRANCH   3   6
BRANCH   1  16
ATOM     13  C   UNL     1      -2.290  -1.909  -0.141  0.00  0.00    +0.014 A 
ATOM     14  C   UNL     1      -1.667  -2.508   0.938  0.00  0.00    +0.023 A 
ATOM     15  C   UNL     1      -1.573  -3.884   1.006  0.00  0.00    +0.025 A 
ATOM     16  C   UNL     1      -2.105  -4.667  -0.011  0.00  0.00    +0.038 A 
ATOM     17  C   UNL     1      -2.731  -4.061  -1.094  0.00  0.00    +0.025 A 
ATOM     18  C   UNL     1      -2.826  -2.685  -1.153  0.00  0.00    +0.023 A 
BRANCH  13  19
ATOM     19  N   UNL     1      -2.384  -0.515  -0.207  0.00  0.00    -0.394 NA
ATOM     20  H   UNL     1      -2.868  -0.250  -1.052  0.00  0.00    +0.126 HD
BRANCH  19  22
ATOM     21  C   UNL     1      -4.564  -0.537   0.908  0.00  0.00    +0.022 C 
ATOM     22  C   UNL     1      -3.126  -0.019   0.960  0.00  0.00    +0.081 C 
ENDBRANCH  19  22
BRANCH  19  23
ATOM     23  C   UNL     1      -1.035   0.066  -0.213  0.00  0.00    +0.081 C 
ATOM     24  C   UNL     1      -0.300  -0.363  -1.485  0.00  0.00    +0.022 C 
ENDBRANCH  19  23
ENDBRANCH  13  19
ENDBRANCH   1  16
BRANCH   2  25
ATOM     25  C   UNL     1      -4.286  -6.845   0.498  0.00  0.00    -0.003 A 
ATOM     26  C   UNL     1      -5.195  -6.316   1.395  0.00  0.00    +0.011 A 
ATOM     27  C   UNL     1      -6.529  -6.210   1.050  0.00  0.00    +0.050 A 
ATOM     28  C   UNL     1      -6.958  -6.633  -0.198  0.00  0.00    +0.163 A 
ATOM     29  C   UNL     1      -6.043  -7.165  -1.101  0.00  0.00    +0.162 A 
ATOM     30  C   UNL     1      -4.706  -7.265  -0.750  0.00  0.00    +0.056 A 
BRANCH  29  31
ATOM     31  O   UNL     1      -6.458  -7.583  -2.327  0.00  0.00    -0.491 OA
ATOM     32  C   UNL     1      -5.463  -8.118  -3.202  0.00  0.00    +0.277 C 
ENDBRANCH  29  31
BRANCH  28  33
ATOM     33  O   UNL     1      -8.270  -6.530  -0.539  0.00  0.00    -0.479 OA
BRANCH  33  34
ATOM     34  C   UNL     1      -9.153  -5.974   0.438  0.00  0.00    +0.324 C 
BRANCH  34  35
ATOM     35  C   UNL     1     -10.555  -5.939  -0.114  0.00  0.00    +0.248 C 
ATOM     36  O   UNL     1     -10.776  -6.349  -1.234  0.00  0.00    -0.272 OA
ATOM     37  N   UNL     1     -11.562  -5.451   0.637  0.00  0.00    -0.327 N 
ATOM     38  H   UNL     1     -11.385  -5.123   1.532  0.00  0.00    +0.145 HD
ATOM     39  H   UNL     1     -12.465  -5.429   0.282  0.00  0.00    +0.145 HD
ENDBRANCH  34  35
ENDBRANCH  33  34
ENDBRANCH  28  33
ENDBRANCH   2  25
BRANCH   5  40
ATOM     40  C   UNL     1      -0.157  -6.387  -1.573  0.00  0.00    +0.194 C 
ATOM     41  O   UNL     1      -0.022  -5.192  -1.738  0.00  0.00    -0.289 OA
ATOM     42  C   UNL     1       0.702  -7.356  -2.345  0.00  0.00    +0.095 C 
ENDBRANCH   5  40
TORSDOF 11
