REMARK  Name = ZINC09780983
REMARK  7 active torsions:
REMARK  status: ('A' for Active; 'I' for Inactive)
REMARK    1  A    between atoms: C_1  and  N_2
REMARK    2  A    between atoms: N_2  and  C_3
REMARK    3  A    between atoms: N_2  and  C_4
REMARK    4  A    between atoms: C_7  and  C_10
REMARK    5  A    between atoms: C_17  and  S_28
REMARK    6  A    between atoms: S_28  and  C_29
REMARK    7  A    between atoms: C_29  and  C_30
REMARK                            x       y       z     vdW  Elec       q    Type
REMARK                         _______ _______ _______ _____ _____    ______ ____
ROOT
ATOM      1  C   UNL     1       0.003  -0.004  -0.003  0.00  0.00    +0.092 C 
ATOM      2  C   UNL     1      -0.706  -0.497  -1.229  0.00  0.00    +0.069 A 
ATOM      3  C   UNL     1      -0.074  -0.455  -2.477  0.00  0.00    +0.258 A 
ATOM      4  O   UNL     1       1.062  -0.020  -2.584  0.00  0.00    -0.267 OA
ATOM      5  N   UNL     1      -0.743  -0.904  -3.560  0.00  0.00    -0.302 N 
ATOM      6  H   UNL     1      -0.321  -0.884  -4.433  0.00  0.00    +0.171 HD
ATOM      7  C   UNL     1      -2.011  -1.385  -3.428  0.00  0.00    +0.171 A 
ATOM      8  N   UNL     1      -2.611  -1.427  -2.256  0.00  0.00    -0.208 NA
ATOM      9  C   UNL     1      -1.994  -0.998  -1.150  0.00  0.00    +0.135 A 
ATOM     10  N   UNL     1      -2.632  -1.054   0.074  0.00  0.00    -0.302 N 
ATOM     11  C   UNL     1      -1.913  -1.004   1.237  0.00  0.00    +0.017 C 
ATOM     12  C   UNL     1      -0.657  -0.514   1.254  0.00  0.00    +0.024 C 
ATOM     13  C   UNL     1       0.085  -0.462   2.450  0.00  0.00    +0.162 C 
ATOM     14  O   UNL     1       1.221  -0.032   2.428  0.00  0.00    -0.292 OA
ATOM     15  C   UNL     1      -0.503  -0.926   3.753  0.00  0.00    +0.080 C 
ATOM     16  C   UNL     1      -2.024  -0.746   3.705  0.00  0.00    +0.014 C 
ATOM     17  C   UNL     1      -2.564  -1.517   2.498  0.00  0.00    +0.051 C 
ATOM     18  H   UNL     1      -3.598  -1.129   0.109  0.00  0.00    +0.153 HD
ENDROOT
BRANCH   1  22
ATOM     19  C   UNL     1      -0.056   4.269   0.024  0.00  0.00    +0.029 A 
ATOM     20  C   UNL     1       1.155   3.590  -0.006  0.00  0.00    +0.023 A 
ATOM     21  C   UNL     1       1.171   2.209  -0.015  0.00  0.00    +0.006 A 
ATOM     22  C   UNL     1      -0.018   1.503   0.007  0.00  0.00    -0.035 A 
ATOM     23  C   UNL     1      -1.226   2.176   0.031  0.00  0.00    +0.006 A 
ATOM     24  C   UNL     1      -1.248   3.557   0.046  0.00  0.00    +0.023 A 
BRANCH  19  26
ATOM     25  C   UNL     1       1.180   6.415   0.138  0.00  0.00    +0.129 C 
ATOM     26  N   UNL     1      -0.075   5.666   0.034  0.00  0.00    -0.336 N 
ATOM     27  C   UNL     1      -1.349   6.382  -0.061  0.00  0.00    +0.129 C 
ENDBRANCH  19  26
ENDBRANCH   1  22
BRANCH   7  28
ATOM     28  S   UNL     1      -2.866  -1.964  -4.856  0.00  0.00    -0.083 S 
BRANCH  28  29
ATOM     29  C   UNL     1      -4.435  -2.460  -4.103  0.00  0.00    +0.115 C 
BRANCH  29  30
ATOM     30  C   UNL     1      -5.354  -3.003  -5.167  0.00  0.00    -0.002 A 
ATOM     31  C   UNL     1      -6.216  -2.154  -5.835  0.00  0.00    +0.007 A 
ATOM     32  C   UNL     1      -7.054  -2.650  -6.816  0.00  0.00    +0.000 A 
ATOM     33  C   UNL     1      -7.040  -3.999  -7.121  0.00  0.00    +0.003 A 
ATOM     34  C   UNL     1      -6.184  -4.851  -6.450  0.00  0.00    +0.038 A 
ATOM     35  C   UNL     1      -5.339  -4.353  -5.472  0.00  0.00    +0.127 A 
ATOM     36  F   UNL     1      -4.501  -5.186  -4.815  0.00  0.00    -0.205 F 
ENDBRANCH  29  30
ENDBRANCH  28  29
ENDBRANCH   7  28
TORSDOF 5
