REMARK  Name = ZINC01836732
REMARK  14 active torsions:
REMARK  status: ('A' for Active; 'I' for Inactive)
REMARK    1  A    between atoms: C_1  and  O_2
REMARK    2  A    between atoms: O_2  and  C_3
REMARK    3  A    between atoms: C_8  and  N_9
REMARK    4  A    between atoms: N_9  and  C_10
REMARK    5  A    between atoms: N_9  and  S_29
REMARK    6  A    between atoms: C_10  and  C_11
REMARK    7  A    between atoms: C_11  and  C_13
REMARK    8  A    between atoms: C_11  and  O_28
REMARK    9  A    between atoms: C_13  and  N_69
REMARK   10  A    between atoms: C_14  and  C_15
REMARK   11  A    between atoms: C_14  and  N_69
REMARK   12  A    between atoms: C_21  and  C_22
REMARK   13  A    between atoms: C_21  and  N_69
REMARK   14  A    between atoms: S_29  and  C_32
REMARK                            x       y       z     vdW  Elec       q    Type
REMARK                         _______ _______ _______ _____ _____    ______ ____
ROOT
ATOM      1  C   UNL     1       2.582  -3.067  -3.348  0.00  0.00    +0.117 C 
ENDROOT
BRANCH   1   2
ATOM      2  O   UNL     1       3.325  -2.132  -4.132  0.00  0.00    -0.392 OA
ATOM      3  H   UNL     1       3.817  -2.533  -4.861  0.00  0.00    +0.210 HD
ENDBRANCH   1   2
BRANCH   1   4
ATOM      4  C   UNL     1       3.538  -4.093  -2.736  0.00  0.00    +0.161 C 
BRANCH   4   5
ATOM      5  N   UNL     1       4.407  -3.429  -1.760  0.00  0.00    -0.197 N 
BRANCH   5  11
ATOM      6  C   UNL     1       6.715  -3.035  -2.369  0.00  0.00    +0.143 A 
ATOM      7  C   UNL     1       7.709  -2.173  -2.801  0.00  0.00    +0.047 A 
ATOM      8  C   UNL     1       7.412  -0.847  -3.060  0.00  0.00    +0.004 A 
ATOM      9  C   UNL     1       6.123  -0.378  -2.888  0.00  0.00    +0.002 A 
ATOM     10  C   UNL     1       5.124  -1.233  -2.462  0.00  0.00    +0.028 A 
ATOM     11  C   UNL     1       5.416  -2.562  -2.196  0.00  0.00    +0.093 A 
BRANCH   6  13
ATOM     12  C   UNL     1       8.359  -4.753  -2.316  0.00  0.00    +0.277 C 
ATOM     13  O   UNL     1       7.006  -4.339  -2.116  0.00  0.00    -0.493 OA
ENDBRANCH   6  13
ENDBRANCH   5  11
BRANCH   5  14
ATOM     14  S   UNL     1       4.194  -3.704  -0.141  0.00  0.00    +0.075 S 
ATOM     15  O   UNL     1       5.392  -3.291   0.502  0.00  0.00    -0.150 OA
ATOM     16  O   UNL     1       3.678  -5.022  -0.017  0.00  0.00    -0.150 OA
BRANCH  14  17
ATOM     17  C   UNL     1       2.925  -2.613   0.411  0.00  0.00    +0.109 A 
ATOM     18  C   UNL     1       1.599  -2.993   0.321  0.00  0.00    +0.029 A 
ATOM     19  C   UNL     1       0.603  -2.137   0.753  0.00  0.00    +0.002 A 
ATOM     20  C   UNL     1       0.933  -0.900   1.275  0.00  0.00    +0.000 A 
ATOM     21  C   UNL     1       2.259  -0.520   1.365  0.00  0.00    +0.002 A 
ATOM     22  C   UNL     1       3.255  -1.376   0.932  0.00  0.00    +0.029 A 
ENDBRANCH  14  17
ENDBRANCH   5  14
ENDBRANCH   4   5
ENDBRANCH   1   4
BRANCH   1  23
ATOM     23  C   UNL     1       1.566  -3.785  -4.238  0.00  0.00    -0.045 C 
BRANCH  23  24
ATOM     24  N   UNL     1       0.704  -2.774  -4.885  0.00  0.00    +0.387 N 
ATOM     25  H   UNL     1       1.292  -2.010  -5.238  0.00  0.00    -0.081 HD
BRANCH  24  26
ATOM     26  C   UNL     1      -0.025  -3.382  -6.019  0.00  0.00    -0.042 C 
BRANCH  26  27
ATOM     27  C   UNL     1      -0.720  -2.291  -6.791  0.00  0.00    -0.064 A 
ATOM     28  C   UNL     1      -2.016  -1.935  -6.470  0.00  0.00    +0.002 A 
ATOM     29  C   UNL     1      -2.652  -0.930  -7.175  0.00  0.00    +0.000 A 
ATOM     30  C   UNL     1      -1.996  -0.289  -8.208  0.00  0.00    +0.000 A 
ATOM     31  C   UNL     1      -0.701  -0.649  -8.533  0.00  0.00    +0.000 A 
ATOM     32  C   UNL     1      -0.063  -1.649  -7.824  0.00  0.00    +0.002 A 
ENDBRANCH  26  27
ENDBRANCH  24  26
BRANCH  24  33
ATOM     33  C   UNL     1      -0.257  -2.227  -3.904  0.00  0.00    -0.042 C 
BRANCH  33  34
ATOM     34  C   UNL     1       0.162  -0.820  -3.561  0.00  0.00    -0.064 A 
ATOM     35  C   UNL     1       0.901  -0.577  -2.419  0.00  0.00    +0.002 A 
ATOM     36  C   UNL     1       1.289   0.713  -2.108  0.00  0.00    +0.000 A 
ATOM     37  C   UNL     1       0.929   1.761  -2.934  0.00  0.00    +0.000 A 
ATOM     38  C   UNL     1       0.185   1.519  -4.073  0.00  0.00    +0.000 A 
ATOM     39  C   UNL     1      -0.199   0.228  -4.387  0.00  0.00    +0.002 A 
ENDBRANCH  33  34
ENDBRANCH  24  33
ENDBRANCH  23  24
ENDBRANCH   1  23
TORSDOF 13
