REMARK  Name = ZINC36064030
REMARK  12 active torsions:
REMARK  status: ('A' for Active; 'I' for Inactive)
REMARK    1  A    between atoms: C_1  and  C_2
REMARK    2  A    between atoms: C_6  and  C_8
REMARK    3  A    between atoms: C_8  and  N_9
REMARK    4  A    between atoms: N_9  and  C_10
REMARK    5  A    between atoms: N_9  and  C_22
REMARK    6  A    between atoms: C_10  and  C_11
REMARK    7  A    between atoms: C_11  and  C_12
REMARK    8  A    between atoms: C_22  and  C_23
REMARK    9  A    between atoms: C_25  and  C_28
REMARK   10  A    between atoms: N_30  and  C_31
REMARK   11  A    between atoms: N_30  and  C_32
REMARK   12  A    between atoms: C_32  and  C_33
REMARK                            x       y       z     vdW  Elec       q    Type
REMARK                         _______ _______ _______ _____ _____    ______ ____
ROOT
ATOM      1  N   UNL     1       1.610  -1.985   3.339  0.00  0.00    +0.388 N 
ATOM      2  H   UNL     1       2.084  -2.526   2.632  0.00  0.00    -0.081 HD
ENDROOT
BRANCH   1   3
ATOM      3  C   UNL     1       0.233  -1.712   2.906  0.00  0.00    -0.042 C 
BRANCH   3   9
ATOM      4  C   UNL     1       0.452   2.542   0.279  0.00  0.00    +0.044 C 
ATOM      5  C   UNL     1       0.361   1.039   0.323  0.00  0.00    -0.050 A 
ATOM      6  C   UNL     1       0.299   0.315  -0.854  0.00  0.00    +0.003 A 
ATOM      7  C   UNL     1       0.216  -1.064  -0.814  0.00  0.00    +0.000 A 
ATOM      8  C   UNL     1       0.195  -1.720   0.403  0.00  0.00    +0.002 A 
ATOM      9  C   UNL     1       0.257  -0.997   1.579  0.00  0.00    -0.064 A 
ATOM     10  C   UNL     1       0.344   0.383   1.539  0.00  0.00    +0.005 A 
ENDBRANCH   3   9
ENDBRANCH   1   3
BRANCH   1  11
ATOM     11  C   UNL     1       1.585  -2.740   4.599  0.00  0.00    -0.073 C 
BRANCH  11  12
ATOM     12  C   UNL     1       0.956  -4.114   4.358  0.00  0.00    +0.019 C 
BRANCH  12  13
ATOM     13  C   UNL     1       0.931  -4.889   5.651  0.00  0.00    -0.024 A 
ATOM     14  C   UNL     1       1.851  -5.772   6.070  0.00  0.00    +0.087 A 
ATOM     15  N   UNL     1       1.492  -6.275   7.291  0.00  0.00    -0.360 N 
ATOM     16  H   UNL     1       2.000  -6.930   7.795  0.00  0.00    +0.165 HD
ATOM     17  C   UNL     1       0.302  -5.713   7.697  0.00  0.00    +0.047 A 
ATOM     18  C   UNL     1      -0.098  -4.816   6.691  0.00  0.00    +0.003 A 
ATOM     19  C   UNL     1      -1.281  -4.088   6.836  0.00  0.00    +0.010 A 
ATOM     20  C   UNL     1      -2.043  -4.251   7.958  0.00  0.00    +0.001 A 
ATOM     21  C   UNL     1      -1.651  -5.132   8.956  0.00  0.00    +0.002 A 
ATOM     22  C   UNL     1      -0.492  -5.866   8.829  0.00  0.00    +0.026 A 
ENDBRANCH  12  13
ENDBRANCH  11  12
ENDBRANCH   1  11
BRANCH   1  23
ATOM     23  C   UNL     1       2.320  -0.716   3.543  0.00  0.00    +0.019 C 
BRANCH  23  24
ATOM     24  C   UNL     1       3.770  -0.994   3.844  0.00  0.00    +0.179 A 
ATOM     25  N   UNL     1       4.730  -1.014   2.969  0.00  0.00    -0.210 NA
ATOM     26  C   UNL     1       5.895  -1.299   3.612  0.00  0.00    +0.164 A 
ATOM     27  C   UNL     1       5.596  -1.452   4.931  0.00  0.00    +0.230 A 
ATOM     28  O   UNL     1       4.274  -1.255   5.059  0.00  0.00    -0.449 OA
BRANCH  26  29
ATOM     29  C   UNL     1       7.229  -1.419   2.997  0.00  0.00    +0.268 C 
ATOM     30  O   UNL     1       8.184  -1.749   3.674  0.00  0.00    -0.268 OA
ATOM     31  N   UNL     1       7.390  -1.163   1.683  0.00  0.00    -0.295 N 
ATOM     32  C   UNL     1       6.260  -0.681   0.886  0.00  0.00    +0.132 C 
BRANCH  31  33
ATOM     33  C   UNL     1       8.697  -1.366   1.053  0.00  0.00    +0.142 C 
BRANCH  33  34
ATOM     34  C   UNL     1       8.745  -2.737   0.427  0.00  0.00    -0.030 A 
ATOM     35  C   UNL     1       9.185  -3.819   1.166  0.00  0.00    +0.005 A 
ATOM     36  C   UNL     1       9.229  -5.076   0.593  0.00  0.00    +0.000 A 
ATOM     37  C   UNL     1       8.832  -5.251  -0.720  0.00  0.00    +0.000 A 
ATOM     38  C   UNL     1       8.391  -4.169  -1.459  0.00  0.00    +0.000 A 
ATOM     39  C   UNL     1       8.343  -2.913  -0.884  0.00  0.00    +0.005 A 
ENDBRANCH  33  34
ENDBRANCH  31  33
ENDBRANCH  26  29
ENDBRANCH  23  24
ENDBRANCH   1  23
TORSDOF 10
