REMARK  Name = ZINC26265782
REMARK  10 active torsions:
REMARK  status: ('A' for Active; 'I' for Inactive)
REMARK    1  A    between atoms: C_1  and  C_2
REMARK    2  A    between atoms: C_2  and  C_3
REMARK    3  A    between atoms: C_2  and  C_4
REMARK    4  A    between atoms: C_4  and  O_5
REMARK    5  A    between atoms: O_5  and  C_6
REMARK    6  A    between atoms: C_6  and  C_7
REMARK    7  A    between atoms: C_7  and  C_8
REMARK    8  A    between atoms: C_8  and  N_9
REMARK    9  A    between atoms: N_15  and  S_18
REMARK   10  A    between atoms: S_18  and  C_21
REMARK                            x       y       z     vdW  Elec       q    Type
REMARK                         _______ _______ _______ _____ _____    ______ ____
ROOT
ATOM      1  N   UNL     1      -0.682   5.215   1.885  0.00  0.00    -0.299 N 
ATOM      2  C   UNL     1      -0.547   3.887   2.070  0.00  0.00    +0.302 C 
ATOM      3  O   UNL     1      -0.037   3.464   3.089  0.00  0.00    -0.253 OA
ATOM      4  N   UNL     1      -0.978   3.028   1.125  0.00  0.00    -0.283 N 
ATOM      5  C   UNL     1      -0.735   1.584   1.263  0.00  0.00    +0.126 C 
ATOM      6  C   UNL     1      -0.009   1.087   0.007  0.00  0.00    +0.128 C 
ATOM      7  N   UNL     1      -0.727   1.577  -1.179  0.00  0.00    -0.174 NA
ATOM      8  C   UNL     1      -0.966   3.021  -1.315  0.00  0.00    +0.128 C 
ATOM      9  C   UNL     1      -1.695   3.518  -0.061  0.00  0.00    +0.126 C 
ATOM     10  H   UNL     1      -1.218   5.596   1.002  0.00  0.00    +0.150 HD
ENDROOT
BRANCH   7  11
ATOM     11  S   UNL     1      -1.256   0.522  -2.339  0.00  0.00    +0.061 S 
ATOM     12  O   UNL     1      -1.378   1.268  -3.542  0.00  0.00    -0.153 OA
ATOM     13  O   UNL     1      -0.437  -0.635  -2.240  0.00  0.00    -0.153 OA
BRANCH  11  14
ATOM     14  C   UNL     1      -2.885   0.025  -1.887  0.00  0.00    +0.107 A 
ATOM     15  C   UNL     1      -3.072  -1.088  -1.089  0.00  0.00    +0.028 A 
ATOM     16  C   UNL     1      -4.349  -1.475  -0.730  0.00  0.00    +0.003 A 
ATOM     17  C   UNL     1      -5.441  -0.755  -1.178  0.00  0.00    +0.015 A 
ATOM     18  C   UNL     1      -5.255   0.355  -1.981  0.00  0.00    +0.020 A 
ATOM     19  C   UNL     1      -3.976   0.745  -2.336  0.00  0.00    +0.043 A 
ATOM     20 BR   UNL     1      -6.749   1.339  -2.595  0.00  0.00    -0.050 Br
ENDBRANCH  11  14
ENDBRANCH   7  11
BRANCH   1  21
ATOM     21  C   UNL     1      -0.116   6.151   2.858  0.00  0.00    +0.108 C 
BRANCH  21  22
ATOM     22  C   UNL     1      -0.407   7.587   2.415  0.00  0.00    +0.047 C 
BRANCH  22  23
ATOM     23  C   UNL     1       0.185   8.565   3.432  0.00  0.00    +0.161 C 
BRANCH  23  24
ATOM     24  O   UNL     1      -0.087   9.905   3.018  0.00  0.00    -0.379 OA
BRANCH  24  25
ATOM     25  C   UNL     1       0.425  10.902   3.904  0.00  0.00    +0.162 C 
BRANCH  25  27
ATOM     26  C   UNL     1      -1.441  12.478   3.380  0.00  0.00    +0.009 C 
ATOM     27  C   UNL     1       0.077  12.291   3.364  0.00  0.00    +0.009 C 
ATOM     28  C   UNL     1       0.732  13.358   4.244  0.00  0.00    +0.009 C 
ENDBRANCH  25  27
ENDBRANCH  24  25
ENDBRANCH  23  24
ENDBRANCH  22  23
ENDBRANCH  21  22
ENDBRANCH   1  21
TORSDOF 8
