REMARK  Name = ZINC13134998
REMARK  8 active torsions:
REMARK  status: ('A' for Active; 'I' for Inactive)
REMARK    1  A    between atoms: C_1  and  C_2
REMARK    2  A    between atoms: C_2  and  C_4
REMARK    3  A    between atoms: C_2  and  S_17
REMARK    4  A    between atoms: N_6  and  C_7
REMARK    5  A    between atoms: C_11  and  N_13
REMARK    6  A    between atoms: S_17  and  C_18
REMARK    7  A    between atoms: N_31  and  C_32
REMARK    8  A    between atoms: C_32  and  C_33
REMARK                            x       y       z     vdW  Elec       q    Type
REMARK                         _______ _______ _______ _____ _____    ______ ____
ROOT
ATOM      1  S   UNL     1       2.623   0.904   0.568  0.00  0.00    -0.075 S 
ENDROOT
BRANCH   1   2
ATOM      2  C   UNL     1       3.947   2.067   0.617  0.00  0.00    +0.174 A 
ATOM      3  N   UNL     1       3.723   3.321   0.280  0.00  0.00    -0.216 NA
ATOM      4  C   UNL     1       4.702   4.218   0.307  0.00  0.00    +0.117 A 
ATOM      5  C   UNL     1       6.011   3.883   0.693  0.00  0.00    +0.076 A 
ATOM      6  C   UNL     1       6.982   4.978   0.673  0.00  0.00    -0.023 A 
ATOM      7  C   UNL     1       6.531   6.190   0.291  0.00  0.00    -0.004 A 
ATOM      8  S   UNL     1       4.810   5.951  -0.060  0.00  0.00    -0.073 S 
ATOM      9  C   UNL     1       7.319   7.460   0.187  0.00  0.00    +0.043 C 
ATOM     10  C   UNL     1       8.645   7.271   0.937  0.00  0.00    +0.005 C 
ATOM     11  C   UNL     1       9.267   5.939   0.505  0.00  0.00    +0.005 C 
ATOM     12  C   UNL     1       8.444   4.777   1.063  0.00  0.00    +0.037 C 
ATOM     13  C   UNL     1       6.224   2.515   1.054  0.00  0.00    +0.263 A 
ATOM     14  O   UNL     1       7.328   2.133   1.402  0.00  0.00    -0.267 OA
ATOM     15  N   UNL     1       5.188   1.657   1.008  0.00  0.00    -0.283 N 
BRANCH  15  16
ATOM     16  C   UNL     1       5.398   0.256   1.382  0.00  0.00    +0.154 C 
BRANCH  16  17
ATOM     17  C   UNL     1       5.793  -0.535   0.162  0.00  0.00    -0.013 C 
ATOM     18  C   UNL     1       6.899  -1.238   0.167  0.00  0.00    +0.005 C 
ENDBRANCH  16  17
ENDBRANCH  15  16
ENDBRANCH   1   2
BRANCH   1  20
ATOM     19  C   UNL     1       1.580   2.474  -1.409  0.00  0.00    +0.029 C 
ATOM     20  C   UNL     1       1.280   1.980   0.007  0.00  0.00    +0.137 C 
BRANCH  20  21
ATOM     21  C   UNL     1      -0.014   1.209   0.007  0.00  0.00    +0.230 C 
ATOM     22  O   UNL     1       0.002  -0.004  -0.008  0.00  0.00    -0.274 OA
ATOM     23  N   UNL     1      -1.191   1.867   0.018  0.00  0.00    -0.285 N 
ATOM     24  H   UNL     1      -1.205   2.833   0.098  0.00  0.00    +0.155 HD
BRANCH  23  25
ATOM     25  C   UNL     1      -2.392   1.155  -0.086  0.00  0.00    +0.036 A 
ATOM     26  C   UNL     1      -3.469   1.704  -0.770  0.00  0.00    +0.026 A 
ATOM     27  C   UNL     1      -4.650   0.997  -0.877  0.00  0.00    +0.042 A 
ATOM     28  C   UNL     1      -4.766  -0.253  -0.292  0.00  0.00    +0.154 A 
ATOM     29  C   UNL     1      -3.696  -0.799   0.395  0.00  0.00    +0.163 A 
ATOM     30  C   UNL     1      -2.510  -0.099   0.499  0.00  0.00    +0.059 A 
ATOM     31  F   UNL     1      -5.925  -0.940  -0.392  0.00  0.00    -0.203 F 
BRANCH  29  32
ATOM     32  N   UNL     1      -3.822  -2.136   1.019  0.00  0.00    +0.059 N 
ATOM     33  O   UNL     1      -2.881  -2.617   1.623  0.00  0.00    -0.126 OA
ATOM     34  O   UNL     1      -4.868  -2.754   0.928  0.00  0.00    -0.126 OA
ENDBRANCH  29  32
ENDBRANCH  23  25
ENDBRANCH  20  21
ENDBRANCH   1  20
TORSDOF 7
