REMARK  Name = ZINC39677076
REMARK  12 active torsions:
REMARK  status: ('A' for Active; 'I' for Inactive)
REMARK    1  A    between atoms: C_1  and  C_2
REMARK    2  A    between atoms: C_5  and  C_38
REMARK    3  A    between atoms: C_6  and  C_8
REMARK    4  A    between atoms: C_8  and  C_9
REMARK    5  A    between atoms: C_9  and  N_10
REMARK    6  A    between atoms: C_11  and  C_13
REMARK    7  A    between atoms: C_24  and  C_26
REMARK    8  A    between atoms: C_26  and  C_28
REMARK    9  A    between atoms: C_26  and  O_31
REMARK   10  A    between atoms: C_28  and  C_29
REMARK   11  A    between atoms: C_28  and  C_30
REMARK   12  A    between atoms: O_31  and  C_32
REMARK                            x       y       z     vdW  Elec       q    Type
REMARK                         _______ _______ _______ _____ _____    ______ ____
ROOT
ATOM      1  C   UNL     1       2.795  -5.168   5.980  0.00  0.00    +0.100 C 
ATOM      2  C   UNL     1       2.313  -4.241   7.118  0.00  0.00    +0.121 C 
ATOM      3  N   UNL     1       3.168  -4.594   8.276  0.00  0.00    -0.297 N 
ATOM      4  C   UNL     1       4.512  -4.812   7.689  0.00  0.00    +0.115 C 
ATOM      5  C   UNL     1       4.239  -5.540   6.358  0.00  0.00    -0.004 C 
ATOM      6  C   UNL     1       5.208  -5.055   5.284  0.00  0.00    -0.010 C 
ATOM      7  C   UNL     1       6.630  -5.487   5.653  0.00  0.00    -0.082 C 
ATOM      8  N   UNL     1       6.685  -6.949   5.766  0.00  0.00    +0.379 N 
ATOM      9  C   UNL     1       5.820  -7.399   6.864  0.00  0.00    -0.082 C 
ATOM     10  C   UNL     1       4.364  -7.048   6.546  0.00  0.00    -0.010 C 
ATOM     11  C   UNL     1       2.805  -4.695   9.570  0.00  0.00    +0.257 C 
ATOM     12  O   UNL     1       3.628  -4.995  10.409  0.00  0.00    -0.272 OA
ATOM     13  H   UNL     1       6.372  -7.364   4.901  0.00  0.00    -0.086 HD
ATOM     14  H   UNL     1       7.635  -7.236   5.949  0.00  0.00    -0.086 HD
ENDROOT
BRANCH   1  16
ATOM     15  N   UNL     1       2.723  -5.132   3.507  0.00  0.00    -0.315 N 
ATOM     16  C   UNL     1       2.769  -4.438   4.662  0.00  0.00    +0.218 C 
ATOM     17  O   UNL     1       2.790  -3.225   4.639  0.00  0.00    -0.275 OA
ATOM     18  H   UNL     1       2.707  -6.102   3.525  0.00  0.00    +0.149 HD
BRANCH  15  19
ATOM     19  C   UNL     1       2.698  -4.423   2.226  0.00  0.00    +0.109 C 
BRANCH  19  20
ATOM     20  C   UNL     1       2.647  -5.437   1.082  0.00  0.00    +0.054 C 
BRANCH  20  26
ATOM     21  C   UNL     1       0.074  -3.487  -2.743  0.00  0.00    +0.044 C 
ATOM     22  C   UNL     1       1.390  -3.775  -2.066  0.00  0.00    -0.050 A 
ATOM     23  C   UNL     1       2.573  -3.369  -2.655  0.00  0.00    +0.003 A 
ATOM     24  C   UNL     1       3.780  -3.632  -2.034  0.00  0.00    +0.004 A 
ATOM     25  C   UNL     1       3.804  -4.302  -0.825  0.00  0.00    -0.047 A 
ATOM     26  C   UNL     1       2.621  -4.707  -0.236  0.00  0.00    -0.043 A 
ATOM     27  C   UNL     1       1.413  -4.439  -0.855  0.00  0.00    +0.007 A 
ATOM     28  C   UNL     1       5.119  -4.590  -0.149  0.00  0.00    +0.044 C 
ENDBRANCH  20  26
ENDBRANCH  19  20
ENDBRANCH  15  19
ENDBRANCH   1  16
BRANCH  11  29
ATOM     29  C   UNL     1       1.377  -4.434   9.975  0.00  0.00    +0.261 C 
BRANCH  29  30
ATOM     30  C   UNL     1       1.031  -2.968   9.708  0.00  0.00    +0.033 C 
ATOM     31  C   UNL     1      -0.419  -2.703  10.119  0.00  0.00    +0.011 C 
ATOM     32  C   UNL     1       1.964  -2.067  10.520  0.00  0.00    +0.011 C 
ENDBRANCH  29  30
BRANCH  29  33
ATOM     33  O   UNL     1       1.218  -4.715  11.367  0.00  0.00    -0.479 OA
BRANCH  33  34
ATOM     34  C   UNL     1       0.015  -5.207  11.763  0.00  0.00    +0.122 A 
ATOM     35  C   UNL     1      -0.963  -5.493  10.822  0.00  0.00    +0.045 A 
ATOM     36  C   UNL     1      -2.186  -5.993  11.227  0.00  0.00    +0.004 A 
ATOM     37  C   UNL     1      -2.435  -6.208  12.570  0.00  0.00    +0.000 A 
ATOM     38  C   UNL     1      -1.462  -5.923  13.511  0.00  0.00    +0.004 A 
ATOM     39  C   UNL     1      -0.236  -5.428  13.110  0.00  0.00    +0.045 A 
ENDBRANCH  33  34
ENDBRANCH  29  33
ENDBRANCH  11  29
TORSDOF 8
