REMARK  Name = ZINC51683034
REMARK  6 active torsions:
REMARK  status: ('A' for Active; 'I' for Inactive)
REMARK    1  A    between atoms: C_1  and  C_2
REMARK    2  A    between atoms: C_6  and  C_24
REMARK    3  A    between atoms: C_8  and  N_11
REMARK    4  A    between atoms: C_18  and  C_21
REMARK    5  A    between atoms: C_24  and  C_25
REMARK    6  A    between atoms: C_24  and  C_26
REMARK                            x       y       z     vdW  Elec       q    Type
REMARK                         _______ _______ _______ _____ _____    ______ ____
ROOT
ATOM      1  N   UNL     1       1.666  -2.268   2.447  0.00  0.00    -0.296 N 
ATOM      2  C   UNL     1       3.005  -2.130   2.385  0.00  0.00    +0.303 C 
ATOM      3  O   UNL     1       3.525  -1.690   1.377  0.00  0.00    -0.253 OA
ATOM      4  N   UNL     1       3.768  -2.480   3.439  0.00  0.00    -0.281 N 
ATOM      5  C   UNL     1       5.237  -2.444   3.356  0.00  0.00    +0.137 C 
ATOM      6  C   UNL     1       5.770  -1.661   4.561  0.00  0.00    +0.180 C 
ATOM      7  O   UNL     1       5.215  -2.206   5.760  0.00  0.00    -0.364 OA
ATOM      8  C   UNL     1       3.792  -2.102   5.846  0.00  0.00    +0.221 C 
ATOM      9  C   UNL     1       3.157  -2.903   4.709  0.00  0.00    +0.150 C 
ATOM     10  H   UNL     1       1.245  -2.551   3.274  0.00  0.00    +0.151 HD
ENDROOT
BRANCH   1  16
ATOM     11  C   UNL     1      -0.429   1.319  -0.234  0.00  0.00    +0.007 C 
ATOM     12  C   UNL     1      -0.220  -0.191  -0.101  0.00  0.00    -0.012 C 
ATOM     13  C   UNL     1      -1.577  -0.882   0.046  0.00  0.00    +0.004 C 
ATOM     14  C   UNL     1      -1.369  -2.392   0.179  0.00  0.00    +0.006 C 
ATOM     15  C   UNL     1      -0.512  -2.682   1.413  0.00  0.00    +0.012 C 
ATOM     16  C   UNL     1       0.845  -1.990   1.265  0.00  0.00    +0.078 C 
ATOM     17  C   UNL     1       0.637  -0.480   1.133  0.00  0.00    +0.026 C 
BRANCH  15  18
ATOM     18  C   UNL     1      -0.303  -4.191   1.546  0.00  0.00    -0.012 C 
ATOM     19  C   UNL     1      -1.647  -4.870   1.822  0.00  0.00    +0.007 C 
ATOM     20  C   UNL     1       0.288  -4.741   0.246  0.00  0.00    +0.007 C 
ENDBRANCH  15  18
ENDBRANCH   1  16
BRANCH   8  21
ATOM     21  C   UNL     1       3.327  -2.648   7.171  0.00  0.00    +0.241 C 
ATOM     22  O   UNL     1       4.122  -3.167   7.926  0.00  0.00    -0.273 OA
ATOM     23  N   UNL     1       2.027  -2.561   7.517  0.00  0.00    -0.327 N 
ATOM     24  H   UNL     1       1.391  -2.147   6.913  0.00  0.00    +0.145 HD
ATOM     25  H   UNL     1       1.728  -2.913   8.370  0.00  0.00    +0.145 HD
ENDBRANCH   8  21
TORSDOF 3
