REMARK  Name = ZINC07050498
REMARK  8 active torsions:
REMARK  status: ('A' for Active; 'I' for Inactive)
REMARK    1  A    between atoms: C_1  and  C_2
REMARK    2  A    between atoms: C_3  and  C_25
REMARK    3  A    between atoms: C_4  and  C_24
REMARK    4  A    between atoms: C_5  and  S_10
REMARK    5  A    between atoms: C_6  and  C_9
REMARK    6  A    between atoms: C_7  and  C_8
REMARK    7  A    between atoms: S_10  and  N_13
REMARK    8  A    between atoms: N_13  and  C_14
REMARK                            x       y       z     vdW  Elec       q    Type
REMARK                         _______ _______ _______ _____ _____    ______ ____
ROOT
ATOM      1  S   UNL     1       6.591  -2.404  -1.272  0.00  0.00    +0.073 S 
ATOM      2  O   UNL     1       7.950  -2.808  -1.359  0.00  0.00    -0.150 OA
ATOM      3  O   UNL     1       5.538  -3.323  -1.016  0.00  0.00    -0.150 OA
ENDROOT
BRANCH   1   8
ATOM      4  C   UNL     1       5.269   0.322  -6.490  0.00  0.00    +0.044 C 
ATOM      5  C   UNL     1       5.599  -0.359  -5.187  0.00  0.00    -0.044 A 
ATOM      6  C   UNL     1       6.861  -0.227  -4.639  0.00  0.00    -0.043 A 
ATOM      7  C   UNL     1       7.164  -0.852  -3.443  0.00  0.00    -0.020 A 
ATOM      8  C   UNL     1       6.205  -1.608  -2.796  0.00  0.00    +0.115 A 
ATOM      9  C   UNL     1       4.944  -1.744  -3.347  0.00  0.00    -0.020 A 
ATOM     10  C   UNL     1       4.640  -1.115  -4.540  0.00  0.00    -0.043 A 
ATOM     11  C   UNL     1       3.264  -1.258  -5.137  0.00  0.00    +0.044 C 
ATOM     12  C   UNL     1       3.900  -2.573  -2.644  0.00  0.00    +0.046 C 
ATOM     13  C   UNL     1       8.540  -0.709  -2.846  0.00  0.00    +0.046 C 
ATOM     14  C   UNL     1       7.907   0.597  -5.344  0.00  0.00    +0.044 C 
ENDBRANCH   1   8
BRANCH   1  15
ATOM     15  N   UNL     1       6.514  -1.253  -0.085  0.00  0.00    -0.216 N 
ATOM     16  H   UNL     1       7.316  -0.999   0.397  0.00  0.00    +0.174 HD
BRANCH  15  17
ATOM     17  C   UNL     1       5.293  -0.648   0.223  0.00  0.00    +0.050 A 
ATOM     18  C   UNL     1       4.154  -1.436   0.398  0.00  0.00    +0.025 A 
ATOM     19  C   UNL     1       2.954  -0.863   0.699  0.00  0.00    +0.013 A 
ATOM     20  C   UNL     1       2.860   0.527   0.835  0.00  0.00    +0.020 A 
ATOM     21  C   UNL     1       1.764   1.441   1.142  0.00  0.00    +0.142 A 
ATOM     22  N   UNL     1       2.243   2.651   1.142  0.00  0.00    -0.181 NA
ATOM     23  N   UNL     1       3.611   2.627   0.851  0.00  0.00    -0.277 N 
ATOM     24  H   UNL     1       4.206   3.428   0.792  0.00  0.00    +0.189 HD
ATOM     25  C   UNL     1       4.005   1.328   0.660  0.00  0.00    +0.068 A 
ATOM     26  C   UNL     1       5.222   0.727   0.353  0.00  0.00    +0.052 A 
ENDBRANCH  15  17
ENDBRANCH   1  15
TORSDOF 3
