REMARK  Name = ZINC62497094
REMARK  7 active torsions:
REMARK  status: ('A' for Active; 'I' for Inactive)
REMARK    1  A    between atoms: C_1  and  C_2
REMARK    2  A    between atoms: C_2  and  O_3
REMARK    3  A    between atoms: O_3  and  C_4
REMARK    4  A    between atoms: C_7  and  C_10
REMARK    5  A    between atoms: C_10  and  C_11
REMARK    6  A    between atoms: N_15  and  C_24
REMARK    7  A    between atoms: C_18  and  O_23
REMARK                            x       y       z     vdW  Elec       q    Type
REMARK                         _______ _______ _______ _____ _____    ______ ____
ROOT
ATOM      1  C   UNL     1       2.431  -6.543   1.092  0.00  0.00    +0.263 C 
ATOM      2  C   UNL     1       2.489  -8.049   1.145  0.00  0.00    +0.261 C 
ATOM      3  O   UNL     1       2.060  -8.707   0.222  0.00  0.00    -0.271 OA
ATOM      4  N   UNL     1       3.022  -8.660   2.224  0.00  0.00    -0.268 N 
ATOM      5  C   UNL     1       3.627  -7.883   3.221  0.00  0.00    +0.082 A 
ATOM      6  C   UNL     1       3.976  -8.448   4.437  0.00  0.00    +0.072 A 
ATOM      7  C   UNL     1       4.561  -7.664   5.420  0.00  0.00    +0.119 A 
ATOM      8  C   UNL     1       4.795  -6.316   5.185  0.00  0.00    +0.049 A 
ATOM      9  C   UNL     1       4.451  -5.752   3.971  0.00  0.00    +0.051 A 
ATOM     10  C   UNL     1       3.873  -6.533   2.985  0.00  0.00    +0.143 A 
ATOM     11  O   UNL     1       3.560  -5.994   1.775  0.00  0.00    -0.477 OA
ATOM     12  C   UNL     1       2.969 -10.119   2.350  0.00  0.00    +0.138 C 
ENDROOT
BRANCH   7  13
ATOM     13  O   UNL     1       4.907  -8.215   6.614  0.00  0.00    -0.507 OA
ATOM     14  H   UNL     1       5.806  -8.569   6.638  0.00  0.00    +0.292 HD
ENDBRANCH   7  13
BRANCH   1  15
ATOM     15  C   UNL     1       1.144  -6.059   1.764  0.00  0.00    +0.089 C 
BRANCH  15  19
ATOM     16  C   UNL     1       0.802  -1.824   1.306  0.00  0.00    +0.121 A 
ATOM     17  C   UNL     1       0.260  -2.673   0.351  0.00  0.00    +0.046 A 
ATOM     18  C   UNL     1       0.372  -4.041   0.502  0.00  0.00    +0.007 A 
ATOM     19  C   UNL     1       1.024  -4.566   1.603  0.00  0.00    -0.043 A 
ATOM     20  C   UNL     1       1.565  -3.722   2.555  0.00  0.00    +0.007 A 
ATOM     21  C   UNL     1       1.460  -2.353   2.406  0.00  0.00    +0.046 A 
BRANCH  16  22
ATOM     22  O   UNL     1       0.693  -0.477   1.160  0.00  0.00    -0.492 OA
BRANCH  22  24
ATOM     23  C   UNL     1      -0.019   1.526   0.010  0.00  0.00    +0.048 C 
ATOM     24  C   UNL     1       0.002  -0.004   0.002  0.00  0.00    +0.225 C 
ENDBRANCH  22  24
ENDBRANCH  16  22
ENDBRANCH  15  19
ENDBRANCH   1  15
TORSDOF 5
