REMARK  Name = ZINC21232507
REMARK  12 active torsions:
REMARK  status: ('A' for Active; 'I' for Inactive)
REMARK    1  A    between atoms: C_1  and  C_2
REMARK    2  A    between atoms: C_2  and  C_3
REMARK    3  A    between atoms: C_2  and  O_4
REMARK    4  A    between atoms: O_4  and  C_5
REMARK    5  A    between atoms: C_8  and  C_11
REMARK    6  A    between atoms: C_16  and  C_26
REMARK    7  A    between atoms: C_30  and  O_36
REMARK    8  A    between atoms: C_31  and  O_32
REMARK    9  A    between atoms: O_32  and  C_33
REMARK   10  A    between atoms: C_33  and  C_34
REMARK   11  A    between atoms: C_33  and  C_35
REMARK   12  A    between atoms: O_36  and  C_37
REMARK                            x       y       z     vdW  Elec       q    Type
REMARK                         _______ _______ _______ _____ _____    ______ ____
ROOT
ATOM      1  C   UNL     1      -6.466   2.614   1.214  0.00  0.00    +0.032 C 
ATOM      2  C   UNL     1      -6.385   3.558   0.015  0.00  0.00    +0.059 C 
ATOM      3  C   UNL     1      -7.769   4.093  -0.317  0.00  0.00    +0.017 C 
ATOM      4  C   UNL     1      -8.858   3.333  -0.114  0.00  0.00    +0.037 C 
ATOM      5  C   UNL     1     -10.283   3.728  -0.419  0.00  0.00    +0.140 C 
ATOM      6  N   UNL     1     -10.464   5.132  -0.724  0.00  0.00    -0.331 N 
ATOM      7  C   UNL     1      -9.886   5.702  -1.857  0.00  0.00    +0.049 A 
ATOM      8  C   UNL     1     -10.661   6.200  -2.892  0.00  0.00    +0.025 A 
ATOM      9  C   UNL     1     -10.041   6.716  -4.018  0.00  0.00    +0.002 A 
ATOM     10  C   UNL     1      -8.662   6.731  -4.113  0.00  0.00    +0.002 A 
ATOM     11  C   UNL     1      -7.885   6.249  -3.073  0.00  0.00    +0.025 A 
ATOM     12  C   UNL     1      -8.502   5.753  -1.938  0.00  0.00    +0.052 A 
ATOM     13  N   UNL     1      -7.784   5.354  -0.817  0.00  0.00    -0.316 N 
ATOM     14  C   UNL     1      -8.729   2.035   0.435  0.00  0.00    +0.163 C 
ATOM     15  O   UNL     1      -9.730   1.361   0.586  0.00  0.00    -0.292 OA
ATOM     16  C   UNL     1      -7.404   1.461   0.837  0.00  0.00    +0.088 C 
ATOM     17  H   UNL     1     -11.065   5.767  -0.057  0.00  0.00    +0.147 HD
ATOM     18  H   UNL     1      -7.198   6.147  -0.329  0.00  0.00    +0.152 HD
ENDROOT
BRANCH   1  22
ATOM     19  C   UNL     1      -2.580   1.083   2.117  0.00  0.00    +0.121 A 
ATOM     20  C   UNL     1      -3.145   0.853   0.871  0.00  0.00    +0.046 A 
ATOM     21  C   UNL     1      -4.404   1.345   0.583  0.00  0.00    +0.007 A 
ATOM     22  C   UNL     1      -5.096   2.074   1.532  0.00  0.00    -0.043 A 
ATOM     23  C   UNL     1      -4.532   2.310   2.773  0.00  0.00    +0.007 A 
ATOM     24  C   UNL     1      -3.276   1.816   3.067  0.00  0.00    +0.046 A 
BRANCH  19  25
ATOM     25  O   UNL     1      -1.344   0.597   2.404  0.00  0.00    -0.489 OA
BRANCH  25  27
ATOM     26  C   UNL     1      -1.064  -1.498   1.232  0.00  0.00    +0.051 C 
ATOM     27  C   UNL     1      -0.631  -0.034   1.338  0.00  0.00    +0.167 C 
ATOM     28  C   UNL     1       0.871   0.034   1.619  0.00  0.00    +0.051 C 
ENDBRANCH  25  27
ENDBRANCH  19  25
ENDBRANCH   1  22
BRANCH   5  29
ATOM     29  C   UNL     1     -10.761   2.920  -1.598  0.00  0.00    +0.023 A 
ATOM     30  C   UNL     1     -10.202   3.122  -2.846  0.00  0.00    +0.009 A 
ATOM     31  C   UNL     1     -10.634   2.379  -3.929  0.00  0.00    +0.004 A 
ATOM     32  C   UNL     1     -11.634   1.438  -3.770  0.00  0.00    +0.049 A 
ATOM     33  C   UNL     1     -12.202   1.235  -2.523  0.00  0.00    +0.162 A 
ATOM     34  C   UNL     1     -11.764   1.979  -1.432  0.00  0.00    +0.168 A 
BRANCH  33  35
ATOM     35  O   UNL     1     -13.187   0.310  -2.366  0.00  0.00    -0.491 OA
ATOM     36  C   UNL     1     -13.587  -0.417  -3.530  0.00  0.00    +0.277 C 
ENDBRANCH  33  35
BRANCH  34  37
ATOM     37  O   UNL     1     -12.319   1.783  -0.206  0.00  0.00    -0.485 OA
BRANCH  37  38
ATOM     38  C   UNL     1     -13.459   2.578   0.124  0.00  0.00    +0.168 C 
ATOM     39  C   UNL     1     -14.732   1.850  -0.311  0.00  0.00    +0.051 C 
ATOM     40  C   UNL     1     -13.497   2.812   1.636  0.00  0.00    +0.051 C 
ENDBRANCH  37  38
ENDBRANCH  34  37
ENDBRANCH   5  29
TORSDOF 7
