REMARK  Name = ZINC00904139
REMARK  5 active torsions:
REMARK  status: ('A' for Active; 'I' for Inactive)
REMARK    1  A    between atoms: C_1  and  C_2
REMARK    2  A    between atoms: C_7  and  C_19
REMARK    3  A    between atoms: C_8  and  N_11
REMARK    4  A    between atoms: N_11  and  C_12
REMARK    5  A    between atoms: C_12  and  C_13
REMARK                            x       y       z     vdW  Elec       q    Type
REMARK                         _______ _______ _______ _____ _____    ______ ____
ROOT
ATOM      1  C   UNL     1      -0.027   1.020   0.029  0.00  0.00    +0.045 C 
ATOM      2  C   UNL     1      -0.730   1.517   1.266  0.00  0.00    -0.034 A 
ATOM      3  C   UNL     1      -2.120   1.730   1.243  0.00  0.00    +0.008 A 
ATOM      4  C   UNL     1      -2.754   2.173   2.360  0.00  0.00    +0.047 A 
ATOM      5  C   UNL     1      -2.004   2.425   3.529  0.00  0.00    +0.140 A 
ATOM      6  N   UNL     1      -2.355   2.855   4.729  0.00  0.00    -0.226 NA
ATOM      7  C   UNL     1      -1.262   2.933   5.511  0.00  0.00    +0.112 A 
ATOM      8  C   UNL     1      -0.174   2.530   4.764  0.00  0.00    +0.131 A 
ATOM      9  N   UNL     1      -0.644   2.212   3.520  0.00  0.00    -0.287 N 
ATOM     10  C   UNL     1      -0.022   1.760   2.387  0.00  0.00    +0.097 A 
ENDROOT
BRANCH   7  11
ATOM     11  C   UNL     1      -1.232   3.372   6.924  0.00  0.00    +0.007 A 
ATOM     12  C   UNL     1      -0.350   2.788   7.840  0.00  0.00    +0.030 A 
ATOM     13  C   UNL     1      -0.352   3.231   9.146  0.00  0.00    +0.111 A 
ATOM     14  N   UNL     1      -1.178   4.183   9.537  0.00  0.00    -0.263 NA
ATOM     15  C   UNL     1      -2.030   4.756   8.707  0.00  0.00    +0.111 A 
ATOM     16  C   UNL     1      -2.091   4.378   7.383  0.00  0.00    +0.030 A 
ENDBRANCH   7  11
BRANCH   8  17
ATOM     17  N   UNL     1       1.149   2.461   5.194  0.00  0.00    -0.326 N 
ATOM     18  H   UNL     1       1.223   1.940   6.055  0.00  0.00    +0.148 HD
BRANCH  17  19
ATOM     19  C   UNL     1       2.012   1.883   4.154  0.00  0.00    +0.134 C 
BRANCH  19  20
ATOM     20  C   UNL     1       3.425   1.695   4.710  0.00  0.00    +0.135 C 
ATOM     21  C   UNL     1       4.338   1.090   3.626  0.00  0.00    +0.035 C 
ATOM     22  C   UNL     1       5.476   2.127   3.465  0.00  0.00    +0.031 C 
ATOM     23  C   UNL     1       5.398   2.904   4.804  0.00  0.00    +0.160 C 
ATOM     24  O   UNL     1       3.981   2.970   5.073  0.00  0.00    -0.375 OA
ENDBRANCH  19  20
ENDBRANCH  17  19
ENDBRANCH   8  17
TORSDOF 4
