REMARK  Name = ZINC09138016
REMARK  7 active torsions:
REMARK  status: ('A' for Active; 'I' for Inactive)
REMARK    1  A    between atoms: C_1  and  N_2
REMARK    2  A    between atoms: C_10  and  C_12
REMARK    3  A    between atoms: C_12  and  C_14
REMARK    4  A    between atoms: C_12  and  N_66
REMARK    5  A    between atoms: C_14  and  N_15
REMARK    6  A    between atoms: C_16  and  C_18
REMARK    7  A    between atoms: C_18  and  N_19
REMARK                            x       y       z     vdW  Elec       q    Type
REMARK                         _______ _______ _______ _____ _____    ______ ____
ROOT
ATOM      1  C   UNL     1       0.143  -3.859   2.919  0.00  0.00    -0.020 C 
ENDROOT
BRANCH   1  11
ATOM      2  C   UNL     1      -2.193  -6.291   8.263  0.00  0.00    +0.129 C 
ATOM      3  N   UNL     1      -0.881  -5.634   8.211  0.00  0.00    -0.333 N 
ATOM      4  C   UNL     1       0.157  -6.485   8.797  0.00  0.00    +0.105 C 
ATOM      5  C   UNL     1       1.504  -5.761   8.691  0.00  0.00    +0.024 C 
ATOM      6  C   UNL     1       1.887  -5.693   7.210  0.00  0.00    +0.038 C 
ATOM      7  C   UNL     1       0.705  -5.219   6.402  0.00  0.00    -0.026 A 
ATOM      8  C   UNL     1      -0.581  -5.219   6.914  0.00  0.00    +0.033 A 
ATOM      9  C   UNL     1      -1.637  -4.779   6.115  0.00  0.00    +0.023 A 
ATOM     10  C   UNL     1      -1.403  -4.342   4.828  0.00  0.00    +0.004 A 
ATOM     11  C   UNL     1      -0.115  -4.339   4.324  0.00  0.00    -0.059 A 
ATOM     12  C   UNL     1       0.932  -4.782   5.107  0.00  0.00    +0.007 A 
ENDBRANCH   1  11
BRANCH   1  18
ATOM     13  C   UNL     1      -1.018  -5.804   2.065  0.00  0.00    -0.078 C 
ATOM     14  C   UNL     1      -2.230  -6.258   1.248  0.00  0.00    -0.019 C 
ATOM     15  C   UNL     1      -2.079  -5.769  -0.195  0.00  0.00    -0.004 C 
ATOM     16  C   UNL     1      -1.936  -4.245  -0.197  0.00  0.00    -0.019 C 
ATOM     17  C   UNL     1      -0.733  -3.849   0.662  0.00  0.00    -0.078 C 
ATOM     18  N   UNL     1      -0.951  -4.327   2.044  0.00  0.00    +0.385 N 
ATOM     19  H   UNL     1      -1.840  -3.948   2.390  0.00  0.00    -0.081 HD
ENDBRANCH   1  18
BRANCH   1  20
ATOM     20  C   UNL     1       0.174  -2.330   2.900  0.00  0.00    +0.093 C 
BRANCH  20  21
ATOM     21  N   UNL     1       1.293  -1.853   3.716  0.00  0.00    -0.315 N 
ATOM     22  C   UNL     1       1.455  -0.533   3.933  0.00  0.00    +0.231 C 
ATOM     23  O   UNL     1       0.674   0.261   3.453  0.00  0.00    -0.274 OA
ATOM     24  H   UNL     1       1.918  -2.488   4.100  0.00  0.00    +0.149 HD
BRANCH  22  25
ATOM     25  C   UNL     1       2.606  -0.043   4.773  0.00  0.00    +0.212 C 
BRANCH  25  26
ATOM     26  N   UNL     1       2.561   1.419   4.858  0.00  0.00    -0.225 N 
ATOM     27  C   UNL     1       3.175   2.251   3.997  0.00  0.00    +0.254 C 
ATOM     28  O   UNL     1       3.843   1.914   3.041  0.00  0.00    -0.270 OA
ATOM     29  C   UNL     1       2.897   3.643   4.408  0.00  0.00    +0.049 A 
ATOM     30  C   UNL     1       3.254   4.887   3.914  0.00  0.00    +0.014 A 
ATOM     31  C   UNL     1       2.817   6.034   4.559  0.00  0.00    +0.001 A 
ATOM     32  C   UNL     1       2.029   5.944   5.691  0.00  0.00    +0.001 A 
ATOM     33  C   UNL     1       1.664   4.706   6.197  0.00  0.00    +0.014 A 
ATOM     34  C   UNL     1       2.093   3.551   5.562  0.00  0.00    +0.049 A 
ATOM     35  C   UNL     1       1.906   2.106   5.811  0.00  0.00    +0.254 C 
ATOM     36  O   UNL     1       1.267   1.621   6.722  0.00  0.00    -0.270 OA
ENDBRANCH  25  26
ENDBRANCH  22  25
ENDBRANCH  20  21
ENDBRANCH   1  20
TORSDOF 6
