REMARK  Name = ZINC32396868
REMARK  4 active torsions:
REMARK  status: ('A' for Active; 'I' for Inactive)
REMARK    1  A    between atoms: C_3  and  C_6
REMARK    2  A    between atoms: C_6  and  C_8
REMARK    3  A    between atoms: C_6  and  N_13
REMARK    4  A    between atoms: C_14  and  C_16
REMARK                            x       y       z     vdW  Elec       q    Type
REMARK                         _______ _______ _______ _____ _____    ______ ____
ROOT
ATOM      1  N   UNL     1       3.293   2.251   0.793  0.00  0.00    -0.304 N 
ATOM      2  C   UNL     1       4.518   1.954   1.271  0.00  0.00    +0.245 C 
ATOM      3  O   UNL     1       5.056   0.910   0.956  0.00  0.00    -0.270 OA
ATOM      4  H   UNL     1       2.840   3.229   1.013  0.00  0.00    +0.150 HD
ENDROOT
BRANCH   2   5
ATOM      5  C   UNL     1       5.205   2.895   2.177  0.00  0.00    +0.040 A 
ATOM      6  C   UNL     1       4.590   4.097   2.535  0.00  0.00    +0.017 A 
ATOM      7  C   UNL     1       5.229   4.974   3.385  0.00  0.00    +0.050 A 
ATOM      8  C   UNL     1       6.490   4.666   3.876  0.00  0.00    +0.162 A 
ATOM      9  C   UNL     1       7.110   3.474   3.520  0.00  0.00    +0.163 A 
ATOM     10  C   UNL     1       6.476   2.587   2.673  0.00  0.00    +0.062 A 
ATOM     11  O   UNL     1       8.350   3.185   4.013  0.00  0.00    -0.488 OA
ATOM     12  C   UNL     1       9.418   4.006   3.536  0.00  0.00    +0.232 C 
ATOM     13  C   UNL     1       9.517   5.288   4.347  0.00  0.00    +0.082 C 
ATOM     14  C   UNL     1       8.291   6.173   4.183  0.00  0.00    +0.232 C 
ATOM     15  O   UNL     1       7.129   5.532   4.713  0.00  0.00    -0.488 OA
ENDBRANCH   2   5
BRANCH   1  16
ATOM     16  C   UNL     1       2.566   1.272  -0.018  0.00  0.00    +0.113 C 
BRANCH  16  19
ATOM     17  C   UNL     1      -1.239   1.216   0.155  0.00  0.00    +0.008 A 
ATOM     18  C   UNL     1       0.047   0.710   0.125  0.00  0.00    +0.013 A 
ATOM     19  C   UNL     1       1.090   1.571   0.037  0.00  0.00    +0.010 A 
ATOM     20  S   UNL     1       0.261   3.152   0.004  0.00  0.00    -0.100 S 
ATOM     21  C   UNL     1      -1.419   2.558   0.108  0.00  0.00    +0.045 A 
ENDBRANCH  16  19
BRANCH  16  22
ATOM     22  C   UNL     1       3.048   1.352  -1.468  0.00  0.00    +0.014 C 
ATOM     23  C   UNL     1       2.792   2.765  -2.033  0.00  0.00    +0.006 C 
ATOM     24  C   UNL     1       2.386   2.516  -3.507  0.00  0.00    +0.000 C 
ATOM     25  C   UNL     1       1.530   1.228  -3.413  0.00  0.00    +0.000 C 
ATOM     26  C   UNL     1       2.246   0.375  -2.345  0.00  0.00    +0.006 C 
ENDBRANCH  16  22
ENDBRANCH   1  16
TORSDOF 4
