REMARK  Name = ZINC64744009
REMARK  9 active torsions:
REMARK  status: ('A' for Active; 'I' for Inactive)
REMARK    1  A    between atoms: C_1  and  C_2
REMARK    2  A    between atoms: C_2  and  O_3
REMARK    3  A    between atoms: O_3  and  C_4
REMARK    4  A    between atoms: C_7  and  C_10
REMARK    5  A    between atoms: C_10  and  N_11
REMARK    6  A    between atoms: C_12  and  C_14
REMARK    7  A    between atoms: C_14  and  C_16
REMARK    8  A    between atoms: C_14  and  C_17
REMARK    9  A    between atoms: C_23  and  C_25
REMARK                            x       y       z     vdW  Elec       q    Type
REMARK                         _______ _______ _______ _____ _____    ______ ____
ROOT
ATOM      1  C   UNL     1      -2.438  -9.926   3.021  0.00  0.00    +0.004 C 
ATOM      2  C   UNL     1      -1.262 -10.575   2.289  0.00  0.00    +0.023 C 
ATOM      3  C   UNL     1      -1.462 -12.094   2.255  0.00  0.00    +0.108 C 
ATOM      4  N   UNL     1      -1.659 -12.576   3.628  0.00  0.00    -0.300 N 
ATOM      5  C   UNL     1      -2.706 -11.956   4.452  0.00  0.00    +0.108 C 
ATOM      6  C   UNL     1      -2.491 -10.439   4.462  0.00  0.00    +0.023 C 
ATOM      7  C   UNL     1      -0.894 -13.569   4.124  0.00  0.00    +0.242 C 
ATOM      8  O   UNL     1      -0.034 -14.073   3.434  0.00  0.00    -0.273 OA
ENDROOT
BRANCH   7   9
ATOM      9  C   UNL     1      -1.109 -14.053   5.535  0.00  0.00    +0.190 C 
ATOM     10  C   UNL     1      -2.498 -14.631   5.682  0.00  0.00    +0.016 C 
ATOM     11  C   UNL     1      -2.330 -15.925   6.036  0.00  0.00    -0.002 A 
ATOM     12  C   UNL     1      -3.279 -17.008   6.324  0.00  0.00    +0.029 A 
ATOM     13  C   UNL     1      -2.799 -18.229   6.659  0.00  0.00    +0.042 A 
ATOM     14  C   UNL     1      -1.422 -18.483   6.738  0.00  0.00    +0.022 A 
ATOM     15  C   UNL     1      -0.490 -17.539   6.487  0.00  0.00    +0.027 A 
ATOM     16  C   UNL     1      -0.882 -16.220   6.126  0.00  0.00    +0.043 A 
ATOM     17  N   UNL     1      -0.181 -15.148   5.840  0.00  0.00    -0.370 N 
ATOM     18 CL   UNL     1      -3.917 -19.512   7.001  0.00  0.00    -0.084 Cl
ATOM     19  H   UNL     1       0.787 -15.089   5.832  0.00  0.00    +0.161 HD
ENDBRANCH   7   9
BRANCH   1  20
ATOM     20  C   UNL     1      -2.258  -8.406   3.027  0.00  0.00    +0.075 C 
ATOM     21  C   UNL     1      -3.436  -7.756   3.757  0.00  0.00    +0.017 C 
BRANCH  20  23
ATOM     22  N   UNL     1      -2.051  -6.584   1.368  0.00  0.00    -0.311 N 
ATOM     23  C   UNL     1      -2.206  -7.901   1.609  0.00  0.00    +0.216 C 
ATOM     24  O   UNL     1      -2.303  -8.679   0.684  0.00  0.00    -0.276 OA
ATOM     25  H   UNL     1      -1.974  -5.961   2.108  0.00  0.00    +0.149 HD
BRANCH  22  26
ATOM     26  C   UNL     1      -2.001  -6.092  -0.011  0.00  0.00    +0.139 C 
BRANCH  26  30
ATOM     27  C   UNL     1      -1.498  -1.848   0.006  0.00  0.00    +0.121 A 
ATOM     28  C   UNL     1      -0.388  -2.679  -0.003  0.00  0.00    +0.046 A 
ATOM     29  C   UNL     1      -0.553  -4.051  -0.008  0.00  0.00    +0.009 A 
ATOM     30  C   UNL     1      -1.823  -4.596  -0.005  0.00  0.00    -0.030 A 
ATOM     31  C   UNL     1      -2.932  -3.769   0.004  0.00  0.00    +0.009 A 
ATOM     32  C   UNL     1      -2.772  -2.397   0.016  0.00  0.00    +0.046 A 
BRANCH  27  33
ATOM     33  O   UNL     1      -1.339  -0.499   0.012  0.00  0.00    -0.492 OA
BRANCH  33  35
ATOM     34  C   UNL     1      -0.019   1.526   0.010  0.00  0.00    +0.048 C 
ATOM     35  C   UNL     1       0.002  -0.004   0.002  0.00  0.00    +0.225 C 
ENDBRANCH  33  35
ENDBRANCH  27  33
ENDBRANCH  26  30
ENDBRANCH  22  26
ENDBRANCH  20  23
ENDBRANCH   1  20
TORSDOF 7
