REMARK  Name = ZINC55104725
REMARK  6 active torsions:
REMARK  status: ('A' for Active; 'I' for Inactive)
REMARK    1  A    between atoms: C_1  and  O_2
REMARK    2  A    between atoms: O_2  and  C_3
REMARK    3  A    between atoms: C_7  and  C_10
REMARK    4  A    between atoms: C_8  and  O_9
REMARK    5  A    between atoms: C_19  and  N_23
REMARK    6  A    between atoms: C_20  and  C_21
REMARK                            x       y       z     vdW  Elec       q    Type
REMARK                         _______ _______ _______ _____ _____    ______ ____
ROOT
ATOM      1  C   UNL     1      -2.549  -4.175   0.017  0.00  0.00    +0.102 C 
ATOM      2  C   UNL     1      -3.282  -4.643  -1.213  0.00  0.00    +0.011 A 
ATOM      3  C   UNL     1      -2.636  -4.628  -2.437  0.00  0.00    +0.057 A 
ATOM      4  C   UNL     1      -3.293  -5.054  -3.578  0.00  0.00    +0.167 A 
ATOM      5  C   UNL     1      -4.610  -5.500  -3.494  0.00  0.00    +0.170 A 
ATOM      6  C   UNL     1      -5.256  -5.513  -2.270  0.00  0.00    +0.096 A 
ATOM      7  C   UNL     1      -4.593  -5.084  -1.127  0.00  0.00    +0.138 A 
ATOM      8  O   UNL     1      -5.243  -5.103   0.064  0.00  0.00    -0.441 OA
ATOM      9  C   UNL     1      -4.544  -5.073   1.210  0.00  0.00    +0.199 C 
ATOM     10  C   UNL     1      -3.263  -4.643   1.253  0.00  0.00    +0.098 C 
ATOM     11  O   UNL     1      -5.029  -5.862  -4.742  0.00  0.00    -0.452 OA
ATOM     12  C   UNL     1      -4.096  -5.250  -5.653  0.00  0.00    +0.466 C 
ATOM     13  O   UNL     1      -2.887  -5.137  -4.880  0.00  0.00    -0.453 OA
ENDROOT
BRANCH   1  18
ATOM     14  C   UNL     1      -1.201  -0.638   0.010  0.00  0.00    +0.162 A 
ATOM     15  C   UNL     1      -2.374   0.099   0.019  0.00  0.00    +0.049 A 
ATOM     16  C   UNL     1      -3.596  -0.546   0.027  0.00  0.00    +0.004 A 
ATOM     17  C   UNL     1      -3.652  -1.928   0.026  0.00  0.00    +0.008 A 
ATOM     18  C   UNL     1      -2.485  -2.669   0.017  0.00  0.00    +0.010 A 
ATOM     19  C   UNL     1      -1.257  -2.028   0.003  0.00  0.00    +0.163 A 
BRANCH  14  21
ATOM     20  C   UNL     1      -0.017   1.425   0.010  0.00  0.00    +0.277 C 
ATOM     21  O   UNL     1       0.002  -0.004   0.002  0.00  0.00    -0.491 OA
ENDBRANCH  14  21
BRANCH  19  22
ATOM     22  O   UNL     1      -0.108  -2.756  -0.012  0.00  0.00    -0.503 OA
ATOM     23  H   UNL     1       0.232  -2.972   0.867  0.00  0.00    +0.292 HD
ENDBRANCH  19  22
ENDBRANCH   1  18
BRANCH   9  24
ATOM     24  N   UNL     1      -5.148  -5.489   2.370  0.00  0.00    -0.328 N 
ATOM     25  H   UNL     1      -6.067  -5.799   2.355  0.00  0.00    +0.145 HD
ATOM     26  H   UNL     1      -4.656  -5.473   3.206  0.00  0.00    +0.145 HD
ENDBRANCH   9  24
BRANCH  10  27
ATOM     27  C   UNL     1      -2.573  -4.635   2.508  0.00  0.00    +0.101 C 
ATOM     28  N   UNL     1      -2.025  -4.629   3.503  0.00  0.00    -0.191 NA
ENDBRANCH  10  27
TORSDOF 5
