REMARK  Name = ZINC13734819
REMARK  13 active torsions:
REMARK  status: ('A' for Active; 'I' for Inactive)
REMARK    1  A    between atoms: C_1  and  C_2
REMARK    2  A    between atoms: C_2  and  N_3
REMARK    3  A    between atoms: N_3  and  C_4
REMARK    4  A    between atoms: C_4  and  C_5
REMARK    5  A    between atoms: C_5  and  C_6
REMARK    6  A    between atoms: C_6  and  N_7
REMARK    7  A    between atoms: N_7  and  C_8
REMARK    8  A    between atoms: C_8  and  C_9
REMARK    9  A    between atoms: C_11  and  O_25
REMARK   10  A    between atoms: C_12  and  O_16
REMARK   11  A    between atoms: O_16  and  C_17
REMARK   12  A    between atoms: C_17  and  C_18
REMARK   13  A    between atoms: O_25  and  C_26
REMARK                            x       y       z     vdW  Elec       q    Type
REMARK                         _______ _______ _______ _____ _____    ______ ____
ROOT
ATOM      1  C   UNL     1       2.884  -6.359  -4.984  0.00  0.00    -0.029 A 
ATOM      2  C   UNL     1       2.167  -6.570  -6.147  0.00  0.00    +0.054 A 
ATOM      3  C   UNL     1       2.819  -6.981  -7.298  0.00  0.00    +0.163 A 
ATOM      4  C   UNL     1       4.196  -7.182  -7.281  0.00  0.00    +0.176 A 
ATOM      5  C   UNL     1       4.910  -6.969  -6.112  0.00  0.00    +0.063 A 
ATOM      6  C   UNL     1       4.253  -6.553  -4.967  0.00  0.00    +0.024 A 
ATOM      7 BR   UNL     1       6.781  -7.240  -6.082  0.00  0.00    -0.046 Br
ENDROOT
BRANCH   3   8
ATOM      8  O   UNL     1       2.115  -7.189  -8.443  0.00  0.00    -0.491 OA
ATOM      9  C   UNL     1       0.705  -6.964  -8.387  0.00  0.00    +0.277 C 
ENDBRANCH   3   8
BRANCH   1  10
ATOM     10  C   UNL     1       2.173  -5.912  -3.733  0.00  0.00    +0.116 C 
BRANCH  10  11
ATOM     11  N   UNL     1       2.134  -4.444  -3.691  0.00  0.00    -0.312 NA
ATOM     12  H   UNL     1       1.702  -4.069  -4.522  0.00  0.00    +0.122 HD
BRANCH  11  13
ATOM     13  C   UNL     1       1.446  -3.970  -2.482  0.00  0.00    +0.079 C 
BRANCH  13  14
ATOM     14  C   UNL     1       1.426  -2.440  -2.474  0.00  0.00    -0.004 C 
BRANCH  14  15
ATOM     15  C   UNL     1       0.710  -1.947  -1.215  0.00  0.00    -0.081 C 
BRANCH  15  16
ATOM     16  N   UNL     1       0.690  -0.478  -1.207  0.00  0.00    +0.379 N 
ATOM     17  H   UNL     1       0.202  -0.144  -2.024  0.00  0.00    -0.086 HD
ATOM     18  H   UNL     1       1.636  -0.129  -1.214  0.00  0.00    -0.086 HD
BRANCH  16  20
ATOM     19  C   UNL     1      -0.019   1.526   0.010  0.00  0.00    -0.017 C 
ATOM     20  C   UNL     1       0.002  -0.004   0.002  0.00  0.00    -0.086 C 
ENDBRANCH  16  20
ENDBRANCH  15  16
ENDBRANCH  14  15
ENDBRANCH  13  14
ENDBRANCH  11  13
ENDBRANCH  10  11
ENDBRANCH   1  10
BRANCH   4  21
ATOM     21  O   UNL     1       4.840  -7.587  -8.408  0.00  0.00    -0.483 OA
BRANCH  21  22
ATOM     22  C   UNL     1       5.329  -6.564  -9.278  0.00  0.00    +0.266 C 
BRANCH  22  23
ATOM     23  C   UNL     1       6.009  -7.197 -10.465  0.00  0.00    +0.008 A 
ATOM     24  C   UNL     1       6.072  -8.573 -10.573  0.00  0.00    +0.008 A 
ATOM     25  C   UNL     1       6.695  -9.154 -11.661  0.00  0.00    +0.000 A 
ATOM     26  C   UNL     1       7.256  -8.358 -12.643  0.00  0.00    +0.001 A 
ATOM     27  C   UNL     1       7.193  -6.982 -12.537  0.00  0.00    +0.020 A 
ATOM     28  C   UNL     1       6.564  -6.400 -11.450  0.00  0.00    +0.047 A 
ATOM     29 CL   UNL     1       6.479  -4.671 -11.320  0.00  0.00    -0.083 Cl
ENDBRANCH  22  23
ENDBRANCH  21  22
ENDBRANCH   4  21
TORSDOF 11
