REMARK  Name = ZINC09391634
REMARK  5 active torsions:
REMARK  status: ('A' for Active; 'I' for Inactive)
REMARK    1  A    between atoms: N_15  and  S_17
REMARK    2  A    between atoms: S_17  and  C_20
REMARK    3  A    between atoms: C_23  and  N_26
REMARK    4  A    between atoms: C_27  and  C_29
REMARK    5  A    between atoms: C_29  and  C_30
REMARK                            x       y       z     vdW  Elec       q    Type
REMARK                         _______ _______ _______ _____ _____    ______ ____
ROOT
ATOM      1  S   UNL     1      -2.708   4.162  -9.560  0.00  0.00    +0.061 S 
ATOM      2  O   UNL     1      -3.257   5.374  -9.063  0.00  0.00    -0.153 OA
ATOM      3  O   UNL     1      -1.752   4.134 -10.611  0.00  0.00    -0.153 OA
ENDROOT
BRANCH   1  16
ATOM      4  C   UNL     1      -5.698   7.261 -11.665  0.00  0.00    +0.007 A 
ATOM      5  C   UNL     1      -6.183   6.106 -11.043  0.00  0.00    +0.022 A 
ATOM      6  C   UNL     1      -5.779   4.888 -11.436  0.00  0.00    +0.026 A 
ATOM      7  N   UNL     1      -4.923   4.747 -12.497  0.00  0.00    -0.312 N 
ATOM      8  C   UNL     1      -4.379   5.852 -13.065  0.00  0.00    +0.251 A 
ATOM      9  O   UNL     1      -3.527   5.729 -13.930  0.00  0.00    -0.268 OA
ATOM     10  C   UNL     1      -4.785   7.134 -12.670  0.00  0.00    +0.070 A 
ATOM     11  C   UNL     1      -4.563   3.457 -13.085  0.00  0.00    +0.130 C 
ATOM     12  C   UNL     1      -4.861   2.293 -12.159  0.00  0.00    +0.025 C 
ATOM     13  C   UNL     1      -6.266   2.441 -11.574  0.00  0.00    +0.017 C 
ATOM     14  C   UNL     1      -6.285   3.682 -10.679  0.00  0.00    +0.052 C 
ATOM     15  C   UNL     1      -5.330   3.440  -9.497  0.00  0.00    +0.119 C 
ATOM     16  N   UNL     1      -3.985   3.232 -10.057  0.00  0.00    -0.176 NA
ATOM     17  C   UNL     1      -3.803   2.187 -11.071  0.00  0.00    +0.114 C 
ENDBRANCH   1  16
BRANCH   1  18
ATOM     18  C   UNL     1      -1.970   3.342  -8.187  0.00  0.00    +0.106 A 
ATOM     19  C   UNL     1      -0.957   2.424  -8.394  0.00  0.00    +0.030 A 
ATOM     20  C   UNL     1      -0.377   1.779  -7.319  0.00  0.00    +0.025 A 
ATOM     21  C   UNL     1      -0.812   2.054  -6.029  0.00  0.00    +0.033 A 
ATOM     22  C   UNL     1      -1.833   2.972  -5.825  0.00  0.00    +0.025 A 
ATOM     23  C   UNL     1      -2.406   3.617  -6.903  0.00  0.00    +0.030 A 
BRANCH  21  24
ATOM     24  N   UNL     1      -0.226   1.403  -4.938  0.00  0.00    -0.285 N 
ATOM     25  C   UNL     1       1.088   1.104  -4.957  0.00  0.00    +0.217 C 
ATOM     26  O   UNL     1       1.745   1.324  -5.953  0.00  0.00    -0.275 OA
ATOM     27  H   UNL     1      -0.765   1.166  -4.168  0.00  0.00    +0.155 HD
BRANCH  25  28
ATOM     28  C   UNL     1       1.742   0.497  -3.742  0.00  0.00    +0.099 C 
BRANCH  28  29
ATOM     29  C   UNL     1       3.226   0.259  -4.027  0.00  0.00    -0.002 C 
ATOM     30  C   UNL     1       3.861  -0.470  -2.841  0.00  0.00    +0.004 C 
ATOM     31  C   UNL     1       5.346  -0.709  -3.126  0.00  0.00    +0.000 C 
ATOM     32  C   UNL     1       6.048   0.634  -3.334  0.00  0.00    +0.000 C 
ATOM     33  C   UNL     1       5.412   1.363  -4.520  0.00  0.00    +0.000 C 
ATOM     34  C   UNL     1       3.928   1.602  -4.236  0.00  0.00    +0.004 C 
ENDBRANCH  28  29
ENDBRANCH  25  28
ENDBRANCH  21  24
ENDBRANCH   1  18
TORSDOF 5
