REMARK  Name = ZINC21151691
REMARK  6 active torsions:
REMARK  status: ('A' for Active; 'I' for Inactive)
REMARK    1  A    between atoms: C_1  and  N_2
REMARK    2  A    between atoms: C_6  and  C_7
REMARK    3  A    between atoms: C_7  and  C_9
REMARK    4  A    between atoms: C_7  and  N_20
REMARK    5  A    between atoms: C_9  and  N_10
REMARK    6  A    between atoms: C_11  and  C_13
REMARK                            x       y       z     vdW  Elec       q    Type
REMARK                         _______ _______ _______ _____ _____    ______ ____
ROOT
ATOM      1  C   UNL     1      -6.053   1.968  -0.018  0.00  0.00    +0.121 C 
ENDROOT
BRANCH   1   2
ATOM      2  N   UNL     1      -6.069   2.869  -1.177  0.00  0.00    -0.288 NA
ATOM      3  C   UNL     1      -4.708   3.098  -1.687  0.00  0.00    +0.090 C 
ATOM      4  C   UNL     1      -4.809   3.722  -3.079  0.00  0.00    +0.051 C 
ATOM      5  C   UNL     1      -5.743   4.905  -3.045  0.00  0.00    -0.042 A 
ATOM      6  C   UNL     1      -5.702   5.810  -4.095  0.00  0.00    +0.004 A 
ATOM      7  C   UNL     1      -6.546   6.902  -4.107  0.00  0.00    +0.000 A 
ATOM      8  C   UNL     1      -7.438   7.094  -3.067  0.00  0.00    +0.000 A 
ATOM      9  C   UNL     1      -7.478   6.195  -2.021  0.00  0.00    +0.005 A 
ATOM     10  C   UNL     1      -6.629   5.098  -2.007  0.00  0.00    -0.030 A 
ATOM     11  C   UNL     1      -6.707   4.146  -0.842  0.00  0.00    +0.120 C 
ENDBRANCH   1   2
BRANCH   1  17
ATOM     12  C   UNL     1      -6.942   0.199   2.368  0.00  0.00    +0.148 C 
ATOM     13  N   UNL     1      -7.835   0.732   1.337  0.00  0.00    -0.352 N 
ATOM     14  C   UNL     1      -9.183   0.535   1.273  0.00  0.00    +0.085 A 
ATOM     15  C   UNL     1      -9.652   1.176   0.183  0.00  0.00    +0.019 A 
ATOM     16  C   UNL     1      -8.555   1.796  -0.446  0.00  0.00    +0.024 A 
ATOM     17  C   UNL     1      -7.457   1.511   0.283  0.00  0.00    +0.037 A 
ENDBRANCH   1  17
BRANCH   1  18
ATOM     18  C   UNL     1      -5.176   0.753  -0.328  0.00  0.00    +0.129 C 
BRANCH  18  19
ATOM     19  N   UNL     1      -5.640   0.120  -1.565  0.00  0.00    -0.309 N 
ATOM     20  C   UNL     1      -4.956  -0.916  -2.090  0.00  0.00    +0.244 C 
ATOM     21  O   UNL     1      -3.954  -1.326  -1.536  0.00  0.00    -0.270 OA
ATOM     22  H   UNL     1      -6.547   0.490  -2.067  0.00  0.00    +0.149 HD
BRANCH  20  23
ATOM     23  C   UNL     1      -5.424  -1.555  -3.338  0.00  0.00    +0.038 A 
ATOM     24  C   UNL     1      -4.718  -2.629  -3.884  0.00  0.00    +0.013 A 
ATOM     25  C   UNL     1      -5.162  -3.224  -5.046  0.00  0.00    +0.002 A 
ATOM     26  C   UNL     1      -6.303  -2.756  -5.674  0.00  0.00    +0.015 A 
ATOM     27  C   UNL     1      -7.006  -1.689  -5.141  0.00  0.00    +0.019 A 
ATOM     28  C   UNL     1      -6.571  -1.085  -3.978  0.00  0.00    +0.028 A 
ATOM     29 BR   UNL     1      -8.563  -1.058  -6.008  0.00  0.00    -0.050 Br
ENDBRANCH  20  23
ENDBRANCH  18  19
ENDBRANCH   1  18
TORSDOF 5
