REMARK  Name = ZINC18348865
REMARK  5 active torsions:
REMARK  status: ('A' for Active; 'I' for Inactive)
REMARK    1  A    between atoms: C_7  and  N_25
REMARK    2  A    between atoms: C_9  and  C_11
REMARK    3  A    between atoms: C_11  and  O_12
REMARK    4  A    between atoms: O_12  and  C_13
REMARK    5  A    between atoms: C_13  and  C_15
REMARK                            x       y       z     vdW  Elec       q    Type
REMARK                         _______ _______ _______ _____ _____    ______ ____
ROOT
ATOM      1  C   UNL     1      -2.365   4.284   0.037  0.00  0.00    +0.308 C 
ENDROOT
BRANCH   1  10
ATOM      2  C   UNL     1      -1.085  10.403  -1.138  0.00  0.00    +0.001 A 
ATOM      3  C   UNL     1      -1.237   9.716  -2.340  0.00  0.00    +0.002 A 
ATOM      4  C   UNL     1      -1.517   8.383  -2.357  0.00  0.00    +0.028 A 
ATOM      5  C   UNL     1      -1.655   7.689  -1.147  0.00  0.00    +0.076 A 
ATOM      6  C   UNL     1      -1.501   8.389   0.075  0.00  0.00    +0.040 A 
ATOM      7  C   UNL     1      -1.213   9.759   0.057  0.00  0.00    +0.013 A 
ATOM      8  C   UNL     1      -1.646   7.666   1.284  0.00  0.00    +0.128 A 
ATOM      9  N   UNL     1      -1.924   6.371   1.209  0.00  0.00    -0.214 NA
ATOM     10  C   UNL     1      -2.055   5.758   0.043  0.00  0.00    +0.169 A 
ATOM     11  N   UNL     1      -1.931   6.377  -1.107  0.00  0.00    -0.228 NA
BRANCH   8  12
ATOM     12  N   UNL     1      -1.506   8.291   2.504  0.00  0.00    -0.343 N 
ATOM     13  H   UNL     1      -1.306   9.239   2.543  0.00  0.00    +0.144 HD
ATOM     14  H   UNL     1      -1.608   7.783   3.324  0.00  0.00    +0.144 HD
ENDBRANCH   8  12
ENDBRANCH   1  10
BRANCH   1  15
ATOM     15  O   UNL     1      -1.126   3.528   0.027  0.00  0.00    -0.451 OA
BRANCH  15  16
ATOM     16  C   UNL     1      -1.228   2.183   0.020  0.00  0.00    +0.375 C 
ATOM     17  O   UNL     1      -2.324   1.657   0.022  0.00  0.00    -0.241 OA
BRANCH  16  18
ATOM     18  C   UNL     1      -0.016   1.355   0.009  0.00  0.00    +0.213 A 
ATOM     19  C   UNL     1       0.002  -0.004   0.002  0.00  0.00    +0.065 A 
ATOM     20  C   UNL     1       1.412  -0.390  -0.013  0.00  0.00    +0.022 A 
ATOM     21  C   UNL     1       2.087  -1.613  -0.027  0.00  0.00    +0.031 A 
ATOM     22  C   UNL     1       3.454  -1.633  -0.041  0.00  0.00    +0.042 A 
ATOM     23  C   UNL     1       4.175  -0.445  -0.042  0.00  0.00    +0.023 A 
ATOM     24  C   UNL     1       3.527   0.771  -0.028  0.00  0.00    +0.048 A 
ATOM     25  C   UNL     1       2.138   0.816  -0.014  0.00  0.00    +0.136 A 
ATOM     26  O   UNL     1       1.248   1.827   0.000  0.00  0.00    -0.448 OA
ATOM     27 CL   UNL     1       4.294  -3.152  -0.058  0.00  0.00    -0.084 Cl
ENDBRANCH  16  18
ENDBRANCH  15  16
ENDBRANCH   1  15
TORSDOF 5
