REMARK  Name = ZINC63514175
REMARK  11 active torsions:
REMARK  status: ('A' for Active; 'I' for Inactive)
REMARK    1  A    between atoms: C_1  and  C_2
REMARK    2  A    between atoms: C_4  and  C_31
REMARK    3  A    between atoms: C_5  and  S_9
REMARK    4  A    between atoms: C_7  and  C_8
REMARK    5  A    between atoms: S_9  and  N_12
REMARK    6  A    between atoms: N_12  and  C_13
REMARK    7  A    between atoms: C_13  and  C_14
REMARK    8  A    between atoms: C_14  and  C_15
REMARK    9  A    between atoms: C_18  and  O_26
REMARK   10  A    between atoms: C_23  and  C_25
REMARK   11  A    between atoms: O_26  and  C_27
REMARK                            x       y       z     vdW  Elec       q    Type
REMARK                         _______ _______ _______ _____ _____    ______ ____
ROOT
ATOM      1  C   UNL     1      -2.203  -6.020  -2.293  0.00  0.00    +0.050 C 
ENDROOT
BRANCH   1   2
ATOM      2  C   UNL     1      -2.333  -5.906  -3.790  0.00  0.00    -0.037 C 
ATOM      3  C   UNL     1      -1.558  -5.171  -4.619  0.00  0.00    +0.003 A 
ATOM      4  C   UNL     1      -0.407  -4.291  -4.387  0.00  0.00    +0.056 A 
ATOM      5  C   UNL     1       0.181  -3.671  -5.438  0.00  0.00    +0.131 A 
ATOM      6  C   UNL     1      -0.272  -3.840  -6.759  0.00  0.00    +0.048 A 
ATOM      7  C   UNL     1      -1.322  -4.629  -7.072  0.00  0.00    +0.029 A 
ATOM      8  C   UNL     1      -2.034  -5.348  -6.011  0.00  0.00    +0.043 A 
ATOM      9  N   UNL     1      -3.061  -6.160  -6.040  0.00  0.00    -0.378 N 
ATOM     10  C   UNL     1      -3.351  -6.596  -4.669  0.00  0.00    +0.103 C 
ATOM     11  C   UNL     1      -3.205  -8.115  -4.554  0.00  0.00    +0.035 C 
ATOM     12  H   UNL     1      -3.547  -6.430  -6.835  0.00  0.00    +0.160 HD
BRANCH   5  13
ATOM     13  O   UNL     1       1.246  -2.858  -5.209  0.00  0.00    -0.406 OA
BRANCH  13  14
ATOM     14  C   UNL     1       1.836  -2.225  -6.346  0.00  0.00    +0.575 C 
ATOM     15  F   UNL     1       0.881  -1.424  -6.981  0.00  0.00    -0.133 F 
ATOM     16  F   UNL     1       2.910  -1.431  -5.932  0.00  0.00    -0.133 F 
ATOM     17  F   UNL     1       2.294  -3.201  -7.237  0.00  0.00    -0.133 F 
ENDBRANCH  13  14
ENDBRANCH   5  13
ENDBRANCH   1   2
BRANCH   1  18
ATOM     18  C   UNL     1      -1.040  -5.149  -1.814  0.00  0.00    +0.110 C 
BRANCH  18  19
ATOM     19  N   UNL     1      -0.909  -5.266  -0.359  0.00  0.00    -0.190 NA
ATOM     20  H   UNL     1      -1.628  -5.656   0.163  0.00  0.00    +0.148 HD
BRANCH  19  21
ATOM     21  S   UNL     1       0.465  -4.732   0.394  0.00  0.00    +0.059 S 
ATOM     22  O   UNL     1       0.306  -5.014   1.778  0.00  0.00    -0.153 OA
ATOM     23  O   UNL     1       0.711  -3.420  -0.092  0.00  0.00    -0.153 OA
BRANCH  21  28
ATOM     24  C   UNL     1       5.019  -8.175  -1.558  0.00  0.00    +0.044 C 
ATOM     25  C   UNL     1       3.882  -7.315  -1.071  0.00  0.00    -0.047 A 
ATOM     26  C   UNL     1       2.862  -7.876  -0.324  0.00  0.00    +0.009 A 
ATOM     27  C   UNL     1       1.819  -7.087   0.123  0.00  0.00    -0.024 A 
ATOM     28  C   UNL     1       1.796  -5.737  -0.175  0.00  0.00    +0.108 A 
ATOM     29  C   UNL     1       2.816  -5.177  -0.921  0.00  0.00    +0.032 A 
ATOM     30  C   UNL     1       3.861  -5.965  -1.365  0.00  0.00    -0.046 A 
ATOM     31  C   UNL     1       4.976  -5.353  -2.173  0.00  0.00    +0.044 C 
ATOM     32  C   UNL     1       0.707  -7.698   0.936  0.00  0.00    +0.046 C 
ENDBRANCH  21  28
ENDBRANCH  19  21
ENDBRANCH  18  19
ENDBRANCH   1  18
TORSDOF 7
