REMARK  Name = ZINC31057672
REMARK  9 active torsions:
REMARK  status: ('A' for Active; 'I' for Inactive)
REMARK    1  A    between atoms: C_1  and  C_2
REMARK    2  A    between atoms: C_2  and  C_4
REMARK    3  A    between atoms: C_2  and  C_15
REMARK    4  A    between atoms: C_4  and  C_5
REMARK    5  A    between atoms: C_15  and  N_16
REMARK    6  A    between atoms: C_17  and  C_19
REMARK    7  A    between atoms: N_24  and  C_26
REMARK    8  A    between atoms: C_26  and  C_27
REMARK    9  A    between atoms: C_29  and  C_32
REMARK                            x       y       z     vdW  Elec       q    Type
REMARK                         _______ _______ _______ _____ _____    ______ ____
ROOT
ATOM      1  N   UNL     1       2.880   5.422  -0.236  0.00  0.00    -0.315 N 
ATOM      2  C   UNL     1       2.686   4.093  -0.127  0.00  0.00    +0.214 C 
ATOM      3  O   UNL     1       3.637   3.348  -0.019  0.00  0.00    -0.276 OA
ATOM      4  H   UNL     1       2.018   6.098  -0.334  0.00  0.00    +0.149 HD
ENDROOT
BRANCH   2   5
ATOM      5  C   UNL     1       1.287   3.533  -0.138  0.00  0.00    +0.058 C 
ATOM      6  C   UNL     1       0.493   4.116   1.034  0.00  0.00    +0.009 C 
ATOM      7  C   UNL     1      -0.907   3.496   1.050  0.00  0.00    -0.018 C 
ATOM      8  C   UNL     1      -0.785   1.974   1.154  0.00  0.00    -0.078 C 
ATOM      9  N   UNL     1      -0.018   1.465   0.010  0.00  0.00    +0.386 N 
ATOM     10  C   UNL     1       1.346   2.010   0.000  0.00  0.00    -0.065 C 
ATOM     11  H   UNL     1      -0.521   1.803  -0.908  0.00  0.00    -0.081 HD
BRANCH   9  12
ATOM     12  C   UNL     1       0.002  -0.004   0.002  0.00  0.00    +0.022 C 
BRANCH  12  13
ATOM     13  C   UNL     1      -1.388  -0.527   0.259  0.00  0.00    +0.211 A 
ATOM     14  N   UNL     1      -2.299  -0.788  -0.644  0.00  0.00    -0.192 NA
ATOM     15  C   UNL     1      -3.376  -1.234   0.045  0.00  0.00    +0.209 A 
ATOM     16  N   UNL     1      -3.059  -1.207   1.316  0.00  0.00    -0.056 NA
ATOM     17  O   UNL     1      -1.923  -0.805   1.452  0.00  0.00    -0.340 OA
BRANCH  15  18
ATOM     18  C   UNL     1      -4.668  -1.663  -0.528  0.00  0.00    +0.060 A 
ATOM     19  C   UNL     1      -5.788  -2.121   0.115  0.00  0.00    +0.019 A 
ATOM     20  C   UNL     1      -6.889  -2.463  -0.637  0.00  0.00    +0.008 A 
ATOM     21  C   UNL     1      -6.830  -2.347  -1.989  0.00  0.00    +0.046 A 
ATOM     22  S   UNL     1      -5.174  -1.728  -2.239  0.00  0.00    -0.093 S 
ENDBRANCH  15  18
ENDBRANCH  12  13
ENDBRANCH   9  12
ENDBRANCH   2   5
BRANCH   1  23
ATOM     23  C   UNL     1       4.240   5.967  -0.225  0.00  0.00    +0.107 C 
BRANCH  23  25
ATOM     24  C   UNL     1       3.495   8.087   0.867  0.00  0.00    +0.009 C 
ATOM     25  C   UNL     1       4.180   7.490  -0.363  0.00  0.00    +0.007 C 
BRANCH  25  26
ATOM     26  C   UNL     1       5.600   8.048  -0.477  0.00  0.00    +0.040 C 
BRANCH  26  27
ATOM     27  C   UNL     1       5.538   9.531  -0.736  0.00  0.00    -0.039 A 
ATOM     28  C   UNL     1       5.599  10.007  -2.010  0.00  0.00    +0.004 A 
ATOM     29  C   UNL     1       5.542  11.374  -2.269  0.00  0.00    +0.001 A 
ATOM     30  C   UNL     1       5.425  12.275  -1.255  0.00  0.00    +0.008 A 
ATOM     31  C   UNL     1       5.359  11.822   0.073  0.00  0.00    -0.018 A 
ATOM     32  C   UNL     1       5.411  10.430   0.336  0.00  0.00    -0.015 A 
ATOM     33  C   UNL     1       5.351   9.977   1.666  0.00  0.00    +0.009 A 
ATOM     34  C   UNL     1       5.234  10.878   2.679  0.00  0.00    +0.001 A 
ATOM     35  C   UNL     1       5.177  12.246   2.420  0.00  0.00    +0.001 A 
ATOM     36  C   UNL     1       5.238  12.722   1.146  0.00  0.00    +0.008 A 
ENDBRANCH  26  27
ENDBRANCH  25  26
ENDBRANCH  23  25
ENDBRANCH   1  23
TORSDOF 8
