REMARK  Name = ZINC04776282
REMARK  11 active torsions:
REMARK  status: ('A' for Active; 'I' for Inactive)
REMARK    1  A    between atoms: C_1  and  C_2
REMARK    2  A    between atoms: C_2  and  O_3
REMARK    3  A    between atoms: O_3  and  C_4
REMARK    4  A    between atoms: C_4  and  C_6
REMARK    5  A    between atoms: C_6  and  C_24
REMARK    6  A    between atoms: N_9  and  C_10
REMARK    7  A    between atoms: C_13  and  C_16
REMARK    8  A    between atoms: C_18  and  C_20
REMARK    9  A    between atoms: C_20  and  C_21
REMARK   10  A    between atoms: C_20  and  C_22
REMARK   11  A    between atoms: C_20  and  C_23
REMARK                            x       y       z     vdW  Elec       q    Type
REMARK                         _______ _______ _______ _____ _____    ______ ____
ROOT
ATOM      1  C   UNL     1      -2.390   0.780   0.035  0.00  0.00    +0.164 C 
ATOM      2  C   UNL     1      -3.653   1.358   0.005  0.00  0.00    +0.172 C 
ATOM      3  C   UNL     1      -3.971   2.803   0.053  0.00  0.00    +0.111 C 
ATOM      4  N   UNL     1      -3.131   3.816   0.134  0.00  0.00    -0.244 NA
ATOM      5  C   UNL     1      -5.442   2.849  -0.009  0.00  0.00    +0.073 C 
ATOM      6  C   UNL     1      -5.862   1.581  -0.081  0.00  0.00    +0.113 C 
ATOM      7  O   UNL     1      -4.835   0.716  -0.079  0.00  0.00    -0.457 OA
ENDROOT
BRANCH   4   8
ATOM      8  C   UNL     1      -3.601   5.083   0.168  0.00  0.00    +0.065 A 
ATOM      9  C   UNL     1      -4.607   5.486  -0.722  0.00  0.00    +0.028 A 
ATOM     10  C   UNL     1      -5.083   6.778  -0.677  0.00  0.00    +0.005 A 
ATOM     11  C   UNL     1      -4.564   7.681   0.237  0.00  0.00    -0.050 A 
ATOM     12  C   UNL     1      -3.567   7.293   1.115  0.00  0.00    +0.005 A 
ATOM     13  C   UNL     1      -3.081   6.004   1.088  0.00  0.00    +0.028 A 
ATOM     14  C   UNL     1      -5.088   9.093   0.274  0.00  0.00    +0.044 C 
ENDBRANCH   4   8
BRANCH   1  15
ATOM     15  C   UNL     1      -1.192   1.630   0.007  0.00  0.00    +0.252 C 
ATOM     16  O   UNL     1      -0.580   1.786  -1.033  0.00  0.00    -0.270 OA
ATOM     17  N   UNL     1      -0.771   2.238   1.134  0.00  0.00    -0.325 N 
ATOM     18  H   UNL     1      -1.298   2.173   1.946  0.00  0.00    +0.145 HD
ATOM     19  H   UNL     1       0.061   2.736   1.134  0.00  0.00    +0.145 HD
ENDBRANCH   1  15
BRANCH   6  20
ATOM     20  C   UNL     1      -7.311   1.174  -0.162  0.00  0.00    +0.020 C 
ATOM     21  C   UNL     1      -8.194   2.423  -0.148  0.00  0.00    +0.019 C 
ATOM     22  C   UNL     1      -7.549   0.395  -1.458  0.00  0.00    +0.019 C 
ATOM     23  C   UNL     1      -7.659   0.289   1.036  0.00  0.00    +0.019 C 
ENDBRANCH   6  20
BRANCH   1  24
ATOM     24  C   UNL     1      -2.252  -0.680   0.093  0.00  0.00    +0.348 C 
ATOM     25  O   UNL     1      -3.239  -1.387   0.019  0.00  0.00    -0.245 OA
BRANCH  24  26
ATOM     26  O   UNL     1      -1.032  -1.238   0.228  0.00  0.00    -0.461 OA
BRANCH  26  28
ATOM     27  C   UNL     1       0.485  -3.132   0.433  0.00  0.00    +0.048 C 
ATOM     28  C   UNL     1      -0.971  -2.687   0.279  0.00  0.00    +0.229 C 
ENDBRANCH  26  28
ENDBRANCH  24  26
ENDBRANCH   1  24
TORSDOF 6
