REMARK  Name = ZINC38743106
REMARK  8 active torsions:
REMARK  status: ('A' for Active; 'I' for Inactive)
REMARK    1  A    between atoms: C_4  and  C_7
REMARK    2  A    between atoms: C_9  and  C_13
REMARK    3  A    between atoms: C_21  and  C_23
REMARK    4  A    between atoms: C_23  and  O_24
REMARK    5  A    between atoms: O_24  and  C_25
REMARK    6  A    between atoms: C_29  and  O_31
REMARK    7  A    between atoms: O_31  and  C_32
REMARK    8  A    between atoms: C_32  and  C_33
REMARK                            x       y       z     vdW  Elec       q    Type
REMARK                         _______ _______ _______ _____ _____    ______ ____
ROOT
ATOM      1  C   UNL     1       5.782  -3.012   1.181  0.00  0.00    +0.206 C 
ATOM      2  N   UNL     1       5.167  -4.361   1.202  0.00  0.00    -0.231 NA
ATOM      3  N   UNL     1       6.276  -5.326   1.288  0.00  0.00    -0.224 NA
ATOM      4  C   UNL     1       7.357  -4.531   1.904  0.00  0.00    +0.240 C 
ATOM      5  N   UNL     1       7.244  -3.242   1.144  0.00  0.00    -0.206 N 
ATOM      6  N   UNL     1       8.441  -2.796   0.629  0.00  0.00    -0.175 NA
ATOM      7  C   UNL     1       9.501  -3.532   0.556  0.00  0.00    +0.132 C 
ATOM      8  S   UNL     1       9.009  -5.094   1.351  0.00  0.00    -0.064 S 
ATOM      9  H   UNL     1       4.539  -4.460   1.985  0.00  0.00    +0.143 HD
ATOM     10  H   UNL     1       6.028  -6.111   1.872  0.00  0.00    +0.144 HD
ENDROOT
BRANCH   1  13
ATOM     11  C   UNL     1       3.699  -0.689  -0.037  0.00  0.00    +0.091 C 
ATOM     12  C   UNL     1       3.832  -2.029  -0.051  0.00  0.00    +0.034 C 
ATOM     13  C   UNL     1       5.335  -2.245  -0.065  0.00  0.00    +0.190 C 
ATOM     14  N   UNL     1       5.871  -0.874  -0.056  0.00  0.00    -0.176 NA
ATOM     15  N   UNL     1       4.919  -0.090  -0.047  0.00  0.00    -0.154 NA
BRANCH  11  19
ATOM     16  C   UNL     1      -0.017   1.379   0.010  0.00  0.00    +0.000 A 
ATOM     17  C   UNL     1       1.169   2.092   0.002  0.00  0.00    +0.001 A 
ATOM     18  C   UNL     1       2.377   1.426  -0.013  0.00  0.00    +0.010 A 
ATOM     19  C   UNL     1       2.402   0.033  -0.021  0.00  0.00    +0.002 A 
ATOM     20  C   UNL     1       1.205  -0.680  -0.013  0.00  0.00    +0.010 A 
ATOM     21  C   UNL     1       0.002  -0.004   0.002  0.00  0.00    +0.001 A 
ENDBRANCH  11  19
ENDBRANCH   1  13
BRANCH   7  22
ATOM     22  C   UNL     1      10.838  -3.178  -0.040  0.00  0.00    +0.293 C 
BRANCH  22  23
ATOM     23  O   UNL     1      10.795  -1.843  -0.549  0.00  0.00    -0.485 OA
BRANCH  23  24
ATOM     24  C   UNL     1      11.929  -1.365  -1.124  0.00  0.00    +0.125 A 
ATOM     25  C   UNL     1      13.060  -2.167  -1.203  0.00  0.00    +0.046 A 
ATOM     26  C   UNL     1      14.213  -1.681  -1.787  0.00  0.00    +0.007 A 
ATOM     27  C   UNL     1      14.245  -0.396  -2.295  0.00  0.00    +0.046 A 
ATOM     28  C   UNL     1      13.118   0.409  -2.219  0.00  0.00    +0.124 A 
ATOM     29  C   UNL     1      11.957  -0.078  -1.638  0.00  0.00    +0.091 A 
BRANCH  28  30
ATOM     30  O   UNL     1      13.150   1.673  -2.719  0.00  0.00    -0.487 OA
BRANCH  30  31
ATOM     31  C   UNL     1      14.377   2.107  -3.308  0.00  0.00    +0.266 C 
BRANCH  31  32
ATOM     32  C   UNL     1      14.224   3.522  -3.803  0.00  0.00    +0.008 A 
ATOM     33  C   UNL     1      13.022   4.185  -3.640  0.00  0.00    +0.008 A 
ATOM     34  C   UNL     1      12.882   5.483  -4.093  0.00  0.00    +0.000 A 
ATOM     35  C   UNL     1      13.944   6.119  -4.710  0.00  0.00    +0.001 A 
ATOM     36  C   UNL     1      15.145   5.457  -4.874  0.00  0.00    +0.020 A 
ATOM     37  C   UNL     1      15.288   4.160  -4.415  0.00  0.00    +0.047 A 
ATOM     38 CL   UNL     1      16.800   3.329  -4.614  0.00  0.00    -0.083 Cl
ENDBRANCH  31  32
ENDBRANCH  30  31
ENDBRANCH  28  30
ENDBRANCH  23  24
ENDBRANCH  22  23
ENDBRANCH   7  22
TORSDOF 8
