REMARK  Name = ZINC09789325
REMARK  8 active torsions:
REMARK  status: ('A' for Active; 'I' for Inactive)
REMARK    1  A    between atoms: C_4  and  C_7
REMARK    2  A    between atoms: C_7  and  N_8
REMARK    3  A    between atoms: C_9  and  C_11
REMARK    4  A    between atoms: C_16  and  O_17
REMARK    5  A    between atoms: O_17  and  C_18
REMARK    6  A    between atoms: C_18  and  C_19
REMARK    7  A    between atoms: N_21  and  C_22
REMARK    8  A    between atoms: N_21  and  C_30
REMARK                            x       y       z     vdW  Elec       q    Type
REMARK                         _______ _______ _______ _____ _____    ______ ____
ROOT
ATOM      1  C   UNL     1       5.778  -1.815   2.977  0.00  0.00    +0.078 A 
ATOM      2  C   UNL     1       4.923  -1.544   4.049  0.00  0.00    +0.017 A 
ATOM      3  C   UNL     1       5.251  -1.976   5.315  0.00  0.00    +0.001 A 
ATOM      4  C   UNL     1       6.424  -2.680   5.532  0.00  0.00    +0.004 A 
ATOM      5  C   UNL     1       7.277  -2.955   4.482  0.00  0.00    +0.046 A 
ATOM      6  C   UNL     1       6.961  -2.532   3.200  0.00  0.00    +0.133 A 
ENDROOT
BRANCH   1   8
ATOM      7  N   UNL     1       4.294  -0.666   1.409  0.00  0.00    -0.307 N 
ATOM      8  C   UNL     1       5.433  -1.355   1.619  0.00  0.00    +0.248 C 
ATOM      9  O   UNL     1       6.177  -1.598   0.688  0.00  0.00    -0.270 OA
ATOM     10  H   UNL     1       3.700  -0.472   2.152  0.00  0.00    +0.149 HD
BRANCH   7  11
ATOM     11  C   UNL     1       3.951  -0.209   0.060  0.00  0.00    +0.139 C 
BRANCH  11  15
ATOM     12  C   UNL     1       0.232   1.888   0.165  0.00  0.00    +0.000 A 
ATOM     13  C   UNL     1       1.417   2.574   0.348  0.00  0.00    +0.000 A 
ATOM     14  C   UNL     1       2.621   1.895   0.314  0.00  0.00    +0.005 A 
ATOM     15  C   UNL     1       2.639   0.530   0.098  0.00  0.00    -0.030 A 
ATOM     16  C   UNL     1       1.453  -0.156  -0.085  0.00  0.00    +0.005 A 
ATOM     17  C   UNL     1       0.249   0.523  -0.052  0.00  0.00    +0.000 A 
ENDBRANCH  11  15
ENDBRANCH   7  11
ENDBRANCH   1   8
BRANCH   6  18
ATOM     18  O   UNL     1       7.796  -2.806   2.166  0.00  0.00    -0.482 OA
BRANCH  18  19
ATOM     19  C   UNL     1       9.044  -3.423   2.487  0.00  0.00    +0.324 C 
BRANCH  19  20
ATOM     20  C   UNL     1       9.765  -3.790   1.215  0.00  0.00    +0.254 C 
ATOM     21  O   UNL     1       9.302  -3.467   0.142  0.00  0.00    -0.272 OA
ATOM     22  N   UNL     1      10.924  -4.475   1.271  0.00  0.00    -0.291 N 
BRANCH  22  23
ATOM     23  C   UNL     1      11.579  -4.908   0.034  0.00  0.00    +0.099 C 
ATOM     24  C   UNL     1      10.629  -5.826  -0.753  0.00  0.00    +0.047 C 
ATOM     25  C   UNL     1      11.211  -6.013  -2.183  0.00  0.00    +0.168 C 
ATOM     26  S   UNL     1      11.792  -4.300  -2.538  0.00  0.00    -0.029 S 
ATOM     27  O   UNL     1      10.757  -3.590  -3.204  0.00  0.00    -0.174 OA
ATOM     28  O   UNL     1      13.086  -4.362  -3.121  0.00  0.00    -0.174 OA
ATOM     29  C   UNL     1      11.938  -3.667  -0.818  0.00  0.00    +0.188 C 
ENDBRANCH  22  23
BRANCH  22  30
ATOM     30  C   UNL     1      11.528  -4.788   2.568  0.00  0.00    +0.077 C 
ATOM     31  C   UNL     1      10.607  -5.734   3.366  0.00  0.00    +0.022 C 
ATOM     32  C   UNL     1      10.750  -5.256   4.832  0.00  0.00    +0.002 C 
ATOM     33  C   UNL     1      10.833  -3.717   4.683  0.00  0.00    +0.002 C 
ATOM     34  C   UNL     1      11.672  -3.506   3.406  0.00  0.00    +0.022 C 
ENDBRANCH  22  30
ENDBRANCH  19  20
ENDBRANCH  18  19
ENDBRANCH   6  18
TORSDOF 8
