REMARK  Name = ZINC13357072
REMARK  8 active torsions:
REMARK  status: ('A' for Active; 'I' for Inactive)
REMARK    1  A    between atoms: C_1  and  O_2
REMARK    2  A    between atoms: O_2  and  C_3
REMARK    3  A    between atoms: C_6  and  C_14
REMARK    4  A    between atoms: C_8  and  O_9
REMARK    5  A    between atoms: O_9  and  C_10
REMARK    6  A    between atoms: C_10  and  C_11
REMARK    7  A    between atoms: N_18  and  C_22
REMARK    8  A    between atoms: C_25  and  C_28
REMARK                            x       y       z     vdW  Elec       q    Type
REMARK                         _______ _______ _______ _____ _____    ______ ____
ROOT
ATOM      1  C   UNL     1       2.562   1.171   0.607  0.00  0.00    +0.028 C 
ATOM      2  C   UNL     1       3.680   1.823   0.198  0.00  0.00    +0.078 C 
ATOM      3  C   UNL     1       5.068   1.333   0.088  0.00  0.00    +0.263 C 
ATOM      4  O   UNL     1       5.367   0.190   0.381  0.00  0.00    -0.269 OA
ATOM      5  N   UNL     1       5.969   2.197  -0.349  0.00  0.00    -0.224 N 
ATOM      6  C   UNL     1       5.634   3.464  -0.666  0.00  0.00    +0.125 C 
ATOM      7  S   UNL     1       6.647   4.721  -1.236  0.00  0.00    -0.027 S 
ATOM      8  S   UNL     1       3.878   3.514  -0.347  0.00  0.00    -0.061 S 
ENDROOT
BRANCH   1  12
ATOM      9  C   UNL     1      -1.078   3.302   1.080  0.00  0.00    +0.162 A 
ATOM     10  C   UNL     1       0.130   3.987   1.059  0.00  0.00    +0.050 A 
ATOM     11  C   UNL     1       1.314   3.300   0.905  0.00  0.00    +0.012 A 
ATOM     12  C   UNL     1       1.301   1.907   0.770  0.00  0.00    -0.020 A 
ATOM     13  C   UNL     1       0.083   1.216   0.792  0.00  0.00    +0.057 A 
ATOM     14  C   UNL     1      -1.099   1.915   0.940  0.00  0.00    +0.163 A 
BRANCH   9  16
ATOM     15  C   UNL     1      -2.148   5.405   1.363  0.00  0.00    +0.277 C 
ATOM     16  O   UNL     1      -2.242   3.985   1.232  0.00  0.00    -0.491 OA
ENDBRANCH   9  16
BRANCH  14  17
ATOM     17  O   UNL     1      -2.285   1.248   0.956  0.00  0.00    -0.479 OA
BRANCH  17  18
ATOM     18  C   UNL     1      -2.232  -0.173   0.814  0.00  0.00    +0.324 C 
BRANCH  18  19
ATOM     19  C   UNL     1      -3.630  -0.734   0.854  0.00  0.00    +0.248 C 
ATOM     20  O   UNL     1      -4.578   0.010   0.991  0.00  0.00    -0.272 OA
ATOM     21  N   UNL     1      -3.827  -2.062   0.738  0.00  0.00    -0.327 N 
ATOM     22  H   UNL     1      -3.069  -2.657   0.628  0.00  0.00    +0.145 HD
ATOM     23  H   UNL     1      -4.727  -2.423   0.764  0.00  0.00    +0.145 HD
ENDBRANCH  18  19
ENDBRANCH  17  18
ENDBRANCH  14  17
ENDBRANCH   1  12
BRANCH   5  24
ATOM     24  C   UNL     1       7.298   1.790  -0.479  0.00  0.00    +0.043 A 
ATOM     25  C   UNL     1       7.704   1.099  -1.616  0.00  0.00    +0.025 A 
ATOM     26  C   UNL     1       9.015   0.701  -1.751  0.00  0.00    +0.017 A 
ATOM     27  C   UNL     1       9.936   0.981  -0.738  0.00  0.00    +0.063 A 
ATOM     28  C   UNL     1       9.524   1.670   0.406  0.00  0.00    +0.017 A 
ATOM     29  C   UNL     1       8.212   2.070   0.531  0.00  0.00    +0.025 A 
BRANCH  27  30
ATOM     30  C   UNL     1      11.341   0.552  -0.876  0.00  0.00    +0.387 C 
ATOM     31  O   UNL     1      12.140   0.797   0.005  0.00  0.00    -0.241 OA
ATOM     32  O   UNL     1      11.736  -0.113  -1.979  0.00  0.00    -0.241 OA
ENDBRANCH  27  30
ENDBRANCH   5  24
TORSDOF 7
