REMARK  Name = ZINC15127993
REMARK  7 active torsions:
REMARK  status: ('A' for Active; 'I' for Inactive)
REMARK    1  A    between atoms: C_1  and  C_2
REMARK    2  A    between atoms: C_3  and  C_12
REMARK    3  A    between atoms: C_12  and  C_14
REMARK    4  A    between atoms: C_14  and  S_15
REMARK    5  A    between atoms: S_15  and  C_16
REMARK    6  A    between atoms: N_29  and  C_30
REMARK    7  A    between atoms: C_30  and  C_31
REMARK                            x       y       z     vdW  Elec       q    Type
REMARK                         _______ _______ _______ _____ _____    ______ ____
ROOT
ATOM      1  C   UNL     1       2.636  -1.278   3.622  0.00  0.00    +0.198 A 
ATOM      2  N   UNL     1       3.359  -0.891   2.599  0.00  0.00    -0.120 NA
ATOM      3  N   UNL     1       2.488  -0.525   1.566  0.00  0.00    -0.109 NA
ATOM      4  C   UNL     1       1.256  -0.704   1.987  0.00  0.00    +0.240 A 
ATOM      5  N   UNL     1       1.317  -1.170   3.272  0.00  0.00    -0.256 N 
ATOM      6  C   UNL     1       0.150  -1.449   3.980  0.00  0.00    +0.064 A 
ATOM      7  C   UNL     1       0.201  -1.927   5.281  0.00  0.00    +0.027 A 
ATOM      8  C   UNL     1      -0.971  -2.195   5.960  0.00  0.00    +0.002 A 
ATOM      9  C   UNL     1      -2.200  -1.991   5.354  0.00  0.00    +0.001 A 
ATOM     10  C   UNL     1      -2.270  -1.517   4.061  0.00  0.00    +0.015 A 
ATOM     11  C   UNL     1      -1.094  -1.242   3.364  0.00  0.00    +0.064 A 
ATOM     12  C   UNL     1      -1.125  -0.734   1.981  0.00  0.00    +0.263 A 
ATOM     13  O   UNL     1      -2.185  -0.542   1.415  0.00  0.00    -0.267 OA
ATOM     14  N   UNL     1       0.043  -0.485   1.353  0.00  0.00    -0.272 N 
ENDROOT
BRANCH   1  15
ATOM     15  S   UNL     1       3.253  -1.839   5.174  0.00  0.00    -0.078 S 
BRANCH  15  16
ATOM     16  C   UNL     1       5.055  -1.744   4.990  0.00  0.00    +0.157 C 
BRANCH  16  17
ATOM     17  C   UNL     1       5.715  -2.201   6.265  0.00  0.00    +0.176 C 
ATOM     18  O   UNL     1       5.039  -2.465   7.238  0.00  0.00    -0.291 OA
BRANCH  17  21
ATOM     19  C   UNL     1       7.327  -4.700   5.389  0.00  0.00    +0.064 C 
ATOM     20  C   UNL     1       7.879  -3.415   5.950  0.00  0.00    +0.024 A 
ATOM     21  C   UNL     1       7.126  -2.325   6.328  0.00  0.00    +0.046 A 
ATOM     22  C   UNL     1       8.083  -1.313   6.818  0.00  0.00    +0.010 A 
ATOM     23  C   UNL     1       7.951  -0.027   7.333  0.00  0.00    +0.011 A 
ATOM     24  C   UNL     1       9.075   0.675   7.711  0.00  0.00    +0.001 A 
ATOM     25  C   UNL     1      10.333   0.104   7.580  0.00  0.00    +0.002 A 
ATOM     26  C   UNL     1      10.477  -1.168   7.072  0.00  0.00    +0.026 A 
ATOM     27  C   UNL     1       9.354  -1.893   6.685  0.00  0.00    +0.047 A 
ATOM     28  N   UNL     1       9.185  -3.156   6.155  0.00  0.00    -0.358 N 
ATOM     29  H   UNL     1       9.907  -3.774   5.961  0.00  0.00    +0.166 HD
ENDBRANCH  17  21
ENDBRANCH  16  17
ENDBRANCH  15  16
ENDBRANCH   1  15
BRANCH  14  30
ATOM     30  C   UNL     1       0.028   0.020  -0.022  0.00  0.00    +0.163 C 
BRANCH  30  31
ATOM     31  C   UNL     1       0.002   1.527  -0.004  0.00  0.00    -0.028 A 
ATOM     32  C   UNL     1      -1.207   2.197   0.003  0.00  0.00    +0.005 A 
ATOM     33  C   UNL     1      -1.231   3.579   0.025  0.00  0.00    +0.000 A 
ATOM     34  C   UNL     1      -0.046   4.291   0.029  0.00  0.00    +0.000 A 
ATOM     35  C   UNL     1       1.163   3.621   0.016  0.00  0.00    +0.000 A 
ATOM     36  C   UNL     1       1.187   2.239  -0.001  0.00  0.00    +0.005 A 
ENDBRANCH  30  31
ENDBRANCH  14  30
TORSDOF 6
