REMARK  Name = ZINC65021750
REMARK  5 active torsions:
REMARK  status: ('A' for Active; 'I' for Inactive)
REMARK    1  A    between atoms: C_1  and  C_2
REMARK    2  A    between atoms: C_7  and  N_8
REMARK    3  A    between atoms: N_8  and  S_9
REMARK    4  A    between atoms: S_9  and  C_12
REMARK    5  A    between atoms: C_21  and  C_24
REMARK                            x       y       z     vdW  Elec       q    Type
REMARK                         _______ _______ _______ _____ _____    ______ ____
ROOT
ATOM      1  C   UNL     1       0.019   0.311   5.144  0.00  0.00    +0.112 A 
ATOM      2  C   UNL     1       1.224   0.786   5.630  0.00  0.00    +0.030 A 
ATOM      3  C   UNL     1       1.235   1.724   6.646  0.00  0.00    +0.018 A 
ATOM      4  C   UNL     1       0.039   2.183   7.175  0.00  0.00    +0.030 A 
ATOM      5  C   UNL     1      -1.179   1.704   6.695  0.00  0.00    +0.049 A 
ATOM      6  C   UNL     1      -1.175   0.769   5.665  0.00  0.00    +0.053 A 
ATOM      7  N   UNL     1      -2.395   2.129   7.221  0.00  0.00    -0.283 N 
ATOM      8  C   UNL     1      -2.583   2.759   8.376  0.00  0.00    +0.240 C 
ATOM      9  O   UNL     1      -3.697   3.161   8.639  0.00  0.00    -0.274 OA
ATOM     10  C   UNL     1      -1.481   2.999   9.374  0.00  0.00    +0.223 C 
ATOM     11  S   UNL     1       0.045   3.389   8.464  0.00  0.00    -0.101 S 
ATOM     12  H   UNL     1      -3.187   1.946   6.691  0.00  0.00    +0.155 HD
ENDROOT
BRANCH  10  13
ATOM     13  C   UNL     1      -1.275   1.762  10.209  0.00  0.00    +0.238 C 
ATOM     14  O   UNL     1      -1.498   0.668   9.737  0.00  0.00    -0.274 OA
ATOM     15  N   UNL     1      -0.844   1.872  11.482  0.00  0.00    -0.300 N 
ATOM     16  C   UNL     1      -0.705   3.192  12.055  0.00  0.00    +0.108 C 
ATOM     17  C   UNL     1       0.718   3.734  11.773  0.00  0.00    +0.019 C 
ATOM     18  C   UNL     1       1.710   3.009  12.581  0.00  0.00    +0.002 C 
ATOM     19  C   UNL     1       1.805   1.518  12.271  0.00  0.00    +0.002 C 
ATOM     20  C   UNL     1       0.757   0.775  13.061  0.00  0.00    +0.019 C 
ATOM     21  C   UNL     1      -0.539   0.639  12.234  0.00  0.00    +0.108 C 
ENDBRANCH  10  13
BRANCH   1  22
ATOM     22  S   UNL     1       0.009  -0.880   3.846  0.00  0.00    +0.092 S 
ATOM     23  O   UNL     1      -1.232  -1.567   3.935  0.00  0.00    -0.148 OA
ATOM     24  O   UNL     1       1.258  -1.554   3.903  0.00  0.00    -0.148 OA
BRANCH  22  25
ATOM     25  N   UNL     1      -0.014  -0.045   2.416  0.00  0.00    -0.098 NA
BRANCH  25  32
ATOM     26  C   UNL     1      -0.054   1.467   0.007  0.00  0.00    +0.046 C 
ATOM     27  C   UNL     1      -0.046  -0.040   0.002  0.00  0.00    -0.026 A 
ATOM     28  C   UNL     1      -0.052  -0.727  -1.196  0.00  0.00    +0.007 A 
ATOM     29  C   UNL     1      -0.044  -2.110  -1.201  0.00  0.00    +0.020 A 
ATOM     30  C   UNL     1      -0.031  -2.809  -0.007  0.00  0.00    +0.043 A 
ATOM     31  C   UNL     1      -0.025  -2.127   1.195  0.00  0.00    +0.047 A 
ATOM     32  C   UNL     1      -0.027  -0.738   1.203  0.00  0.00    +0.079 A 
ATOM     33 CL   UNL     1      -0.021  -4.545  -0.019  0.00  0.00    -0.083 Cl
ENDBRANCH  25  32
ENDBRANCH  22  25
ENDBRANCH   1  22
TORSDOF 4
