REMARK  Name = ZINC01924043
REMARK  8 active torsions:
REMARK  status: ('A' for Active; 'I' for Inactive)
REMARK    1  A    between atoms: C_1  and  C_2
REMARK    2  A    between atoms: C_7  and  C_8
REMARK    3  A    between atoms: C_10  and  C_30
REMARK    4  A    between atoms: C_11  and  O_14
REMARK    5  A    between atoms: O_14  and  C_15
REMARK    6  A    between atoms: C_15  and  C_16
REMARK    7  A    between atoms: N_18  and  C_19
REMARK    8  A    between atoms: C_20  and  C_28
REMARK                            x       y       z     vdW  Elec       q    Type
REMARK                         _______ _______ _______ _____ _____    ______ ____
ROOT
ATOM      1  C   UNL     1      -7.963  13.766  -6.593  0.00  0.00    +0.044 C 
ATOM      2  C   UNL     1      -6.545  13.266  -6.503  0.00  0.00    -0.047 A 
ATOM      3  C   UNL     1      -6.287  12.030  -5.951  0.00  0.00    +0.019 A 
ATOM      4  C   UNL     1      -4.972  11.572  -5.871  0.00  0.00    +0.068 A 
ATOM      5  C   UNL     1      -3.918  12.367  -6.348  0.00  0.00    +0.140 A 
ATOM      6  C   UNL     1      -4.200  13.611  -6.900  0.00  0.00    +0.050 A 
ATOM      7  C   UNL     1      -5.504  14.052  -6.975  0.00  0.00    -0.044 A 
ATOM      8  C   UNL     1      -5.802  15.402  -7.575  0.00  0.00    +0.044 C 
ATOM      9  O   UNL     1      -2.647  11.921  -6.269  0.00  0.00    -0.448 OA
ATOM     10  C   UNL     1      -2.336  10.724  -5.742  0.00  0.00    +0.216 A 
ATOM     11  C   UNL     1      -3.297   9.868  -5.245  0.00  0.00    +0.214 A 
ATOM     12  C   UNL     1      -4.657  10.252  -5.292  0.00  0.00    +0.235 A 
ATOM     13  O   UNL     1      -5.537   9.520  -4.867  0.00  0.00    -0.283 OA
ENDROOT
BRANCH  10  14
ATOM     14  C   UNL     1      -0.930  10.315  -5.694  0.00  0.00    +0.173 A 
ATOM     15  C   UNL     1       0.134  11.045  -6.142  0.00  0.00    +0.053 A 
ATOM     16  C   UNL     1       1.283  10.275  -5.899  0.00  0.00    +0.042 A 
ATOM     17  C   UNL     1       0.876   9.125  -5.320  0.00  0.00    +0.196 A 
ATOM     18  O   UNL     1      -0.459   9.155  -5.193  0.00  0.00    -0.460 OA
ENDBRANCH  10  14
BRANCH  11  19
ATOM     19  O   UNL     1      -2.940   8.665  -4.720  0.00  0.00    -0.476 OA
BRANCH  19  20
ATOM     20  C   UNL     1      -2.653   8.627  -3.320  0.00  0.00    +0.325 C 
BRANCH  20  21
ATOM     21  C   UNL     1      -2.279   7.222  -2.922  0.00  0.00    +0.255 C 
ATOM     22  O   UNL     1      -2.260   6.341  -3.755  0.00  0.00    -0.272 OA
ATOM     23  N   UNL     1      -1.965   6.946  -1.641  0.00  0.00    -0.276 N 
ATOM     24  H   UNL     1      -1.980   7.652  -0.975  0.00  0.00    +0.155 HD
BRANCH  23  25
ATOM     25  C   UNL     1      -1.621   5.653  -1.274  0.00  0.00    +0.090 A 
ATOM     26  C   UNL     1      -1.271   5.177  -0.019  0.00  0.00    +0.084 A 
ATOM     27  C   UNL     1      -0.951   3.765   0.100  0.00  0.00    -0.018 A 
ATOM     28  C   UNL     1      -1.032   3.059  -1.049  0.00  0.00    -0.004 A 
ATOM     29  S   UNL     1      -1.524   4.240  -2.273  0.00  0.00    -0.077 S 
ATOM     30  C   UNL     1      -0.761   1.597  -1.232  0.00  0.00    +0.043 C 
ATOM     31  C   UNL     1      -0.013   1.086   0.008  0.00  0.00    +0.005 C 
ATOM     32  C   UNL     1      -0.735   1.583   1.264  0.00  0.00    +0.005 C 
ATOM     33  C   UNL     1      -0.551   3.094   1.407  0.00  0.00    +0.037 C 
BRANCH  26  34
ATOM     34  C   UNL     1      -1.226   6.046   1.118  0.00  0.00    +0.102 C 
ATOM     35  N   UNL     1      -1.191   6.736   2.020  0.00  0.00    -0.191 NA
ENDBRANCH  26  34
ENDBRANCH  23  25
ENDBRANCH  20  21
ENDBRANCH  19  20
ENDBRANCH  11  19
TORSDOF 6
