REMARK  Name = ZINC44877741
REMARK  10 active torsions:
REMARK  status: ('A' for Active; 'I' for Inactive)
REMARK    1  A    between atoms: C_1  and  C_2
REMARK    2  A    between atoms: N_7  and  C_9
REMARK    3  A    between atoms: C_9  and  C_10
REMARK    4  A    between atoms: C_13  and  C_16
REMARK    5  A    between atoms: C_16  and  N_17
REMARK    6  A    between atoms: C_18  and  C_20
REMARK    7  A    between atoms: C_20  and  N_21
REMARK    8  A    between atoms: N_21  and  C_22
REMARK    9  A    between atoms: N_21  and  S_29
REMARK   10  A    between atoms: S_29  and  C_32
REMARK                            x       y       z     vdW  Elec       q    Type
REMARK                         _______ _______ _______ _____ _____    ______ ____
ROOT
ATOM      1  N   UNL     1       3.581 -10.992   1.592  0.00  0.00    -0.310 N 
ATOM      2  C   UNL     1       2.714 -11.693   0.836  0.00  0.00    +0.232 C 
ATOM      3  O   UNL     1       2.812 -12.900   0.760  0.00  0.00    -0.274 OA
ATOM      4  H   UNL     1       3.502 -10.027   1.652  0.00  0.00    +0.149 HD
ENDROOT
BRANCH   1   5
ATOM      5  C   UNL     1       4.644 -11.687   2.323  0.00  0.00    +0.139 C 
BRANCH   5   9
ATOM      6  C   UNL     1       6.985  -8.842   4.484  0.00  0.00    -0.064 A 
ATOM      7  C   UNL     1       5.879  -9.420   5.078  0.00  0.00    +0.002 A 
ATOM      8  C   UNL     1       5.121 -10.341   4.378  0.00  0.00    +0.005 A 
ATOM      9  C   UNL     1       5.469 -10.683   3.085  0.00  0.00    -0.030 A 
ATOM     10  C   UNL     1       6.575 -10.104   2.491  0.00  0.00    +0.005 A 
ATOM     11  C   UNL     1       7.330  -9.181   3.189  0.00  0.00    +0.002 A 
BRANCH   6  12
ATOM     12  C   UNL     1       7.811  -7.838   5.246  0.00  0.00    -0.043 C 
BRANCH  12  18
ATOM     13  C   UNL     1       8.573  -3.063   6.010  0.00  0.00    +0.005 C 
ATOM     14  C   UNL     1       7.656  -4.090   5.342  0.00  0.00    -0.031 C 
ATOM     15  C   UNL     1       6.232  -3.932   5.884  0.00  0.00    -0.001 C 
ATOM     16  C   UNL     1       5.340  -5.014   5.269  0.00  0.00    -0.018 C 
ATOM     17  C   UNL     1       5.929  -6.392   5.580  0.00  0.00    -0.078 C 
ATOM     18  N   UNL     1       7.280  -6.489   5.013  0.00  0.00    +0.383 N 
ATOM     19  C   UNL     1       8.160  -5.502   5.649  0.00  0.00    -0.075 C 
ATOM     20  H   UNL     1       7.241  -6.312   4.021  0.00  0.00    -0.081 HD
ENDBRANCH  12  18
ENDBRANCH   6  12
ENDBRANCH   5   9
ENDBRANCH   1   5
BRANCH   2  21
ATOM     21  C   UNL     1       1.621 -10.978   0.084  0.00  0.00    +0.227 C 
BRANCH  21  22
ATOM     22  N   UNL     1       0.818 -11.955  -0.657  0.00  0.00    -0.194 N 
BRANCH  22  23
ATOM     23  C   UNL     1      -0.237 -12.618  -0.023  0.00  0.00    +0.052 A 
ATOM     24  C   UNL     1      -0.157 -13.984   0.215  0.00  0.00    +0.027 A 
ATOM     25  C   UNL     1      -1.200 -14.637   0.843  0.00  0.00    +0.040 A 
ATOM     26  C   UNL     1      -2.324 -13.931   1.234  0.00  0.00    +0.124 A 
ATOM     27  C   UNL     1      -2.406 -12.569   0.998  0.00  0.00    +0.040 A 
ATOM     28  C   UNL     1      -1.363 -11.911   0.376  0.00  0.00    +0.027 A 
ATOM     29  F   UNL     1      -3.344 -14.571   1.847  0.00  0.00    -0.205 F 
ENDBRANCH  22  23
BRANCH  22  30
ATOM     30  S   UNL     1       1.160 -12.273  -2.246  0.00  0.00    +0.075 S 
ATOM     31  O   UNL     1       0.009 -12.902  -2.791  0.00  0.00    -0.150 OA
ATOM     32  O   UNL     1       1.706 -11.079  -2.791  0.00  0.00    -0.150 OA
BRANCH  30  33
ATOM     33  C   UNL     1       2.450 -13.473  -2.271  0.00  0.00    +0.109 A 
ATOM     34  C   UNL     1       3.767 -13.076  -2.138  0.00  0.00    +0.029 A 
ATOM     35  C   UNL     1       4.779 -14.018  -2.157  0.00  0.00    +0.002 A 
ATOM     36  C   UNL     1       4.473 -15.357  -2.309  0.00  0.00    +0.000 A 
ATOM     37  C   UNL     1       3.156 -15.755  -2.441  0.00  0.00    +0.002 A 
ATOM     38  C   UNL     1       2.144 -14.813  -2.417  0.00  0.00    +0.029 A 
ENDBRANCH  30  33
ENDBRANCH  22  30
ENDBRANCH  21  22
ENDBRANCH   2  21
TORSDOF 9
