REMARK  Name = ZINC39676323
REMARK  5 active torsions:
REMARK  status: ('A' for Active; 'I' for Inactive)
REMARK    1  A    between atoms: C_4  and  C_7
REMARK    2  A    between atoms: C_10  and  C_12
REMARK    3  A    between atoms: C_16  and  C_25
REMARK    4  A    between atoms: N_27  and  C_28
REMARK    5  A    between atoms: C_28  and  C_29
REMARK                            x       y       z     vdW  Elec       q    Type
REMARK                         _______ _______ _______ _____ _____    ______ ____
ROOT
ATOM      1  C   UNL     1       7.022  -0.759  -0.178  0.00  0.00    +0.282 C 
ATOM      2  O   UNL     1       7.702  -1.768  -0.228  0.00  0.00    -0.267 OA
ATOM      3  N   UNL     1       7.614   0.451  -0.131  0.00  0.00    -0.294 N 
ATOM      4  C   UNL     1       6.961   1.779  -0.061  0.00  0.00    +0.121 C 
ATOM      5  C   UNL     1       7.840   2.596   0.912  0.00  0.00    +0.100 C 
ATOM      6  C   UNL     1       9.220   1.919   0.856  0.00  0.00    -0.004 C 
ATOM      7  C   UNL     1       9.065   0.753  -0.131  0.00  0.00    +0.115 C 
ATOM      8  C   UNL     1      10.271   2.903   0.353  0.00  0.00    -0.010 C 
ATOM      9  C   UNL     1      11.644   2.225   0.361  0.00  0.00    -0.082 C 
ATOM     10  N   UNL     1      11.968   1.787   1.724  0.00  0.00    +0.379 N 
ATOM     11  C   UNL     1      11.004   0.772   2.166  0.00  0.00    -0.082 C 
ATOM     12  C   UNL     1       9.604   1.389   2.234  0.00  0.00    -0.010 C 
ATOM     13  H   UNL     1      12.898   1.396   1.739  0.00  0.00    -0.086 HD
ATOM     14  H   UNL     1      11.929   2.579   2.348  0.00  0.00    -0.086 HD
ENDROOT
BRANCH   1  18
ATOM     15  C   UNL     1       3.436  -0.298  -0.124  0.00  0.00    +0.136 A 
ATOM     16  C   UNL     1       3.481  -1.661  -0.184  0.00  0.00    +0.050 A 
ATOM     17  C   UNL     1       4.830  -2.028  -0.213  0.00  0.00    +0.055 A 
ATOM     18  C   UNL     1       5.560  -0.861  -0.169  0.00  0.00    +0.190 A 
ATOM     19  O   UNL     1       4.694   0.174  -0.122  0.00  0.00    -0.450 OA
BRANCH  15  23
ATOM     20  C   UNL     1      -0.092   2.061   0.011  0.00  0.00    +0.000 A 
ATOM     21  C   UNL     1       1.147   2.675   0.021  0.00  0.00    +0.001 A 
ATOM     22  C   UNL     1       2.298   1.915  -0.023  0.00  0.00    +0.011 A 
ATOM     23  C   UNL     1       2.209   0.522  -0.077  0.00  0.00    +0.017 A 
ATOM     24  C   UNL     1       0.954  -0.091  -0.086  0.00  0.00    +0.011 A 
ATOM     25  C   UNL     1      -0.188   0.681  -0.042  0.00  0.00    +0.001 A 
ENDBRANCH  15  23
ENDBRANCH   1  18
BRANCH   5  26
ATOM     26  C   UNL     1       7.277   2.530   2.309  0.00  0.00    +0.219 C 
ATOM     27  O   UNL     1       6.663   1.548   2.670  0.00  0.00    -0.275 OA
ATOM     28  N   UNL     1       7.456   3.562   3.156  0.00  0.00    -0.308 N 
ATOM     29  H   UNL     1       7.947   4.348   2.868  0.00  0.00    +0.149 HD
BRANCH  28  30
ATOM     30  C   UNL     1       6.908   3.499   4.514  0.00  0.00    +0.178 C 
BRANCH  30  31
ATOM     31  C   UNL     1       7.245   4.769   5.251  0.00  0.00    +0.128 A 
ATOM     32  N   UNL     1       6.825   4.898   6.537  0.00  0.00    -0.309 N 
ATOM     33  H   UNL     1       6.323   4.180   6.953  0.00  0.00    +0.170 HD
ATOM     34  C   UNL     1       7.101   6.020   7.243  0.00  0.00    +0.259 A 
ATOM     35  O   UNL     1       6.732   6.149   8.395  0.00  0.00    -0.267 OA
ATOM     36  C   UNL     1       7.866   7.076   6.563  0.00  0.00    +0.065 A 
ATOM     37  C   UNL     1       8.202   8.269   7.200  0.00  0.00    +0.015 A 
ATOM     38  C   UNL     1       8.919   9.225   6.515  0.00  0.00    +0.001 A 
ATOM     39  C   UNL     1       9.308   9.009   5.199  0.00  0.00    +0.002 A 
ATOM     40  C   UNL     1       8.985   7.838   4.552  0.00  0.00    +0.028 A 
ATOM     41  C   UNL     1       8.259   6.853   5.225  0.00  0.00    +0.078 A 
ATOM     42  N   UNL     1       7.925   5.682   4.627  0.00  0.00    -0.232 NA
ENDBRANCH  30  31
ENDBRANCH  28  30
ENDBRANCH   5  26
TORSDOF 5
