REMARK  Name = ZINC39672939
REMARK  5 active torsions:
REMARK  status: ('A' for Active; 'I' for Inactive)
REMARK    1  A    between atoms: C_4  and  C_7
REMARK    2  A    between atoms: C_4  and  N_31
REMARK    3  A    between atoms: C_7  and  N_8
REMARK    4  A    between atoms: C_9  and  C_11
REMARK    5  A    between atoms: C_22  and  C_24
REMARK                            x       y       z     vdW  Elec       q    Type
REMARK                         _______ _______ _______ _____ _____    ______ ____
ROOT
ATOM      1  C   UNL     1       4.772  -2.672  -1.433  0.00  0.00    +0.100 C 
ATOM      2  C   UNL     1       3.562  -3.423  -2.033  0.00  0.00    +0.121 C 
ATOM      3  N   UNL     1       3.700  -3.245  -3.498  0.00  0.00    -0.300 N 
ATOM      4  C   UNL     1       5.156  -3.369  -3.748  0.00  0.00    +0.115 C 
ATOM      5  C   UNL     1       5.818  -2.643  -2.561  0.00  0.00    -0.004 C 
ATOM      6  C   UNL     1       6.144  -1.201  -2.941  0.00  0.00    -0.010 C 
ATOM      7  C   UNL     1       7.226  -1.197  -4.024  0.00  0.00    -0.082 C 
ATOM      8  N   UNL     1       8.427  -1.875  -3.521  0.00  0.00    +0.379 N 
ATOM      9  C   UNL     1       8.127  -3.285  -3.245  0.00  0.00    -0.082 C 
ATOM     10  C   UNL     1       7.082  -3.378  -2.129  0.00  0.00    -0.010 C 
ATOM     11  C   UNL     1       2.723  -3.021  -4.398  0.00  0.00    +0.219 C 
ATOM     12  O   UNL     1       1.579  -2.868  -4.026  0.00  0.00    -0.275 OA
ATOM     13  H   UNL     1       9.159  -1.817  -4.213  0.00  0.00    -0.086 HD
ATOM     14  H   UNL     1       8.735  -1.426  -2.672  0.00  0.00    -0.086 HD
ENDROOT
BRANCH  11  15
ATOM     15  C   UNL     1       3.052  -2.960  -5.868  0.00  0.00    +0.079 C 
ATOM     16  C   UNL     1       1.840  -2.432  -6.646  0.00  0.00    +0.017 C 
ATOM     17  C   UNL     1       2.258  -2.212  -8.101  0.00  0.00    +0.027 C 
ATOM     18  C   UNL     1       2.959  -3.430  -8.628  0.00  0.00    -0.031 C 
ATOM     19  C   UNL     1       3.452  -4.364  -7.879  0.00  0.00    -0.030 C 
ATOM     20  C   UNL     1       3.388  -4.363  -6.378  0.00  0.00    +0.039 C 
ENDBRANCH  11  15
BRANCH   1  22
ATOM     21  N   UNL     1       4.995  -0.661  -0.011  0.00  0.00    -0.313 N 
ATOM     22  C   UNL     1       4.380  -1.270  -1.044  0.00  0.00    +0.218 C 
ATOM     23  O   UNL     1       3.511  -0.691  -1.660  0.00  0.00    -0.275 OA
ATOM     24  H   UNL     1       5.639  -1.148   0.526  0.00  0.00    +0.149 HD
BRANCH  21  25
ATOM     25  C   UNL     1       4.691   0.738   0.300  0.00  0.00    +0.126 C 
BRANCH  25  29
ATOM     26  C   UNL     1       3.764   1.585   3.603  0.00  0.00    +0.000 C 
ATOM     27  C   UNL     1       3.787   2.551   2.417  0.00  0.00    +0.002 C 
ATOM     28  C   UNL     1       5.206   2.628   1.851  0.00  0.00    +0.024 C 
ATOM     29  C   UNL     1       5.646   1.239   1.385  0.00  0.00    +0.038 C 
ATOM     30  C   UNL     1       5.622   0.272   2.571  0.00  0.00    +0.024 C 
ATOM     31  C   UNL     1       4.203   0.195   3.138  0.00  0.00    +0.002 C 
BRANCH  29  32
ATOM     32  N   UNL     1       7.009   1.313   0.842  0.00  0.00    -0.291 NA
ATOM     33  C   UNL     1       7.069   2.231  -0.305  0.00  0.00    +0.113 C 
ATOM     34  C   UNL     1       8.514   2.324  -0.802  0.00  0.00    +0.175 C 
ATOM     35  O   UNL     1       8.985   1.014  -1.131  0.00  0.00    -0.377 OA
ATOM     36  C   UNL     1       8.941   0.095  -0.037  0.00  0.00    +0.175 C 
ATOM     37  C   UNL     1       7.500  -0.021   0.468  0.00  0.00    +0.113 C 
ENDBRANCH  29  32
ENDBRANCH  25  29
ENDBRANCH  21  25
ENDBRANCH   1  22
TORSDOF 5
