REMARK  Name = ZINC35476520
REMARK  5 active torsions:
REMARK  status: ('A' for Active; 'I' for Inactive)
REMARK    1  A    between atoms: C_1  and  O_2
REMARK    2  A    between atoms: O_2  and  C_3
REMARK    3  A    between atoms: C_3  and  C_5
REMARK    4  A    between atoms: C_9  and  N_10
REMARK    5  A    between atoms: C_17  and  C_19
REMARK                            x       y       z     vdW  Elec       q    Type
REMARK                         _______ _______ _______ _____ _____    ______ ____
ROOT
ATOM      1  N   UNL     1      -1.281  -2.317  -2.479  0.00  0.00    -0.263 N 
ATOM      2  C   UNL     1      -1.325  -3.165  -3.525  0.00  0.00    +0.307 C 
ATOM      3  O   UNL     1      -1.370  -4.365  -3.333  0.00  0.00    -0.252 OA
ATOM      4  N   UNL     1      -1.319  -2.684  -4.784  0.00  0.00    -0.278 N 
ATOM      5  C   UNL     1      -1.260  -1.259  -5.159  0.00  0.00    +0.110 C 
ATOM      6  C   UNL     1      -1.886  -1.195  -6.574  0.00  0.00    +0.021 C 
ATOM      7  C   UNL     1      -1.366  -2.514  -7.205  0.00  0.00    +0.029 C 
ATOM      8  C   UNL     1      -1.363  -3.492  -6.011  0.00  0.00    +0.111 C 
ATOM      9  H   UNL     1      -1.246  -1.359  -2.632  0.00  0.00    +0.157 HD
ENDROOT
BRANCH   1  14
ATOM     10  C   UNL     1      -1.248  -2.096   0.003  0.00  0.00    +0.091 A 
ATOM     11  C   UNL     1      -1.271  -2.859   1.239  0.00  0.00    -0.021 A 
ATOM     12  C   UNL     1      -1.324  -4.196   1.062  0.00  0.00    -0.004 A 
ATOM     13  S   UNL     1      -1.343  -4.417  -0.693  0.00  0.00    -0.077 S 
ATOM     14  C   UNL     1      -1.288  -2.812  -1.185  0.00  0.00    +0.087 A 
ATOM     15  C   UNL     1      -1.358  -5.245   2.131  0.00  0.00    +0.043 C 
ATOM     16  C   UNL     1      -0.943  -4.594   3.458  0.00  0.00    +0.005 C 
ATOM     17  C   UNL     1      -1.728  -3.291   3.638  0.00  0.00    +0.005 C 
ATOM     18  C   UNL     1      -1.241  -2.246   2.632  0.00  0.00    +0.037 C 
BRANCH  10  19
ATOM     19  C   UNL     1      -1.191  -0.633   0.010  0.00  0.00    +0.342 C 
ATOM     20  O   UNL     1      -2.220   0.016   0.023  0.00  0.00    -0.245 OA
BRANCH  19  22
ATOM     21  C   UNL     1      -0.017   1.425   0.010  0.00  0.00    +0.280 C 
ATOM     22  O   UNL     1       0.002  -0.004   0.002  0.00  0.00    -0.464 OA
ENDBRANCH  19  22
ENDBRANCH  10  19
ENDBRANCH   1  14
BRANCH   8  23
ATOM     23  C   UNL     1      -0.151  -4.385  -6.080  0.00  0.00    +0.008 A 
ATOM     24  C   UNL     1       0.959  -4.105  -5.305  0.00  0.00    +0.008 A 
ATOM     25  C   UNL     1       2.071  -4.924  -5.368  0.00  0.00    +0.000 A 
ATOM     26  C   UNL     1       2.075  -6.024  -6.206  0.00  0.00    +0.003 A 
ATOM     27  C   UNL     1       0.966  -6.306  -6.981  0.00  0.00    +0.039 A 
ATOM     28  C   UNL     1      -0.151  -5.490  -6.915  0.00  0.00    +0.128 A 
ATOM     29  F   UNL     1      -1.237  -5.767  -7.669  0.00  0.00    -0.205 F 
ENDBRANCH   8  23
TORSDOF 4
