REMARK  Name = ZINC02838394
REMARK  9 active torsions:
REMARK  status: ('A' for Active; 'I' for Inactive)
REMARK    1  A    between atoms: C_1  and  C_2
REMARK    2  A    between atoms: C_2  and  O_3
REMARK    3  A    between atoms: O_3  and  C_4
REMARK    4  A    between atoms: C_6  and  C_19
REMARK    5  A    between atoms: C_9  and  O_10
REMARK    6  A    between atoms: O_10  and  C_11
REMARK    7  A    between atoms: C_11  and  C_12
REMARK    8  A    between atoms: C_28  and  N_32
REMARK    9  A    between atoms: C_29  and  C_30
REMARK                            x       y       z     vdW  Elec       q    Type
REMARK                         _______ _______ _______ _____ _____    ______ ____
ROOT
ATOM      1  C   UNL     1      -0.017   1.387   0.010  0.00  0.00    +0.162 A 
ATOM      2  C   UNL     1       1.175   2.093   0.002  0.00  0.00    +0.054 A 
ATOM      3  C   UNL     1       2.380   1.415  -0.013  0.00  0.00    -0.031 A 
ATOM      4  C   UNL     1       2.399   0.033  -0.021  0.00  0.00    +0.008 A 
ATOM      5  C   UNL     1       1.213  -0.677  -0.013  0.00  0.00    +0.050 A 
ATOM      6  C   UNL     1       0.002  -0.004   0.002  0.00  0.00    +0.162 A 
ENDROOT
BRANCH   3   7
ATOM      7  C   UNL     1       3.676   2.185  -0.020  0.00  0.00    +0.098 C 
ATOM      8  C   UNL     1       4.456   1.836  -1.260  0.00  0.00    +0.011 A 
ATOM      9  C   UNL     1       4.078   2.379  -2.476  0.00  0.00    +0.057 A 
ATOM     10  C   UNL     1       4.783   2.070  -3.627  0.00  0.00    +0.167 A 
ATOM     11  C   UNL     1       5.876   1.209  -3.561  0.00  0.00    +0.170 A 
ATOM     12  C   UNL     1       6.252   0.667  -2.344  0.00  0.00    +0.096 A 
ATOM     13  C   UNL     1       5.543   0.980  -1.191  0.00  0.00    +0.138 A 
ATOM     14  O   UNL     1       5.927   0.437  -0.008  0.00  0.00    -0.441 OA
ATOM     15  C   UNL     1       5.530   0.998   1.146  0.00  0.00    +0.199 C 
ATOM     16  C   UNL     1       4.469   1.837   1.208  0.00  0.00    +0.098 C 
ATOM     17  O   UNL     1       6.395   1.066  -4.815  0.00  0.00    -0.452 OA
ATOM     18  C   UNL     1       5.863   2.164  -5.580  0.00  0.00    +0.466 C 
ATOM     19  O   UNL     1       4.617   2.465  -4.924  0.00  0.00    -0.453 OA
BRANCH  15  20
ATOM     20  N   UNL     1       6.220   0.711   2.298  0.00  0.00    -0.328 N 
ATOM     21  H   UNL     1       6.982   0.112   2.270  0.00  0.00    +0.145 HD
ATOM     22  H   UNL     1       5.946   1.108   3.139  0.00  0.00    +0.145 HD
ENDBRANCH  15  20
BRANCH  16  23
ATOM     23  C   UNL     1       4.095   2.404   2.468  0.00  0.00    +0.101 C 
ATOM     24  N   UNL     1       3.799   2.854   3.468  0.00  0.00    -0.191 NA
ENDBRANCH  16  23
ENDBRANCH   3   7
BRANCH   1  25
ATOM     25  O   UNL     1      -1.203   2.053   0.019  0.00  0.00    -0.489 OA
BRANCH  25  27
ATOM     26  C   UNL     1      -2.567   4.048   0.036  0.00  0.00    +0.048 C 
ATOM     27  C   UNL     1      -1.146   3.481   0.026  0.00  0.00    +0.226 C 
ENDBRANCH  25  27
ENDBRANCH   1  25
BRANCH   6  28
ATOM     28  O   UNL     1      -1.165  -0.702   0.010  0.00  0.00    -0.484 OA
BRANCH  28  29
ATOM     29  C   UNL     1      -1.069  -2.127   0.001  0.00  0.00    +0.264 C 
BRANCH  29  30
ATOM     30  C   UNL     1      -2.453  -2.724   0.012  0.00  0.00    -0.010 A 
ATOM     31  C   UNL     1      -3.073  -3.009   1.214  0.00  0.00    +0.010 A 
ATOM     32  C   UNL     1      -4.344  -3.552   1.225  0.00  0.00    +0.039 A 
ATOM     33  C   UNL     1      -4.992  -3.820   0.031  0.00  0.00    +0.123 A 
ATOM     34  C   UNL     1      -4.368  -3.538  -1.172  0.00  0.00    +0.039 A 
ATOM     35  C   UNL     1      -3.099  -2.991  -1.181  0.00  0.00    +0.010 A 
ATOM     36  F   UNL     1      -6.233  -4.355   0.041  0.00  0.00    -0.205 F 
ENDBRANCH  29  30
ENDBRANCH  28  29
ENDBRANCH   6  28
TORSDOF 8
