REMARK  Name = ZINC32590428
REMARK  10 active torsions:
REMARK  status: ('A' for Active; 'I' for Inactive)
REMARK    1  A    between atoms: C_1  and  O_2
REMARK    2  A    between atoms: O_2  and  C_3
REMARK    3  A    between atoms: C_3  and  C_4
REMARK    4  A    between atoms: C_4  and  N_5
REMARK    5  A    between atoms: C_6  and  C_8
REMARK    6  A    between atoms: C_11  and  N_23
REMARK    7  A    between atoms: N_14  and  C_15
REMARK    8  A    between atoms: C_15  and  C_16
REMARK    9  A    between atoms: N_23  and  C_24
REMARK   10  A    between atoms: C_24  and  C_25
REMARK                            x       y       z     vdW  Elec       q    Type
REMARK                         _______ _______ _______ _____ _____    ______ ____
ROOT
ATOM      1  C   UNL     1       0.369  -4.328   2.738  0.00  0.00    +0.021 C 
ATOM      2  C   UNL     1       1.782  -3.725   2.844  0.00  0.00    +0.010 C 
ATOM      3  C   UNL     1       2.734  -4.940   2.929  0.00  0.00    +0.036 C 
ATOM      4  C   UNL     1       1.805  -6.073   3.433  0.00  0.00    -0.059 C 
ATOM      5  N   UNL     1       0.520  -5.799   2.735  0.00  0.00    +0.391 N 
ATOM      6  H   UNL     1       0.559  -6.143   1.787  0.00  0.00    -0.080 HD
ENDROOT
BRANCH   1   8
ATOM      7  N   UNL     1      -0.515  -2.565   1.245  0.00  0.00    -0.314 N 
ATOM      8  C   UNL     1      -0.287  -3.876   1.459  0.00  0.00    +0.200 C 
ATOM      9  O   UNL     1      -0.610  -4.693   0.622  0.00  0.00    -0.278 OA
ATOM     10  H   UNL     1      -0.257  -1.913   1.914  0.00  0.00    +0.149 HD
BRANCH   7  11
ATOM     11  C   UNL     1      -1.154  -2.126   0.002  0.00  0.00    +0.132 C 
BRANCH  11  12
ATOM     12  C   UNL     1      -1.295  -0.603   0.011  0.00  0.00    +0.178 C 
BRANCH  12  14
ATOM     13  C   UNL     1      -0.017   1.425   0.010  0.00  0.00    +0.194 C 
ATOM     14  O   UNL     1       0.002  -0.004   0.002  0.00  0.00    -0.381 OA
ENDBRANCH  12  14
ENDBRANCH  11  12
ENDBRANCH   7  11
ENDBRANCH   1   8
BRANCH   3  15
ATOM     15  N   UNL     1       3.817  -4.686   3.888  0.00  0.00    -0.311 NA
ATOM     16  H   UNL     1       3.480  -4.168   4.686  0.00  0.00    +0.122 HD
BRANCH  15  17
ATOM     17  C   UNL     1       4.939  -3.989   3.244  0.00  0.00    +0.117 C 
BRANCH  17  18
ATOM     18  C   UNL     1       6.028  -3.746   4.257  0.00  0.00    -0.026 A 
ATOM     19  C   UNL     1       6.153  -2.526   4.847  0.00  0.00    +0.005 A 
ATOM     20  C   UNL     1       7.154  -2.282   5.786  0.00  0.00    +0.001 A 
ATOM     21  C   UNL     1       8.035  -3.257   6.139  0.00  0.00    +0.008 A 
ATOM     22  C   UNL     1       7.937  -4.529   5.551  0.00  0.00    -0.018 A 
ATOM     23  C   UNL     1       6.915  -4.779   4.601  0.00  0.00    -0.013 A 
ATOM     24  C   UNL     1       6.814  -6.053   4.017  0.00  0.00    +0.009 A 
ATOM     25  C   UNL     1       7.692  -7.030   4.375  0.00  0.00    +0.001 A 
ATOM     26  C   UNL     1       8.693  -6.786   5.314  0.00  0.00    +0.001 A 
ATOM     27  C   UNL     1       8.830  -5.561   5.890  0.00  0.00    +0.008 A 
ENDBRANCH  17  18
ENDBRANCH  15  17
ENDBRANCH   3  15
BRANCH   5  28
ATOM     28  C   UNL     1      -0.597  -6.424   3.457  0.00  0.00    -0.042 C 
BRANCH  28  29
ATOM     29  C   UNL     1      -0.494  -7.923   3.340  0.00  0.00    -0.064 A 
ATOM     30  C   UNL     1      -1.106  -8.577   2.287  0.00  0.00    +0.003 A 
ATOM     31  C   UNL     1      -1.012  -9.952   2.179  0.00  0.00    +0.020 A 
ATOM     32  C   UNL     1      -0.307 -10.673   3.125  0.00  0.00    +0.041 A 
ATOM     33  C   UNL     1       0.305 -10.018   4.179  0.00  0.00    +0.020 A 
ATOM     34  C   UNL     1       0.215  -8.643   4.283  0.00  0.00    +0.003 A 
ATOM     35 CL   UNL     1      -0.190 -12.400   2.990  0.00  0.00    -0.084 Cl
ENDBRANCH  28  29
ENDBRANCH   5  28
TORSDOF 9
