REMARK  Name = ZINC13387875
REMARK  6 active torsions:
REMARK  status: ('A' for Active; 'I' for Inactive)
REMARK    1  A    between atoms: C_1  and  C_2
REMARK    2  A    between atoms: C_2  and  C_4
REMARK    3  A    between atoms: C_2  and  N_10
REMARK    4  A    between atoms: C_11  and  C_13
REMARK    5  A    between atoms: C_17  and  C_28
REMARK    6  A    between atoms: C_20  and  C_24
REMARK                            x       y       z     vdW  Elec       q    Type
REMARK                         _______ _______ _______ _____ _____    ______ ____
ROOT
ATOM      1  C   UNL     1      -3.416  -1.167   1.191  0.00  0.00    +0.110 C 
ATOM      2  C   UNL     1      -4.128  -1.529   0.096  0.00  0.00    +0.072 C 
ATOM      3  C   UNL     1      -5.442  -1.973   0.560  0.00  0.00    +0.114 C 
ATOM      4  N   UNL     1      -6.467  -2.402  -0.120  0.00  0.00    -0.365 N 
ATOM      5  C   UNL     1      -7.700  -2.755   0.595  0.00  0.00    +0.113 C 
ATOM      6  C   UNL     1      -7.377  -3.301   1.986  0.00  0.00    +0.062 C 
ATOM      7  C   UNL     1      -6.572  -2.259   2.779  0.00  0.00    +0.201 C 
ATOM      8  N   UNL     1      -5.431  -1.866   1.945  0.00  0.00    -0.226 N 
ATOM      9  N   UNL     1      -4.193  -1.359   2.323  0.00  0.00    -0.258 N 
ATOM     10  H   UNL     1      -3.917  -1.167   3.233  0.00  0.00    +0.170 HD
ATOM     11  H   UNL     1      -6.417  -2.487  -1.085  0.00  0.00    +0.161 HD
ENDROOT
BRANCH   5  12
ATOM     12  C   UNL     1      -8.563  -1.527   0.732  0.00  0.00    -0.025 A 
ATOM     13  C   UNL     1      -7.985  -0.304   1.015  0.00  0.00    +0.007 A 
ATOM     14  C   UNL     1      -8.777   0.823   1.140  0.00  0.00    +0.015 A 
ATOM     15  C   UNL     1     -10.147   0.725   0.983  0.00  0.00    +0.018 A 
ATOM     16  C   UNL     1     -10.725  -0.499   0.700  0.00  0.00    +0.015 A 
ATOM     17  C   UNL     1      -9.933  -1.624   0.569  0.00  0.00    +0.007 A 
ATOM     18 BR   UNL     1     -11.231   2.266   1.155  0.00  0.00    -0.050 Br
ENDBRANCH   5  12
BRANCH   1  20
ATOM     19  N   UNL     1      -1.372  -0.511   0.012  0.00  0.00    -0.304 N 
ATOM     20  C   UNL     1      -2.029  -0.655   1.181  0.00  0.00    +0.260 C 
ATOM     21  O   UNL     1      -1.480  -0.364   2.226  0.00  0.00    -0.269 OA
ATOM     22  H   UNL     1      -1.810  -0.743  -0.822  0.00  0.00    +0.150 HD
BRANCH  19  24
ATOM     23  C   UNL     1      -0.019   1.526   0.010  0.00  0.00    +0.033 C 
ATOM     24  C   UNL     1       0.002  -0.004   0.002  0.00  0.00    +0.100 C 
BRANCH  24  25
ATOM     25  C   UNL     1       0.707  -0.490  -1.238  0.00  0.00    -0.027 A 
ATOM     26  C   UNL     1       0.038  -0.522  -2.447  0.00  0.00    +0.005 A 
ATOM     27  C   UNL     1       0.685  -0.967  -3.584  0.00  0.00    +0.000 A 
ATOM     28  C   UNL     1       2.002  -1.381  -3.513  0.00  0.00    +0.000 A 
ATOM     29  C   UNL     1       2.672  -1.349  -2.304  0.00  0.00    +0.000 A 
ATOM     30  C   UNL     1       2.026  -0.899  -1.167  0.00  0.00    +0.005 A 
ENDBRANCH  24  25
ENDBRANCH  19  24
ENDBRANCH   1  20
BRANCH   7  31
ATOM     31  C   UNL     1      -6.075  -2.871   4.090  0.00  0.00    +0.410 C 
ATOM     32  F   UNL     1      -5.257  -3.970   3.811  0.00  0.00    -0.169 F 
ATOM     33  F   UNL     1      -5.345  -1.915   4.803  0.00  0.00    -0.169 F 
ATOM     34  F   UNL     1      -7.171  -3.286   4.855  0.00  0.00    -0.169 F 
ENDBRANCH   7  31
TORSDOF 5
