REMARK  Name = ZINC09363975
REMARK  5 active torsions:
REMARK  status: ('A' for Active; 'I' for Inactive)
REMARK    1  A    between atoms: C_4  and  C_7
REMARK    2  A    between atoms: C_7  and  C_29
REMARK    3  A    between atoms: N_10  and  N_14
REMARK    4  A    between atoms: C_15  and  C_17
REMARK    5  A    between atoms: C_17  and  N_63
REMARK                            x       y       z     vdW  Elec       q    Type
REMARK                         _______ _______ _______ _____ _____    ______ ____
ROOT
ATOM      1  C   UNL     1       0.002  -0.004   0.002  0.00  0.00    +0.165 C 
ATOM      2  C   UNL     1       0.419  -0.814   1.214  0.00  0.00    +0.272 C 
ATOM      3  O   UNL     1      -0.201  -0.960   2.245  0.00  0.00    -0.270 OA
ATOM      4  N   UNL     1       1.625  -1.337   0.901  0.00  0.00    -0.137 N 
ATOM      5  C   UNL     1       2.019  -0.974  -0.325  0.00  0.00    +0.327 C 
ATOM      6  O   UNL     1       3.069  -1.321  -0.827  0.00  0.00    -0.251 OA
ATOM      7  N   UNL     1       1.121  -0.181  -0.939  0.00  0.00    -0.276 N 
ATOM      8  H   UNL     1       1.197   0.199  -1.828  0.00  0.00    +0.152 HD
ENDROOT
BRANCH   1  12
ATOM      9  C   UNL     1      -0.455   4.116   1.034  0.00  0.00    +0.000 A 
ATOM     10  C   UNL     1       0.250   3.762  -0.101  0.00  0.00    +0.000 A 
ATOM     11  C   UNL     1       0.399   2.429  -0.435  0.00  0.00    +0.006 A 
ATOM     12  C   UNL     1      -0.159   1.449   0.366  0.00  0.00    -0.011 A 
ATOM     13  C   UNL     1      -0.870   1.804   1.498  0.00  0.00    +0.006 A 
ATOM     14  C   UNL     1      -1.014   3.137   1.834  0.00  0.00    +0.000 A 
ENDBRANCH   1  12
BRANCH   1  15
ATOM     15  C   UNL     1      -1.275  -0.547  -0.585  0.00  0.00    -0.011 A 
ATOM     16  C   UNL     1      -2.388  -0.716   0.218  0.00  0.00    +0.006 A 
ATOM     17  C   UNL     1      -3.561  -1.210  -0.322  0.00  0.00    +0.000 A 
ATOM     18  C   UNL     1      -3.619  -1.543  -1.662  0.00  0.00    +0.000 A 
ATOM     19  C   UNL     1      -2.505  -1.379  -2.464  0.00  0.00    +0.000 A 
ATOM     20  C   UNL     1      -1.333  -0.880  -1.925  0.00  0.00    +0.006 A 
ENDBRANCH   1  15
BRANCH   4  21
ATOM     21  N   UNL     1       2.371  -2.158   1.757  0.00  0.00    -0.225 N 
ATOM     22  C   UNL     1       3.454  -1.665   2.390  0.00  0.00    +0.213 C 
ATOM     23  O   UNL     1       3.782  -0.510   2.220  0.00  0.00    -0.276 OA
ATOM     24  H   UNL     1       2.109  -3.082   1.893  0.00  0.00    +0.173 HD
BRANCH  22  25
ATOM     25  C   UNL     1       4.256  -2.548   3.310  0.00  0.00    +0.020 C 
BRANCH  25  35
ATOM     26  C   UNL     1       4.890  -0.710   4.752  0.00  0.00    -0.078 C 
ATOM     27  C   UNL     1       6.069   0.155   5.206  0.00  0.00    -0.018 C 
ATOM     28  C   UNL     1       7.084  -0.721   5.947  0.00  0.00    +0.000 C 
ATOM     29  C   UNL     1       7.537  -1.854   5.022  0.00  0.00    -0.025 C 
ATOM     30  C   UNL     1       6.315  -2.661   4.579  0.00  0.00    -0.065 C 
ATOM     31  C   UNL     1       6.762  -3.790   3.648  0.00  0.00    -0.015 C 
ATOM     32  C   UNL     1       7.735  -4.707   4.393  0.00  0.00    -0.002 C 
ATOM     33  C   UNL     1       8.955  -3.901   4.842  0.00  0.00    +0.000 C 
ATOM     34  C   UNL     1       8.507  -2.769   5.770  0.00  0.00    +0.002 C 
ATOM     35  N   UNL     1       5.390  -1.769   3.849  0.00  0.00    +0.387 N 
ATOM     36  H   UNL     1       5.894  -1.331   3.070  0.00  0.00    -0.081 HD
ENDBRANCH  25  35
ENDBRANCH  22  25
ENDBRANCH   4  21
TORSDOF 5
