REMARK  Name = ZINC21238385
REMARK  7 active torsions:
REMARK  status: ('A' for Active; 'I' for Inactive)
REMARK    1  A    between atoms: C_1  and  C_2
REMARK    2  A    between atoms: C_2  and  C_4
REMARK    3  A    between atoms: C_2  and  N_12
REMARK    4  A    between atoms: C_13  and  C_15
REMARK    5  A    between atoms: C_15  and  N_16
REMARK    6  A    between atoms: C_19  and  C_23
REMARK    7  A    between atoms: C_19  and  C_24
REMARK                            x       y       z     vdW  Elec       q    Type
REMARK                         _______ _______ _______ _____ _____    ______ ____
ROOT
ATOM      1  N   UNL     1      -1.680  -0.213  -0.865  0.00  0.00    -0.215 N 
ATOM      2  C   UNL     1      -2.462  -0.621   0.153  0.00  0.00    +0.251 C 
ATOM      3  O   UNL     1      -2.147  -0.739   1.318  0.00  0.00    -0.272 OA
ATOM      4  C   UNL     1      -3.820  -0.901  -0.460  0.00  0.00    +0.135 C 
ATOM      5  N   UNL     1      -3.625  -0.597  -1.888  0.00  0.00    -0.281 N 
ATOM      6  C   UNL     1      -2.346  -0.203  -2.026  0.00  0.00    +0.310 C 
ATOM      7  O   UNL     1      -1.850   0.124  -3.086  0.00  0.00    -0.252 OA
ATOM      8  C   UNL     1      -4.203  -2.371  -0.271  0.00  0.00    +0.047 C 
ATOM      9  H   UNL     1      -4.459  -0.715  -2.595  0.00  0.00    +0.152 HD
ENDROOT
BRANCH   4  10
ATOM     10  C   UNL     1      -4.871  -0.000   0.135  0.00  0.00    -0.012 A 
ATOM     11  C   UNL     1      -4.788   0.373   1.464  0.00  0.00    +0.010 A 
ATOM     12  C   UNL     1      -5.750   1.199   2.013  0.00  0.00    +0.050 A 
ATOM     13  C   UNL     1      -6.803   1.654   1.234  0.00  0.00    +0.162 A 
ATOM     14  C   UNL     1      -6.886   1.280  -0.102  0.00  0.00    +0.162 A 
ATOM     15  C   UNL     1      -5.914   0.456  -0.649  0.00  0.00    +0.055 A 
ATOM     16  O   UNL     1      -7.908   1.719  -0.887  0.00  0.00    -0.485 OA
ATOM     17  C   UNL     1      -9.059   2.237  -0.212  0.00  0.00    +0.270 C 
ATOM     18  C   UNL     1      -8.581   3.195   0.888  0.00  0.00    +0.270 C 
ATOM     19  O   UNL     1      -7.748   2.460   1.791  0.00  0.00    -0.485 OA
ENDBRANCH   4  10
BRANCH   1  20
ATOM     20  C   UNL     1      -0.273   0.167  -0.721  0.00  0.00    +0.213 C 
BRANCH  20  22
ATOM     21  N   UNL     1       1.028   2.221  -0.265  0.00  0.00    -0.307 N 
ATOM     22  C   UNL     1      -0.178   1.644  -0.437  0.00  0.00    +0.231 C 
ATOM     23  O   UNL     1      -1.187   2.314  -0.367  0.00  0.00    -0.274 OA
ATOM     24  H   UNL     1       1.943   1.615  -0.332  0.00  0.00    +0.149 HD
BRANCH  21  26
ATOM     25  C   UNL     1       1.010   3.895   1.518  0.00  0.00    +0.033 C 
ATOM     26  C   UNL     1       1.120   3.657   0.011  0.00  0.00    +0.102 C 
BRANCH  26  27
ATOM     27  C   UNL     1       2.443   4.180  -0.485  0.00  0.00    -0.009 A 
ATOM     28  C   UNL     1       3.535   3.336  -0.563  0.00  0.00    +0.008 A 
ATOM     29  C   UNL     1       4.748   3.814  -1.018  0.00  0.00    +0.020 A 
ATOM     30  C   UNL     1       4.872   5.140  -1.396  0.00  0.00    +0.042 A 
ATOM     31  C   UNL     1       3.781   5.986  -1.317  0.00  0.00    +0.040 A 
ATOM     32  C   UNL     1       2.564   5.505  -0.867  0.00  0.00    +0.047 A 
ATOM     33 CL   UNL     1       1.192   6.564  -0.774  0.00  0.00    -0.083 Cl
ATOM     34 CL   UNL     1       6.397   5.741  -1.967  0.00  0.00    -0.083 Cl
ENDBRANCH  26  27
ENDBRANCH  21  26
ENDBRANCH  20  22
ENDBRANCH   1  20
TORSDOF 5
