REMARK  Name = ZINC22852528
REMARK  5 active torsions:
REMARK  status: ('A' for Active; 'I' for Inactive)
REMARK    1  A    between atoms: C_3  and  C_6
REMARK    2  A    between atoms: C_12  and  C_14
REMARK    3  A    between atoms: C_14  and  C_16
REMARK    4  A    between atoms: C_14  and  N_24
REMARK    5  A    between atoms: C_27  and  C_30
REMARK                            x       y       z     vdW  Elec       q    Type
REMARK                         _______ _______ _______ _____ _____    ______ ____
ROOT
ATOM      1  C   UNL     1      -1.293  -0.775   0.010  0.00  0.00    +0.007 C 
ENDROOT
BRANCH   1   8
ATOM      2  C   UNL     1      -2.861  -3.218  -5.205  0.00  0.00    +0.218 A 
ATOM      3  N   UNL     1      -3.019  -1.895  -5.062  0.00  0.00    -0.197 NA
ATOM      4  C   UNL     1      -2.627  -1.540  -3.870  0.00  0.00    +0.200 A 
ATOM      5  N   UNL     1      -2.192  -2.639  -3.181  0.00  0.00    -0.169 N 
ATOM      6  N   UNL     1      -2.363  -3.713  -4.092  0.00  0.00    -0.138 NA
ATOM      7  C   UNL     1      -1.743  -2.436  -1.899  0.00  0.00    +0.282 A 
ATOM      8  C   UNL     1      -1.738  -1.210  -1.363  0.00  0.00    +0.050 A 
ATOM      9  S   UNL     1      -2.404  -0.226  -2.696  0.00  0.00    -0.050 S 
ATOM     10  O   UNL     1      -1.298  -3.493  -1.166  0.00  0.00    -0.265 OA
BRANCH   2  13
ATOM     11  C   UNL     1      -3.863  -4.581  -8.453  0.00  0.00    +0.042 A 
ATOM     12  C   UNL     1      -3.706  -3.493  -7.571  0.00  0.00    +0.053 A 
ATOM     13  C   UNL     1      -3.192  -3.995  -6.417  0.00  0.00    +0.173 A 
ATOM     14  O   UNL     1      -3.032  -5.324  -6.572  0.00  0.00    -0.460 OA
ATOM     15  C   UNL     1      -3.443  -5.682  -7.800  0.00  0.00    +0.196 A 
ENDBRANCH   2  13
ENDBRANCH   1   8
BRANCH   1  16
ATOM     16  C   UNL     1      -0.022   0.027  -0.105  0.00  0.00    -0.038 A 
ATOM     17  C   UNL     1      -0.081   1.404  -0.207  0.00  0.00    +0.005 A 
ATOM     18  C   UNL     1       1.084   2.140  -0.313  0.00  0.00    +0.020 A 
ATOM     19  C   UNL     1       2.310   1.499  -0.317  0.00  0.00    +0.042 A 
ATOM     20  C   UNL     1       2.370   0.121  -0.215  0.00  0.00    +0.040 A 
ATOM     21  C   UNL     1       1.203  -0.615  -0.109  0.00  0.00    +0.044 A 
ATOM     22 CL   UNL     1       1.277  -2.345   0.019  0.00  0.00    -0.083 Cl
ATOM     23 CL   UNL     1       3.773   2.424  -0.450  0.00  0.00    -0.083 Cl
ENDBRANCH   1  16
BRANCH   1  24
ATOM     24  N   UNL     1      -2.340   0.052   0.625  0.00  0.00    +0.388 N 
ATOM     25  C   UNL     1      -3.643  -0.623   0.569  0.00  0.00    -0.077 C 
ATOM     26  C   UNL     1      -4.730   0.323   1.084  0.00  0.00    -0.006 C 
ATOM     27  C   UNL     1      -4.406   0.730   2.525  0.00  0.00    +0.071 C 
ATOM     28  C   UNL     1      -3.023   1.386   2.562  0.00  0.00    -0.006 C 
ATOM     29  C   UNL     1      -1.985   0.409   2.004  0.00  0.00    -0.077 C 
ATOM     30  H   UNL     1      -2.420   0.984   0.047  0.00  0.00    -0.080 HD
BRANCH  27  31
ATOM     31  C   UNL     1      -5.441   1.708   3.017  0.00  0.00    +0.213 C 
ATOM     32  O   UNL     1      -5.107   2.821   3.364  0.00  0.00    -0.276 OA
ATOM     33  N   UNL     1      -6.738   1.346   3.071  0.00  0.00    -0.329 N 
ATOM     34  H   UNL     1      -7.494   2.060   3.431  0.00  0.00    +0.145 HD
ATOM     35  H   UNL     1      -7.042   0.337   2.756  0.00  0.00    +0.145 HD
ENDBRANCH  27  31
ENDBRANCH   1  24
TORSDOF 5
