REMARK  Name = ZINC24807772
REMARK  8 active torsions:
REMARK  status: ('A' for Active; 'I' for Inactive)
REMARK    1  A    between atoms: C_1  and  C_2
REMARK    2  A    between atoms: C_2  and  O_3
REMARK    3  A    between atoms: O_3  and  C_4
REMARK    4  A    between atoms: C_12  and  C_14
REMARK    5  A    between atoms: C_14  and  N_15
REMARK    6  A    between atoms: N_15  and  C_16
REMARK    7  A    between atoms: C_16  and  C_18
REMARK    8  A    between atoms: C_16  and  C_19
REMARK                            x       y       z     vdW  Elec       q    Type
REMARK                         _______ _______ _______ _____ _____    ______ ____
ROOT
ATOM      1  C   UNL     1      -3.637   5.721  -1.076  0.00  0.00    +0.016 C 
ENDROOT
BRANCH   1  10
ATOM      2  C   UNL     1      -7.596  10.145  -2.746  0.00  0.00    +0.403 C 
ATOM      3  O   UNL     1      -7.415  11.251  -3.217  0.00  0.00    -0.226 OA
ATOM      4  N   UNL     1      -6.569   9.476  -2.186  0.00  0.00    -0.264 N 
ATOM      5  C   UNL     1      -5.226  10.070  -2.137  0.00  0.00    +0.130 C 
ATOM      6  C   UNL     1      -4.236   9.100  -2.793  0.00  0.00    +0.127 C 
ATOM      7  N   UNL     1      -4.439   7.762  -2.220  0.00  0.00    -0.300 N 
ATOM      8  C   UNL     1      -5.781   7.165  -2.274  0.00  0.00    +0.127 C 
ATOM      9  C   UNL     1      -6.772   8.138  -1.613  0.00  0.00    +0.130 C 
ATOM     10  C   UNL     1      -3.413   7.093  -1.660  0.00  0.00    +0.199 C 
ATOM     11  O   UNL     1      -2.309   7.593  -1.625  0.00  0.00    -0.278 OA
BRANCH   2  12
ATOM     12  O   UNL     1      -8.821   9.589  -2.785  0.00  0.00    -0.451 OA
BRANCH  12  14
ATOM     13  C   UNL     1     -11.189   9.578  -3.354  0.00  0.00    +0.048 C 
ATOM     14  C   UNL     1      -9.879  10.368  -3.403  0.00  0.00    +0.230 C 
ENDBRANCH  12  14
ENDBRANCH   2  12
ENDBRANCH   1  10
BRANCH   1  15
ATOM     15  N   UNL     1      -2.373   5.209  -0.531  0.00  0.00    +0.389 N 
ATOM     16  H   UNL     1      -1.625   5.147  -1.336  0.00  0.00    -0.084 HD
ATOM     17  H   UNL     1      -2.010   5.887   0.255  0.00  0.00    -0.084 HD
BRANCH  15  18
ATOM     18  C   UNL     1      -2.553   3.871   0.048  0.00  0.00    -0.042 C 
ATOM     19  C   UNL     1      -3.045   4.002   1.490  0.00  0.00    -0.009 C 
BRANCH  18  20
ATOM     20  C   UNL     1      -1.238   3.135   0.031  0.00  0.00    -0.043 A 
ATOM     21  C   UNL     1      -0.050   3.842   0.024  0.00  0.00    +0.005 A 
ATOM     22  C   UNL     1       1.156   3.167   0.008  0.00  0.00    +0.020 A 
ATOM     23  C   UNL     1       1.175   1.784   0.000  0.00  0.00    +0.042 A 
ATOM     24  C   UNL     1      -0.013   1.076   0.008  0.00  0.00    +0.040 A 
ATOM     25  C   UNL     1      -1.220   1.752   0.017  0.00  0.00    +0.044 A 
ATOM     26 CL   UNL     1      -2.712   0.864   0.019  0.00  0.00    -0.083 Cl
ATOM     27 CL   UNL     1       2.691   0.937  -0.018  0.00  0.00    -0.083 Cl
ENDBRANCH  18  20
ENDBRANCH  15  18
ENDBRANCH   1  15
TORSDOF 6
