REMARK  Name = ZINC20876229
REMARK  12 active torsions:
REMARK  status: ('A' for Active; 'I' for Inactive)
REMARK    1  A    between atoms: C_1  and  O_2
REMARK    2  A    between atoms: O_2  and  C_3
REMARK    3  A    between atoms: C_7  and  C_19
REMARK    4  A    between atoms: C_8  and  O_9
REMARK    5  A    between atoms: O_9  and  C_10
REMARK    6  A    between atoms: C_10  and  C_11
REMARK    7  A    between atoms: C_19  and  N_20
REMARK    8  A    between atoms: N_20  and  C_21
REMARK    9  A    between atoms: C_21  and  C_22
REMARK   10  A    between atoms: C_22  and  N_23
REMARK   11  A    between atoms: N_23  and  C_24
REMARK   12  A    between atoms: C_27  and  N_30
REMARK                            x       y       z     vdW  Elec       q    Type
REMARK                         _______ _______ _______ _____ _____    ______ ____
ROOT
ATOM      1  C   UNL     1       6.632  -7.948   1.076  0.00  0.00    +0.162 A 
ATOM      2  C   UNL     1       7.133  -8.445  -0.117  0.00  0.00    +0.049 A 
ATOM      3  C   UNL     1       6.407  -8.300  -1.285  0.00  0.00    +0.004 A 
ATOM      4  C   UNL     1       5.179  -7.665  -1.265  0.00  0.00    +0.005 A 
ATOM      5  C   UNL     1       4.677  -7.162  -0.080  0.00  0.00    -0.019 A 
ATOM      6  C   UNL     1       5.399  -7.304   1.094  0.00  0.00    +0.164 A 
ENDROOT
BRANCH   1   8
ATOM      7  C   UNL     1       8.603  -8.761   2.130  0.00  0.00    +0.277 C 
ATOM      8  O   UNL     1       7.345  -8.089   2.225  0.00  0.00    -0.491 OA
ENDBRANCH   1   8
BRANCH   6   9
ATOM      9  O   UNL     1       4.903  -6.815   2.263  0.00  0.00    -0.483 OA
BRANCH   9  10
ATOM     10  C   UNL     1       4.089  -7.695   3.041  0.00  0.00    +0.266 C 
BRANCH  10  11
ATOM     11  C   UNL     1       3.634  -6.985   4.290  0.00  0.00    +0.008 A 
ATOM     12  C   UNL     1       4.021  -5.678   4.522  0.00  0.00    +0.011 A 
ATOM     13  C   UNL     1       3.604  -5.026   5.666  0.00  0.00    +0.039 A 
ATOM     14  C   UNL     1       2.797  -5.682   6.582  0.00  0.00    +0.125 A 
ATOM     15  C   UNL     1       2.410  -6.990   6.350  0.00  0.00    +0.058 A 
ATOM     16  C   UNL     1       2.825  -7.640   5.201  0.00  0.00    +0.050 A 
ATOM     17 CL   UNL     1       2.334  -9.279   4.905  0.00  0.00    -0.083 Cl
ATOM     18  F   UNL     1       2.389  -5.045   7.701  0.00  0.00    -0.205 F 
ENDBRANCH  10  11
ENDBRANCH   9  10
ENDBRANCH   6   9
BRANCH   5  19
ATOM     19  C   UNL     1       3.341  -6.466  -0.063  0.00  0.00    -0.043 C 
BRANCH  19  20
ATOM     20  N   UNL     1       3.547  -5.011  -0.058  0.00  0.00    +0.383 N 
ATOM     21  H   UNL     1       4.120  -4.726   0.836  0.00  0.00    -0.085 HD
ATOM     22  H   UNL     1       4.103  -4.716  -0.960  0.00  0.00    -0.085 HD
BRANCH  20  23
ATOM     23  C   UNL     1       2.263  -4.298  -0.042  0.00  0.00    -0.063 C 
BRANCH  23  24
ATOM     24  C   UNL     1       2.518  -2.789  -0.037  0.00  0.00    +0.082 C 
BRANCH  24  25
ATOM     25  N   UNL     1       1.238  -2.077  -0.021  0.00  0.00    -0.346 N 
ATOM     26  H   UNL     1       0.294  -2.643  -0.014  0.00  0.00    +0.146 HD
BRANCH  25  27
ATOM     27  C   UNL     1       1.215  -0.681  -0.013  0.00  0.00    +0.027 A 
ATOM     28  C   UNL     1       0.002  -0.004   0.002  0.00  0.00    +0.025 A 
ATOM     29  C   UNL     1      -0.017   1.377   0.010  0.00  0.00    +0.034 A 
ATOM     30  C   UNL     1       1.171   2.086   0.002  0.00  0.00    +0.126 A 
ATOM     31  C   UNL     1       2.380   1.416  -0.013  0.00  0.00    +0.034 A 
ATOM     32  C   UNL     1       2.406   0.035  -0.021  0.00  0.00    +0.025 A 
BRANCH  30  33
ATOM     33  N   UNL     1       1.147   3.566   0.010  0.00  0.00    +0.056 N 
ATOM     34  O   UNL     1       0.082   4.158   0.023  0.00  0.00    -0.126 OA
ATOM     35  O   UNL     1       2.191   4.192   0.003  0.00  0.00    -0.126 OA
ENDBRANCH  30  33
ENDBRANCH  25  27
ENDBRANCH  24  25
ENDBRANCH  23  24
ENDBRANCH  20  23
ENDBRANCH  19  20
ENDBRANCH   5  19
TORSDOF 11
