REMARK  Name = ZINC39355179
REMARK  6 active torsions:
REMARK  status: ('A' for Active; 'I' for Inactive)
REMARK    1  A    between atoms: C_1  and  C_2
REMARK    2  A    between atoms: C_8  and  C_20
REMARK    3  A    between atoms: C_10  and  C_16
REMARK    4  A    between atoms: C_11  and  N_15
REMARK    5  A    between atoms: C_16  and  O_18
REMARK    6  A    between atoms: O_18  and  C_19
REMARK                            x       y       z     vdW  Elec       q    Type
REMARK                         _______ _______ _______ _____ _____    ______ ____
ROOT
ATOM      1  C   UNL     1      -0.046   1.516   0.051  0.00  0.00    +0.063 C 
ATOM      2  C   UNL     1      -0.037   0.009   0.020  0.00  0.00    +0.034 C 
ATOM      3  N   UNL     1      -0.097  -0.583  -1.148  0.00  0.00    -0.185 NA
ATOM      4  C   UNL     1      -0.085  -1.909  -1.297  0.00  0.00    +0.248 C 
ATOM      5  O   UNL     1      -0.160  -2.414  -2.399  0.00  0.00    -0.273 OA
ATOM      6  C   UNL     1       0.025  -2.768  -0.053  0.00  0.00    +0.155 C 
ATOM      7  C   UNL     1      -1.232  -3.643   0.005  0.00  0.00    +0.080 C 
ATOM      8  C   UNL     1      -1.328  -4.306   1.351  0.00  0.00    +0.102 C 
ATOM      9  C   UNL     1      -0.696  -3.834   2.452  0.00  0.00    +0.194 C 
ATOM     10  O   UNL     1       0.087  -2.731   2.407  0.00  0.00    -0.445 OA
ATOM     11  C   UNL     1       0.082  -2.018   1.268  0.00  0.00    +0.122 C 
ATOM     12  C   UNL     1       0.040  -0.671   1.239  0.00  0.00    +0.063 C 
ENDROOT
BRANCH   7  13
ATOM     13  C   UNL     1      -1.157  -4.698  -1.068  0.00  0.00    -0.037 A 
ATOM     14  C   UNL     1      -0.119  -5.612  -1.068  0.00  0.00    +0.006 A 
ATOM     15  C   UNL     1      -0.050  -6.580  -2.052  0.00  0.00    +0.022 A 
ATOM     16  C   UNL     1      -1.020  -6.636  -3.037  0.00  0.00    +0.059 A 
ATOM     17  C   UNL     1      -2.059  -5.722  -3.036  0.00  0.00    +0.060 A 
ATOM     18  C   UNL     1      -2.130  -4.757  -2.048  0.00  0.00    +0.025 A 
ATOM     19 CL   UNL     1      -3.277  -5.791  -4.272  0.00  0.00    -0.082 Cl
ATOM     20 CL   UNL     1      -0.932  -7.851  -4.273  0.00  0.00    -0.082 Cl
ENDBRANCH   7  13
BRANCH   9  21
ATOM     21  N   UNL     1      -0.853  -4.490   3.643  0.00  0.00    -0.329 N 
ATOM     22  H   UNL     1      -1.348  -5.324   3.675  0.00  0.00    +0.145 HD
ATOM     23  H   UNL     1      -0.470  -4.122   4.454  0.00  0.00    +0.145 HD
ENDBRANCH   9  21
BRANCH   8  24
ATOM     24  C   UNL     1      -2.109  -5.466   1.473  0.00  0.00    +0.340 C 
ATOM     25  O   UNL     1      -3.323  -5.380   1.525  0.00  0.00    -0.245 OA
BRANCH  24  26
ATOM     26  O   UNL     1      -1.515  -6.678   1.532  0.00  0.00    -0.465 OA
ATOM     27  C   UNL     1      -2.371  -7.815   1.656  0.00  0.00    +0.280 C 
ENDBRANCH  24  26
ENDBRANCH   8  24
TORSDOF 4
