REMARK  Name = ZINC21234524
REMARK  9 active torsions:
REMARK  status: ('A' for Active; 'I' for Inactive)
REMARK    1  A    between atoms: C_1  and  N_2
REMARK    2  A    between atoms: N_2  and  C_3
REMARK    3  A    between atoms: N_2  and  C_4
REMARK    4  A    between atoms: C_7  and  C_10
REMARK    5  A    between atoms: C_15  and  C_25
REMARK    6  A    between atoms: C_27  and  O_33
REMARK    7  A    between atoms: C_30  and  O_31
REMARK    8  A    between atoms: O_31  and  C_32
REMARK    9  A    between atoms: O_33  and  C_34
REMARK                            x       y       z     vdW  Elec       q    Type
REMARK                         _______ _______ _______ _____ _____    ______ ____
ROOT
ATOM      1  C   UNL     1      -0.335   1.761   1.066  0.00  0.00    +0.032 C 
ATOM      2  C   UNL     1      -1.745   1.165   1.114  0.00  0.00    +0.059 C 
ATOM      3  C   UNL     1      -2.562   1.671  -0.064  0.00  0.00    +0.017 C 
ATOM      4  C   UNL     1      -1.969   1.920  -1.243  0.00  0.00    +0.037 C 
ATOM      5  C   UNL     1      -2.662   2.387  -2.502  0.00  0.00    +0.140 C 
ATOM      6  N   UNL     1      -4.028   2.821  -2.306  0.00  0.00    -0.331 N 
ATOM      7  C   UNL     1      -5.016   1.928  -1.894  0.00  0.00    +0.049 A 
ATOM      8  C   UNL     1      -6.052   1.557  -2.736  0.00  0.00    +0.025 A 
ATOM      9  C   UNL     1      -6.949   0.587  -2.324  0.00  0.00    +0.002 A 
ATOM     10  C   UNL     1      -6.817  -0.007  -1.082  0.00  0.00    +0.002 A 
ATOM     11  C   UNL     1      -5.795   0.377  -0.230  0.00  0.00    +0.025 A 
ATOM     12  C   UNL     1      -4.907   1.358  -0.634  0.00  0.00    +0.052 A 
ATOM     13  N   UNL     1      -3.887   1.822   0.188  0.00  0.00    -0.316 N 
ATOM     14  C   UNL     1      -0.572   1.752  -1.389  0.00  0.00    +0.163 C 
ATOM     15  O   UNL     1      -0.066   1.966  -2.473  0.00  0.00    -0.292 OA
ATOM     16  C   UNL     1       0.308   1.319  -0.254  0.00  0.00    +0.088 C 
ATOM     17  H   UNL     1      -4.303   3.872  -2.483  0.00  0.00    +0.147 HD
ATOM     18  H   UNL     1      -4.217   2.342   1.099  0.00  0.00    +0.152 HD
ENDROOT
BRANCH   1  22
ATOM     19  C   UNL     1       1.978   0.318   4.357  0.00  0.00    +0.029 A 
ATOM     20  C   UNL     1       1.784   1.683   4.188  0.00  0.00    +0.023 A 
ATOM     21  C   UNL     1       1.036   2.146   3.124  0.00  0.00    +0.006 A 
ATOM     22  C   UNL     1       0.481   1.252   2.226  0.00  0.00    -0.043 A 
ATOM     23  C   UNL     1       0.668  -0.108   2.394  0.00  0.00    +0.006 A 
ATOM     24  C   UNL     1       1.419  -0.577   3.454  0.00  0.00    +0.023 A 
BRANCH  19  26
ATOM     25  C   UNL     1       3.324   0.792   6.384  0.00  0.00    +0.129 C 
ATOM     26  N   UNL     1       2.735  -0.154   5.433  0.00  0.00    -0.336 N 
ATOM     27  C   UNL     1       2.939  -1.594   5.609  0.00  0.00    +0.129 C 
ENDBRANCH  19  26
ENDBRANCH   1  22
BRANCH   5  28
ATOM     28  C   UNL     1      -2.656   1.257  -3.498  0.00  0.00    +0.022 A 
ATOM     29  C   UNL     1      -2.408  -0.035  -3.076  0.00  0.00    +0.055 A 
ATOM     30  C   UNL     1      -2.407  -1.075  -3.993  0.00  0.00    +0.121 A 
ATOM     31  C   UNL     1      -2.646  -0.818  -5.335  0.00  0.00    +0.049 A 
ATOM     32  C   UNL     1      -2.889   0.475  -5.758  0.00  0.00    +0.049 A 
ATOM     33  C   UNL     1      -2.894   1.515  -4.840  0.00  0.00    +0.126 A 
BRANCH  33  34
ATOM     34  O   UNL     1      -3.134   2.787  -5.256  0.00  0.00    -0.495 OA
ATOM     35  C   UNL     1      -3.371   2.980  -6.652  0.00  0.00    +0.277 C 
ENDBRANCH  33  34
BRANCH  30  36
ATOM     36  O   UNL     1      -2.167  -2.348  -3.577  0.00  0.00    -0.495 OA
ATOM     37  C   UNL     1      -2.177  -3.369  -4.577  0.00  0.00    +0.277 C 
ENDBRANCH  30  36
ENDBRANCH   5  28
TORSDOF 5
