REMARK  Name = ZINC13236191
REMARK  10 active torsions:
REMARK  status: ('A' for Active; 'I' for Inactive)
REMARK    1  A    between atoms: C_2  and  C_3
REMARK    2  A    between atoms: C_3  and  N_4
REMARK    3  A    between atoms: N_4  and  C_5
REMARK    4  A    between atoms: C_5  and  C_6
REMARK    5  A    between atoms: C_12  and  C_14
REMARK    6  A    between atoms: C_14  and  N_15
REMARK    7  A    between atoms: N_18  and  CA_19
REMARK    8  A    between atoms: CA_19  and  CB_21
REMARK    9  A    between atoms: CA_19  and  C_32
REMARK   10  A    between atoms: CB_21  and  CG_22
REMARK                            x       y       z     vdW  Elec       q    Type
REMARK                         _______ _______ _______ _____ _____    ______ ____
ROOT
ATOM      1  N   UNK A   0       5.858   1.620  -3.944  0.00  0.00    -0.291 N 
ATOM      2  C   UNK A   0       6.342   1.724  -5.197  0.00  0.00    +0.301 C 
ATOM      3  O   UNK A   0       6.296   0.768  -5.947  0.00  0.00    -0.253 OA
ATOM      4  N   TRP A   1       6.877   2.886  -5.619  0.00  0.00    -0.286 N 
ATOM      5  H   UNK A   0       5.894   2.383  -3.345  0.00  0.00    +0.151 HD
ATOM      6  H   TRP A   1       6.913   3.649  -5.021  0.00  0.00    +0.151 HD
ENDROOT
BRANCH   1   7
ATOM      7  C   UNK A   0       5.276   0.356  -3.485  0.00  0.00    +0.201 C 
BRANCH   7   9
ATOM      8  N   UNK A   0       4.242  -0.538  -1.424  0.00  0.00    -0.292 N 
ATOM      9  C   UNK A   0       4.813   0.504  -2.058  0.00  0.00    +0.233 C 
ATOM     10  O   UNK A   0       4.955   1.562  -1.482  0.00  0.00    -0.274 OA
BRANCH   8  11
ATOM     11  C   UNK A   0       4.071  -1.815  -2.120  0.00  0.00    +0.135 C 
BRANCH  11  13
ATOM     12  C   UNK A   0       2.670  -2.077  -4.103  0.00  0.00    +0.005 C 
ATOM     13  C   UNK A   0       2.735  -1.833  -2.817  0.00  0.00    -0.016 C 
ENDBRANCH  11  13
ENDBRANCH   8  11
BRANCH   8  14
ATOM     14  C   UNK A   0       3.792  -0.394  -0.037  0.00  0.00    +0.150 C 
BRANCH  14  15
ATOM     15  C   UNK A   0       2.360   0.077  -0.020  0.00  0.00    +0.009 A 
ATOM     16  C   UNK A   0       1.221  -0.657  -0.013  0.00  0.00    +0.014 A 
ATOM     17  C   UNK A   0       0.002  -0.004   0.002  0.00  0.00    +0.028 A 
ATOM     18  C   UNK A   0      -0.016   1.352   0.009  0.00  0.00    +0.078 A 
ATOM     19  S   UNK A   0       1.725   1.745  -0.005  0.00  0.00    -0.080 S 
ATOM     20 CL   UNK A   0      -1.379   2.427   0.022  0.00  0.00    -0.076 Cl
ENDBRANCH  14  15
ENDBRANCH   8  14
ENDBRANCH   7   9
ENDBRANCH   1   7
BRANCH   4  21
ATOM     21  CA  TRP A   1       7.403   2.999  -6.982  0.00  0.00    +0.192 C 
BRANCH  21  22
ATOM     22  C   TRP A   1       6.280   3.339  -7.928  0.00  0.00    +0.376 C 
ATOM     23  O   TRP A   1       5.155   3.474  -7.506  0.00  0.00    -0.244 OA
ATOM     24  OXT TRP A   1       6.529   3.492  -9.238  0.00  0.00    -0.244 OA
ENDBRANCH  21  22
BRANCH  21  25
ATOM     25  CB  TRP A   1       8.462   4.102  -7.030  0.00  0.00    +0.071 C 
BRANCH  25  26
ATOM     26  CG  TRP A   1       9.640   3.705  -6.179  0.00  0.00    -0.020 A 
ATOM     27  CD1 TRP A   1       9.856   4.053  -4.901  0.00  0.00    +0.087 A 
ATOM     28  NE1 TRP A   1      11.028   3.503  -4.458  0.00  0.00    -0.360 N 
ATOM     29  HE1 TRP A   1      11.394   3.613  -3.567  0.00  0.00    +0.165 HD
ATOM     30  CE2 TRP A   1      11.615   2.776  -5.470  0.00  0.00    +0.047 A 
ATOM     31  CD2 TRP A   1      10.771   2.870  -6.592  0.00  0.00    +0.003 A 
ATOM     32  CE3 TRP A   1      11.116   2.222  -7.779  0.00  0.00    +0.010 A 
ATOM     33  CZ3 TRP A   1      12.274   1.498  -7.845  0.00  0.00    +0.001 A 
ATOM     34  CH2 TRP A   1      13.109   1.403  -6.741  0.00  0.00    +0.002 A 
ATOM     35  CZ2 TRP A   1      12.788   2.034  -5.560  0.00  0.00    +0.026 A 
ENDBRANCH  25  26
ENDBRANCH  21  25
ENDBRANCH   4  21
TORSDOF 10
