REMARK  Name = ZINC09469452
REMARK  9 active torsions:
REMARK  status: ('A' for Active; 'I' for Inactive)
REMARK    1  A    between atoms: C_1  and  C_2
REMARK    2  A    between atoms: C_3  and  C_35
REMARK    3  A    between atoms: C_11  and  C_13
REMARK    4  A    between atoms: C_13  and  S_14
REMARK    5  A    between atoms: S_14  and  C_15
REMARK    6  A    between atoms: C_18  and  C_27
REMARK    7  A    between atoms: N_19  and  C_20
REMARK    8  A    between atoms: C_27  and  C_29
REMARK    9  A    between atoms: C_27  and  N_61
REMARK                            x       y       z     vdW  Elec       q    Type
REMARK                         _______ _______ _______ _____ _____    ______ ____
ROOT
ATOM      1  C   UNL     1       0.459  -0.819  -0.997  0.00  0.00    +0.196 A 
ATOM      2  N   UNL     1       0.294  -2.056  -0.589  0.00  0.00    -0.122 NA
ATOM      3  N   UNL     1      -0.238  -2.064   0.581  0.00  0.00    -0.135 NA
ATOM      4  C   UNL     1      -0.438  -0.843   0.991  0.00  0.00    +0.125 A 
ATOM      5  N   UNL     1       0.002  -0.004   0.002  0.00  0.00    -0.275 N 
ENDROOT
BRANCH   5   6
ATOM      6  C   UNL     1      -0.017   1.399   0.010  0.00  0.00    +0.050 A 
ATOM      7  C   UNL     1      -1.228   2.078   0.019  0.00  0.00    +0.029 A 
ATOM      8  C   UNL     1      -1.245   3.458   0.032  0.00  0.00    +0.040 A 
ATOM      9  C   UNL     1      -0.054   4.166   0.024  0.00  0.00    +0.124 A 
ATOM     10  C   UNL     1       1.154   3.491   0.009  0.00  0.00    +0.040 A 
ATOM     11  C   UNL     1       1.175   2.110   0.002  0.00  0.00    +0.029 A 
ATOM     12  F   UNL     1      -0.073   5.517   0.030  0.00  0.00    -0.205 F 
ENDBRANCH   5   6
BRANCH   4  13
ATOM     13  C   UNL     1      -1.042  -0.431   2.309  0.00  0.00    -0.002 C 
ATOM     14  C   UNL     1      -0.018  -0.637   3.426  0.00  0.00    -0.005 C 
BRANCH  13  20
ATOM     15  C   UNL     1      -3.198  -1.155   1.476  0.00  0.00    -0.078 C 
ATOM     16  C   UNL     1      -4.353  -2.127   1.723  0.00  0.00    -0.019 C 
ATOM     17  C   UNL     1      -5.031  -1.781   3.051  0.00  0.00    -0.004 C 
ATOM     18  C   UNL     1      -3.993  -1.840   4.176  0.00  0.00    -0.019 C 
ATOM     19  C   UNL     1      -2.849  -0.875   3.858  0.00  0.00    -0.078 C 
ATOM     20  N   UNL     1      -2.222  -1.278   2.581  0.00  0.00    +0.386 N 
ATOM     21  H   UNL     1      -1.921  -2.257   2.652  0.00  0.00    -0.081 HD
ENDBRANCH  13  20
ENDBRANCH   4  13
BRANCH   1  22
ATOM     22  S   UNL     1       1.143  -0.306  -2.538  0.00  0.00    -0.078 S 
BRANCH  22  23
ATOM     23  C   UNL     1       1.494  -1.919  -3.279  0.00  0.00    +0.151 C 
BRANCH  23  34
ATOM     24  C   UNL     1       4.235  -2.006  -9.396  0.00  0.00    +0.045 C 
ATOM     25  C   UNL     1       3.779  -0.966  -8.406  0.00  0.00    -0.026 A 
ATOM     26  C   UNL     1       3.893   0.341  -8.692  0.00  0.00    -0.008 A 
ATOM     27  S   UNL     1       3.234   1.140  -7.241  0.00  0.00    -0.073 S 
ATOM     28  C   UNL     1       2.826  -0.303  -6.294  0.00  0.00    +0.116 A 
ATOM     29  C   UNL     1       3.213  -1.365  -7.131  0.00  0.00    +0.075 A 
ATOM     30  C   UNL     1       2.992  -2.680  -6.606  0.00  0.00    +0.260 A 
ATOM     31  O   UNL     1       3.295  -3.666  -7.256  0.00  0.00    -0.267 OA
ATOM     32  N   UNL     1       2.451  -2.810  -5.380  0.00  0.00    -0.310 N 
ATOM     33  H   UNL     1       2.303  -3.697  -5.018  0.00  0.00    +0.170 HD
ATOM     34  C   UNL     1       2.103  -1.724  -4.643  0.00  0.00    +0.121 A 
ATOM     35  N   UNL     1       2.291  -0.513  -5.094  0.00  0.00    -0.226 NA
ATOM     36  C   UNL     1       4.445   0.979  -9.941  0.00  0.00    +0.052 C 
ENDBRANCH  23  34
ENDBRANCH  22  23
ENDBRANCH   1  22
TORSDOF 6
