REMARK  Name = ZINC19901368
REMARK  13 active torsions:
REMARK  status: ('A' for Active; 'I' for Inactive)
REMARK    1  A    between atoms: C_1  and  C_2
REMARK    2  A    between atoms: C_4  and  O_11
REMARK    3  A    between atoms: C_7  and  C_8
REMARK    4  A    between atoms: C_8  and  C_9
REMARK    5  A    between atoms: C_8  and  C_10
REMARK    6  A    between atoms: O_11  and  C_12
REMARK    7  A    between atoms: C_12  and  C_13
REMARK    8  A    between atoms: C_13  and  C_15
REMARK    9  A    between atoms: C_13  and  O_39
REMARK   10  A    between atoms: C_15  and  N_16
REMARK   11  A    between atoms: N_19  and  C_22
REMARK   12  A    between atoms: C_22  and  C_23
REMARK   13  A    between atoms: C_23  and  N_24
REMARK                            x       y       z     vdW  Elec       q    Type
REMARK                         _______ _______ _______ _____ _____    ______ ____
ROOT
ATOM      1  N   UNL     1       0.220   0.836  -2.319  0.00  0.00    -0.303 NA
ATOM      2  C   UNL     1      -1.198   0.478  -2.463  0.00  0.00    +0.066 C 
ATOM      3  C   UNL     1      -1.815   1.296  -3.600  0.00  0.00    -0.063 C 
ATOM      4  N   UNL     1      -1.080   1.033  -4.845  0.00  0.00    +0.382 N 
ATOM      5  C   UNL     1       0.338   1.391  -4.701  0.00  0.00    -0.063 C 
ATOM      6  C   UNL     1       0.956   0.573  -3.564  0.00  0.00    +0.066 C 
ATOM      7  H   UNL     1      -1.138  -0.046  -5.053  0.00  0.00    -0.082 HD
ENDROOT
BRANCH   1   8
ATOM      8  C   UNL     1       0.830   0.126  -1.187  0.00  0.00    +0.119 C 
BRANCH   8   9
ATOM      9  C   UNL     1       0.201   0.613   0.119  0.00  0.00    +0.166 C 
BRANCH   9  10
ATOM     10  O   UNL     1       0.424   2.018   0.261  0.00  0.00    -0.387 OA
ATOM     11  H   UNL     1       0.038   2.715  -0.496  0.00  0.00    +0.210 HD
ENDBRANCH   9  10
BRANCH   9  12
ATOM     12  C   UNL     1       0.836  -0.126   1.298  0.00  0.00    +0.261 C 
BRANCH  12  13
ATOM     13  O   UNL     1       0.170   0.243   2.507  0.00  0.00    -0.489 OA
BRANCH  13  17
ATOM     14  C   UNL     1      -0.185  -0.260   7.349  0.00  0.00    +0.044 C 
ATOM     15  C   UNL     1       0.468  -0.599   6.034  0.00  0.00    -0.044 A 
ATOM     16  C   UNL     1       0.013  -0.017   4.867  0.00  0.00    +0.049 A 
ATOM     17  C   UNL     1       0.615  -0.329   3.657  0.00  0.00    +0.121 A 
ATOM     18  C   UNL     1       1.669  -1.231   3.621  0.00  0.00    +0.046 A 
ATOM     19  C   UNL     1       2.124  -1.806   4.792  0.00  0.00    +0.008 A 
ATOM     20  C   UNL     1       1.522  -1.493   5.997  0.00  0.00    -0.042 A 
BRANCH  20  21
ATOM     21  C   UNL     1       2.016  -2.128   7.271  0.00  0.00    +0.013 C 
ATOM     22  C   UNL     1       2.012  -3.650   7.119  0.00  0.00    +0.012 C 
ATOM     23  C   UNL     1       3.439  -1.648   7.561  0.00  0.00    +0.012 C 
ENDBRANCH  20  21
ENDBRANCH  13  17
ENDBRANCH  12  13
ENDBRANCH   9  12
ENDBRANCH   8   9
ENDBRANCH   1   8
BRANCH   4  24
ATOM     24  C   UNL     1      -1.690   1.743  -5.977  0.00  0.00    -0.059 C 
BRANCH  24  25
ATOM     25  C   UNL     1      -3.207   1.543  -5.946  0.00  0.00    +0.098 C 
BRANCH  25  26
ATOM     26  N   UNL     1      -3.815   2.251  -7.075  0.00  0.00    -0.236 N 
ATOM     27  C   UNL     1      -4.204   3.529  -6.906  0.00  0.00    +0.254 C 
ATOM     28  O   UNL     1      -4.045   4.072  -5.829  0.00  0.00    -0.270 OA
ATOM     29  C   UNL     1      -4.814   4.274  -8.017  0.00  0.00    +0.046 A 
ATOM     30  C   UNL     1      -5.224   5.593  -7.887  0.00  0.00    +0.014 A 
ATOM     31  C   UNL     1      -5.801   6.254  -8.966  0.00  0.00    +0.001 A 
ATOM     32  C   UNL     1      -5.981   5.636 -10.170  0.00  0.00    +0.008 A 
ATOM     33  C   UNL     1      -5.578   4.300 -10.343  0.00  0.00    -0.016 A 
ATOM     34  C   UNL     1      -4.992   3.619  -9.256  0.00  0.00    +0.006 A 
ATOM     35  C   UNL     1      -4.578   2.275  -9.398  0.00  0.00    +0.046 A 
ATOM     36  C   UNL     1      -4.757   1.640 -10.618  0.00  0.00    +0.014 A 
ATOM     37  C   UNL     1      -5.336   2.323 -11.682  0.00  0.00    +0.001 A 
ATOM     38  C   UNL     1      -5.742   3.621 -11.563  0.00  0.00    +0.008 A 
ATOM     39  C   UNL     1      -3.971   1.598  -8.242  0.00  0.00    +0.254 C 
ATOM     40  O   UNL     1      -3.607   0.442  -8.341  0.00  0.00    -0.270 OA
ENDBRANCH  25  26
ENDBRANCH  24  25
ENDBRANCH   4  24
TORSDOF 10
