REMARK  Name = ZINC40322062
REMARK  11 active torsions:
REMARK  status: ('A' for Active; 'I' for Inactive)
REMARK    1  A    between atoms: C_1  and  C_2
REMARK    2  A    between atoms: C_2  and  N_3
REMARK    3  A    between atoms: N_3  and  C_4
REMARK    4  A    between atoms: N_3  and  C_6
REMARK    5  A    between atoms: C_4  and  C_5
REMARK    6  A    between atoms: C_6  and  C_8
REMARK    7  A    between atoms: C_6  and  C_27
REMARK    8  A    between atoms: C_8  and  N_9
REMARK    9  A    between atoms: C_10  and  C_12
REMARK   10  A    between atoms: C_15  and  S_17
REMARK   11  A    between atoms: S_17  and  C_20
REMARK                            x       y       z     vdW  Elec       q    Type
REMARK                         _______ _______ _______ _____ _____    ______ ____
ROOT
ATOM      1  N   UNL     1      -3.195  -2.142   0.258  0.00  0.00    -0.310 N 
ATOM      2  C   UNL     1      -3.946  -2.972  -0.493  0.00  0.00    +0.279 C 
ATOM      3  O   UNL     1      -4.791  -2.518  -1.242  0.00  0.00    -0.267 OA
ATOM      4  H   UNL     1      -2.462  -2.495   0.785  0.00  0.00    +0.149 HD
ENDROOT
BRANCH   2   5
ATOM      5  C   UNL     1      -3.745  -4.422  -0.407  0.00  0.00    +0.192 A 
ATOM      6  C   UNL     1      -4.364  -5.365  -1.177  0.00  0.00    +0.056 A 
ATOM      7  C   UNL     1      -3.876  -6.612  -0.758  0.00  0.00    +0.070 A 
ATOM      8  C   UNL     1      -2.991  -6.379   0.237  0.00  0.00    +0.246 A 
ATOM      9  O   UNL     1      -2.911  -5.058   0.442  0.00  0.00    -0.433 OA
BRANCH   8  10
ATOM     10  S   UNL     1      -2.088  -7.611   1.115  0.00  0.00    +0.058 S 
ATOM     11  O   UNL     1      -1.741  -7.041   2.371  0.00  0.00    -0.161 OA
ATOM     12  O   UNL     1      -2.832  -8.816   1.005  0.00  0.00    -0.161 OA
BRANCH  10  13
ATOM     13  C   UNL     1      -0.578  -7.869   0.245  0.00  0.00    +0.097 A 
ATOM     14  C   UNL     1      -0.511  -8.820  -0.756  0.00  0.00    +0.029 A 
ATOM     15  C   UNL     1       0.673  -9.023  -1.439  0.00  0.00    +0.022 A 
ATOM     16  C   UNL     1       1.792  -8.275  -1.120  0.00  0.00    +0.041 A 
ATOM     17  C   UNL     1       1.725  -7.324  -0.118  0.00  0.00    +0.022 A 
ATOM     18  C   UNL     1       0.539  -7.117   0.560  0.00  0.00    +0.029 A 
ATOM     19 CL   UNL     1       3.280  -8.530  -1.977  0.00  0.00    -0.084 Cl
ENDBRANCH  10  13
ENDBRANCH   8  10
ENDBRANCH   2   5
BRANCH   1  20
ATOM     20  C   UNL     1      -3.486  -0.707   0.278  0.00  0.00    +0.094 C 
BRANCH  20  21
ATOM     21  C   UNL     1      -2.593  -0.019   1.312  0.00  0.00    -0.019 C 
BRANCH  21  22
ATOM     22  C   UNL     1      -2.734   1.476   1.183  0.00  0.00    -0.041 A 
ATOM     23  C   UNL     1      -2.457   2.095  -0.021  0.00  0.00    +0.003 A 
ATOM     24  C   UNL     1      -2.587   3.466  -0.140  0.00  0.00    +0.000 A 
ATOM     25  C   UNL     1      -2.993   4.219   0.946  0.00  0.00    +0.001 A 
ATOM     26  C   UNL     1      -3.270   3.601   2.151  0.00  0.00    +0.020 A 
ATOM     27  C   UNL     1      -3.147   2.228   2.268  0.00  0.00    +0.043 A 
ATOM     28 CL   UNL     1      -3.501   1.451   3.780  0.00  0.00    -0.083 Cl
ENDBRANCH  21  22
BRANCH  21  29
ATOM     29  N   UNL     1      -1.194  -0.400   1.082  0.00  0.00    +0.385 N 
ATOM     30  H   UNL     1      -1.042  -1.340   1.417  0.00  0.00    -0.081 HD
BRANCH  29  32
ATOM     31  C   UNL     1       0.124  -1.420  -0.713  0.00  0.00    -0.017 C 
ATOM     32  C   UNL     1      -0.900  -0.341  -0.356  0.00  0.00    -0.081 C 
ENDBRANCH  29  32
BRANCH  29  33
ATOM     33  C   UNL     1      -0.309   0.526   1.801  0.00  0.00    -0.081 C 
ATOM     34  C   UNL     1      -0.429   0.281   3.306  0.00  0.00    -0.017 C 
ENDBRANCH  29  33
ENDBRANCH  21  29
ENDBRANCH  20  21
ENDBRANCH   1  20
TORSDOF 9
