REMARK  Name = ZINC64128011
REMARK  10 active torsions:
REMARK  status: ('A' for Active; 'I' for Inactive)
REMARK    1  A    between atoms: C_1  and  C_2
REMARK    2  A    between atoms: C_9  and  C_20
REMARK    3  A    between atoms: C_11  and  C_14
REMARK    4  A    between atoms: C_23  and  C_26
REMARK    5  A    between atoms: C_29  and  N_32
REMARK    6  A    between atoms: N_32  and  C_33
REMARK    7  A    between atoms: N_32  and  C_34
REMARK    8  A    between atoms: C_35  and  C_37
REMARK    9  A    between atoms: C_37  and  C_38
REMARK   10  A    between atoms: C_37  and  C_39
REMARK                            x       y       z     vdW  Elec       q    Type
REMARK                         _______ _______ _______ _____ _____    ______ ____
ROOT
ATOM      1  C   UNL     1      -0.249   0.301   0.747  0.00  0.00    +0.044 C 
ATOM      2  C   UNL     1      -0.316  -1.202   0.673  0.00  0.00    -0.050 A 
ATOM      3  C   UNL     1      -0.401  -1.822  -0.572  0.00  0.00    +0.005 A 
ATOM      4  C   UNL     1      -0.464  -3.176  -0.698  0.00  0.00    +0.024 A 
ATOM      5  C   UNL     1      -0.444  -3.990   0.449  0.00  0.00    +0.041 A 
ATOM      6  N   UNL     1      -0.505  -5.319   0.324  0.00  0.00    -0.284 N 
ATOM      7  C   UNL     1      -0.492  -6.149   1.349  0.00  0.00    +0.230 C 
ATOM      8  O   UNL     1      -0.551  -7.350   1.159  0.00  0.00    -0.274 OA
ATOM      9  C   UNL     1      -0.403  -5.611   2.758  0.00  0.00    +0.152 C 
ATOM     10  C   UNL     1      -0.332  -4.106   2.926  0.00  0.00    -0.014 C 
ATOM     11  C   UNL     1      -0.355  -3.336   1.760  0.00  0.00    +0.001 A 
ATOM     12  C   UNL     1      -0.287  -1.928   1.823  0.00  0.00    +0.013 A 
ATOM     13  H   UNL     1      -0.563  -5.694  -0.569  0.00  0.00    +0.155 HD
ENDROOT
BRANCH   9  14
ATOM     14  C   UNL     1      -1.607  -6.104   3.519  0.00  0.00    +0.055 C 
ATOM     15  N   UNL     1      -2.533  -5.367   3.979  0.00  0.00    -0.185 NA
ATOM     16  N   UNL     1      -3.543  -6.057   4.646  0.00  0.00    -0.185 N 
ATOM     17  C   UNL     1      -3.228  -7.495   4.621  0.00  0.00    +0.137 C 
ATOM     18  C   UNL     1      -1.898  -7.552   3.842  0.00  0.00    +0.083 C 
ATOM     19  C   UNL     1      -4.628  -5.500   5.220  0.00  0.00    +0.238 C 
ATOM     20  O   UNL     1      -5.446  -6.200   5.777  0.00  0.00    -0.274 OA
BRANCH  17  21
ATOM     21  C   UNL     1      -3.058  -8.026   6.021  0.00  0.00    -0.025 A 
ATOM     22  C   UNL     1      -2.429  -7.254   6.981  0.00  0.00    +0.007 A 
ATOM     23  C   UNL     1      -2.271  -7.738   8.264  0.00  0.00    +0.023 A 
ATOM     24  C   UNL     1      -2.744  -9.002   8.591  0.00  0.00    +0.029 A 
ATOM     25  C   UNL     1      -3.375  -9.776   7.625  0.00  0.00    +0.023 A 
ATOM     26  C   UNL     1      -3.534  -9.284   6.345  0.00  0.00    +0.007 A 
BRANCH  24  27
ATOM     27  N   UNL     1      -2.586  -9.495   9.888  0.00  0.00    -0.336 N 
ATOM     28  C   UNL     1      -2.032  -8.634  10.936  0.00  0.00    +0.129 C 
ATOM     29  C   UNL     1      -2.973 -10.873  10.201  0.00  0.00    +0.129 C 
ENDBRANCH  24  27
ENDBRANCH  17  21
BRANCH  19  30
ATOM     30  C   UNL     1      -4.824  -4.006   5.169  0.00  0.00    +0.071 C 
ATOM     31  C   UNL     1      -4.903  -3.552   3.710  0.00  0.00    +0.017 C 
ATOM     32  C   UNL     1      -6.123  -3.638   5.889  0.00  0.00    +0.017 C 
ENDBRANCH  19  30
ENDBRANCH   9  14
BRANCH  10  33
ATOM     33  C   UNL     1      -0.247  -3.506   4.208  0.00  0.00    -0.020 A 
ATOM     34  C   UNL     1       0.790  -3.860   5.086  0.00  0.00    +0.008 A 
ATOM     35  C   UNL     1       0.864  -3.272   6.329  0.00  0.00    +0.001 A 
ATOM     36  C   UNL     1      -0.080  -2.334   6.714  0.00  0.00    +0.000 A 
ATOM     37  C   UNL     1      -1.107  -1.977   5.855  0.00  0.00    +0.001 A 
ATOM     38  C   UNL     1      -1.196  -2.549   4.605  0.00  0.00    +0.008 A 
ENDBRANCH  10  33
TORSDOF 5
