REMARK  Name = ZINC09360208
REMARK  7 active torsions:
REMARK  status: ('A' for Active; 'I' for Inactive)
REMARK    1  A    between atoms: C_1  and  C_2
REMARK    2  A    between atoms: C_8  and  C_41
REMARK    3  A    between atoms: C_13  and  C_38
REMARK    4  A    between atoms: C_15  and  C_27
REMARK    5  A    between atoms: C_27  and  C_29
REMARK    6  A    between atoms: C_33  and  N_35
REMARK    7  A    between atoms: C_38  and  C_40
REMARK                            x       y       z     vdW  Elec       q    Type
REMARK                         _______ _______ _______ _____ _____    ______ ____
ROOT
ATOM      1  C   UNL     1       3.116   6.785   5.337  0.00  0.00    +0.044 C 
ATOM      2  C   UNL     1       2.989   5.904   4.121  0.00  0.00    -0.050 A 
ATOM      3  C   UNL     1       2.853   6.477   2.868  0.00  0.00    +0.005 A 
ATOM      4  C   UNL     1       2.733   5.683   1.742  0.00  0.00    +0.024 A 
ATOM      5  C   UNL     1       2.749   4.308   1.865  0.00  0.00    +0.038 A 
ATOM      6  C   UNL     1       2.892   3.721   3.142  0.00  0.00    -0.001 A 
ATOM      7  C   UNL     1       3.009   4.530   4.263  0.00  0.00    +0.013 A 
ATOM      8  C   UNL     1       2.916   2.242   3.244  0.00  0.00    -0.044 C 
ATOM      9  C   UNL     1       2.320   1.543   2.262  0.00  0.00    +0.000 C 
ATOM     10  C   UNL     1       1.693   2.345   1.164  0.00  0.00    +0.118 C 
ATOM     11  N   UNL     1       2.628   3.446   0.801  0.00  0.00    -0.311 N 
ATOM     12  C   UNL     1       2.095   3.960  -0.466  0.00  0.00    +0.152 C 
ATOM     13  C   UNL     1       1.705   2.671  -1.244  0.00  0.00    +0.109 C 
ATOM     14  C   UNL     1       1.480   1.609  -0.149  0.00  0.00    +0.108 C 
ATOM     15  C   UNL     1       2.392   0.442  -0.318  0.00  0.00    -0.008 A 
ATOM     16  C   UNL     1       3.766   0.340  -0.321  0.00  0.00    +0.006 A 
ATOM     17  C   UNL     1       4.306  -0.928  -0.509  0.00  0.00    +0.000 A 
ATOM     18  C   UNL     1       3.499  -2.034  -0.686  0.00  0.00    +0.002 A 
ATOM     19  C   UNL     1       2.116  -1.940  -0.683  0.00  0.00    +0.023 A 
ATOM     20  C   UNL     1       1.562  -0.674  -0.495  0.00  0.00    +0.038 A 
ATOM     21  N   UNL     1       0.231  -0.296  -0.450  0.00  0.00    -0.284 N 
ATOM     22  C   UNL     1       0.088   1.032  -0.249  0.00  0.00    +0.231 C 
ATOM     23  O   UNL     1      -0.955   1.645  -0.170  0.00  0.00    -0.274 OA
ATOM     24  C   UNL     1       3.583   1.549   4.404  0.00  0.00    +0.044 C 
ATOM     25  H   UNL     1      -0.512  -0.912  -0.551  0.00  0.00    +0.155 HD
ENDROOT
BRANCH  12  26
ATOM     26  C   UNL     1       0.882   4.820  -0.222  0.00  0.00    +0.151 C 
ATOM     27  O   UNL     1       0.339   4.805   0.857  0.00  0.00    -0.296 OA
ATOM     28  C   UNL     1       0.347   5.698  -1.323  0.00  0.00    +0.088 C 
ENDBRANCH  12  26
BRANCH  13  29
ATOM     29  C   UNL     1       0.438   2.894  -2.029  0.00  0.00    +0.170 C 
ATOM     30  O   UNL     1      -0.538   3.364  -1.484  0.00  0.00    -0.292 OA
BRANCH  29  31
ATOM     31  C   UNL     1       0.384   2.542  -3.457  0.00  0.00    +0.020 A 
ATOM     32  C   UNL     1       1.510   2.005  -4.091  0.00  0.00    +0.011 A 
ATOM     33  C   UNL     1       1.450   1.671  -5.427  0.00  0.00    +0.003 A 
ATOM     34  C   UNL     1       0.284   1.879  -6.144  0.00  0.00    +0.033 A 
ATOM     35  C   UNL     1      -0.832   2.415  -5.526  0.00  0.00    +0.127 A 
ATOM     36  C   UNL     1      -0.790   2.747  -4.188  0.00  0.00    +0.044 A 
BRANCH  35  37
ATOM     37  N   UNL     1      -2.073   2.631  -6.302  0.00  0.00    +0.056 N 
ATOM     38  O   UNL     1      -3.056   3.103  -5.759  0.00  0.00    -0.126 OA
ATOM     39  O   UNL     1      -2.112   2.338  -7.483  0.00  0.00    -0.126 OA
ENDBRANCH  35  37
ENDBRANCH  29  31
ENDBRANCH  13  29
TORSDOF 4
