REMARK  Name = ZINC06149593
REMARK  13 active torsions:
REMARK  status: ('A' for Active; 'I' for Inactive)
REMARK    1  A    between atoms: C_1  and  C_2
REMARK    2  A    between atoms: C_2  and  C_3
REMARK    3  A    between atoms: C_3  and  C_4
REMARK    4  A    between atoms: C_3  and  C_5
REMARK    5  A    between atoms: C_3  and  N_6
REMARK    6  A    between atoms: C_7  and  C_11
REMARK    7  A    between atoms: C_11  and  C_13
REMARK    8  A    between atoms: C_11  and  N_69
REMARK    9  A    between atoms: C_19  and  C_25
REMARK   10  A    between atoms: C_26  and  C_27
REMARK   11  A    between atoms: C_26  and  N_69
REMARK   12  A    between atoms: C_34  and  C_35
REMARK   13  A    between atoms: C_34  and  N_69
REMARK                            x       y       z     vdW  Elec       q    Type
REMARK                         _______ _______ _______ _____ _____    ______ ____
ROOT
ATOM      1  C   UNL     1       0.188  -2.518   4.340  0.00  0.00    +0.040 C 
ENDROOT
BRANCH   1   2
ATOM      2  C   UNL     1       0.158  -1.788   3.023  0.00  0.00    +0.011 A 
ATOM      3  C   UNL     1       0.059  -2.487   1.865  0.00  0.00    +0.017 A 
ATOM      4  C   UNL     1       0.032  -1.747   0.602  0.00  0.00    -0.001 A 
ATOM      5  C   UNL     1      -0.068  -2.413  -0.625  0.00  0.00    +0.010 A 
ATOM      6  C   UNL     1      -0.090  -1.694  -1.786  0.00  0.00    +0.001 A 
ATOM      7  C   UNL     1      -0.019  -0.307  -1.759  0.00  0.00    +0.005 A 
ATOM      8  C   UNL     1       0.086   0.369  -0.563  0.00  0.00    -0.026 A 
ATOM      9  C   UNL     1       0.110  -0.342   0.632  0.00  0.00    +0.052 A 
ATOM     10  N   UNL     1       0.210   0.309   1.843  0.00  0.00    -0.322 N 
ATOM     11  H   UNL     1       0.266   1.307   1.863  0.00  0.00    +0.169 HD
ATOM     12  C   UNL     1       0.233  -0.379   2.998  0.00  0.00    +0.251 A 
ATOM     13  O   UNL     1       0.321   0.230   4.051  0.00  0.00    -0.268 OA
ATOM     14  C   UNL     1       0.168   1.874  -0.550  0.00  0.00    +0.046 C 
ENDBRANCH   1   2
BRANCH   1  16
ATOM     15  N   UNL     1       2.520  -3.208   5.108  0.00  0.00    -0.225 N 
ATOM     16  C   UNL     1       1.525  -2.308   5.002  0.00  0.00    +0.143 A 
ATOM     17  N   UNL     1       1.944  -1.213   5.589  0.00  0.00    -0.115 NA
ATOM     18  N   UNL     1       3.136  -1.429   6.029  0.00  0.00    -0.023 NA
ATOM     19  N   UNL     1       3.488  -2.632   5.737  0.00  0.00    -0.043 NA
BRANCH  15  20
ATOM     20  C   UNL     1       2.507  -4.583   4.602  0.00  0.00    +0.061 C 
ATOM     21  C   UNL     1       1.407  -5.377   5.310  0.00  0.00    +0.036 C 
ATOM     22  C   UNL     1       2.237  -4.569   3.096  0.00  0.00    +0.036 C 
BRANCH  20  24
ATOM     23  C   UNL     1       3.850  -6.674   4.342  0.00  0.00    +0.006 C 
ATOM     24  C   UNL     1       3.863  -5.238   4.871  0.00  0.00    +0.026 C 
ENDBRANCH  20  24
ENDBRANCH  15  20
ENDBRANCH   1  16
BRANCH   1  25
ATOM     25  N   UNL     1      -0.869  -1.974   5.218  0.00  0.00    +0.397 N 
ATOM     26  H   UNL     1      -0.629  -1.008   5.470  0.00  0.00    -0.079 HD
BRANCH  25  27
ATOM     27  C   UNL     1      -0.966  -2.781   6.453  0.00  0.00    -0.041 C 
BRANCH  27  28
ATOM     28  C   UNL     1       0.051  -2.271   7.442  0.00  0.00    -0.064 A 
ATOM     29  C   UNL     1       1.273  -2.904   7.564  0.00  0.00    +0.003 A 
ATOM     30  C   UNL     1       2.208  -2.433   8.467  0.00  0.00    +0.020 A 
ATOM     31  C   UNL     1       1.916  -1.334   9.255  0.00  0.00    +0.041 A 
ATOM     32  C   UNL     1       0.690  -0.704   9.136  0.00  0.00    +0.020 A 
ATOM     33  C   UNL     1      -0.242  -1.173   8.229  0.00  0.00    +0.003 A 
ATOM     34 CL   UNL     1       3.087  -0.746  10.394  0.00  0.00    -0.084 Cl
ENDBRANCH  27  28
ENDBRANCH  25  27
BRANCH  25  35
ATOM     35  C   UNL     1      -2.166  -1.978   4.510  0.00  0.00    -0.001 C 
BRANCH  35  36
ATOM     36  C   UNL     1      -3.133  -1.103   5.265  0.00  0.00    +0.089 A 
ATOM     37  C   UNL     1      -3.369   0.200   5.024  0.00  0.00    +0.042 A 
ATOM     38  C   UNL     1      -4.340   0.620   5.962  0.00  0.00    +0.041 A 
ATOM     39  C   UNL     1      -4.640  -0.450   6.719  0.00  0.00    +0.195 A 
ATOM     40  O   UNL     1      -3.910  -1.492   6.289  0.00  0.00    -0.470 OA
ENDBRANCH  35  36
ENDBRANCH  25  35
ENDBRANCH   1  25
TORSDOF 9
