REMARK  Name = ZINC42609701
REMARK  4 active torsions:
REMARK  status: ('A' for Active; 'I' for Inactive)
REMARK    1  A    between atoms: C_1  and  C_2
REMARK    2  A    between atoms: C_8  and  N_10
REMARK    3  A    between atoms: N_10  and  C_11
REMARK    4  A    between atoms: N_16  and  C_17
REMARK                            x       y       z     vdW  Elec       q    Type
REMARK                         _______ _______ _______ _____ _____    ______ ____
ROOT
ATOM      1  N   UNL     1       0.188  -0.168   2.510  0.00  0.00    -0.300 N 
ATOM      2  C   UNL     1      -1.158  -0.688   2.761  0.00  0.00    +0.132 C 
ATOM      3  C   UNL     1       0.699   0.849   3.304  0.00  0.00    +0.218 A 
ATOM      4  N   UNL     1       1.936   0.960   3.692  0.00  0.00    -0.137 NA
ATOM      5  N   UNL     1       2.042   2.117   4.475  0.00  0.00    -0.253 N 
ATOM      6  C   UNL     1       0.818   2.681   4.531  0.00  0.00    +0.177 A 
ATOM      7  N   UNL     1      -0.018   1.909   3.807  0.00  0.00    -0.288 N 
ATOM      8  S   UNL     1       0.402   4.117   5.364  0.00  0.00    -0.011 S 
ATOM      9  H   UNL     1       2.848   2.452   4.899  0.00  0.00    +0.191 HD
ENDROOT
BRANCH   1  16
ATOM     10  C   UNL     1       2.090   1.502   1.101  0.00  0.00    +0.009 C 
ATOM     11  C   UNL     1       1.312   0.382   0.408  0.00  0.00    +0.006 C 
ATOM     12  C   UNL     1       0.007   0.943  -0.159  0.00  0.00    +0.005 C 
ATOM     13  C   UNL     1      -0.772  -0.177  -0.852  0.00  0.00    +0.000 C 
ATOM     14  C   UNL     1      -1.088  -1.280   0.160  0.00  0.00    +0.002 C 
ATOM     15  C   UNL     1       0.218  -1.842   0.727  0.00  0.00    +0.023 C 
ATOM     16  C   UNL     1       0.996  -0.722   1.420  0.00  0.00    +0.079 C 
ENDBRANCH   1  16
BRANCH   7  17
ATOM     17  C   UNL     1      -1.446   2.157   3.595  0.00  0.00    +0.092 C 
ATOM     18  C   UNL     1      -1.646   3.500   2.862  0.00  0.00    +0.025 C 
ATOM     19  C   UNL     1      -2.926   4.094   3.502  0.00  0.00    +0.002 C 
ATOM     20  C   UNL     1      -2.779   3.699   4.992  0.00  0.00    +0.002 C 
ATOM     21  C   UNL     1      -2.166   2.283   4.949  0.00  0.00    +0.025 C 
ENDBRANCH   7  17
TORSDOF 2
