REMARK  Name = ZINC00818049
REMARK  8 active torsions:
REMARK  status: ('A' for Active; 'I' for Inactive)
REMARK    1  A    between atoms: C_1  and  C_2
REMARK    2  A    between atoms: C_4  and  C_27
REMARK    3  A    between atoms: C_10  and  C_26
REMARK    4  A    between atoms: C_13  and  C_16
REMARK    5  A    between atoms: C_20  and  O_24
REMARK    6  A    between atoms: C_21  and  O_22
REMARK    7  A    between atoms: O_22  and  C_23
REMARK    8  A    between atoms: O_24  and  C_25
REMARK                            x       y       z     vdW  Elec       q    Type
REMARK                         _______ _______ _______ _____ _____    ______ ____
ROOT
ATOM      1  C   UNL     1      -0.119   1.588   0.614  0.00  0.00    +0.044 C 
ATOM      2  C   UNL     1      -0.077   0.089   0.463  0.00  0.00    -0.049 A 
ATOM      3  C   UNL     1      -0.074  -0.477  -0.800  0.00  0.00    +0.008 A 
ATOM      4  C   UNL     1      -0.031  -1.850  -0.959  0.00  0.00    -0.029 A 
ATOM      5  C   UNL     1       0.008  -2.672   0.154  0.00  0.00    +0.041 A 
ATOM      6  C   UNL     1      -0.004  -2.092   1.439  0.00  0.00    +0.022 A 
ATOM      7  C   UNL     1      -0.035  -0.716   1.587  0.00  0.00    +0.015 A 
ATOM      8  C   UNL     1       0.009  -3.027   2.580  0.00  0.00    +0.073 A 
ATOM      9  C   UNL     1       0.221  -2.832   3.900  0.00  0.00    +0.052 A 
ATOM     10  C   UNL     1       0.128  -4.077   4.533  0.00  0.00    +0.061 A 
ATOM     11  N   UNL     1      -0.133  -4.991   3.627  0.00  0.00    -0.174 NA
ATOM     12  N   UNL     1      -0.221  -4.370   2.388  0.00  0.00    -0.238 N 
ATOM     13  C   UNL     1      -0.508  -4.934   1.067  0.00  0.00    +0.226 C 
ATOM     14  N   UNL     1       0.068  -4.059   0.035  0.00  0.00    -0.318 N 
ATOM     15  C   UNL     1       0.298  -4.326   6.009  0.00  0.00    +0.067 C 
ATOM     16  C   UNL     1      -0.027  -2.451  -2.341  0.00  0.00    +0.045 C 
ATOM     17  H   UNL     1       0.496  -4.454  -0.741  0.00  0.00    +0.148 HD
ENDROOT
BRANCH  13  18
ATOM     18  C   UNL     1      -1.999  -5.030   0.873  0.00  0.00    +0.040 A 
ATOM     19  C   UNL     1      -2.852  -4.333   1.709  0.00  0.00    +0.011 A 
ATOM     20  C   UNL     1      -4.220  -4.419   1.535  0.00  0.00    +0.004 A 
ATOM     21  C   UNL     1      -4.743  -5.204   0.523  0.00  0.00    +0.049 A 
ATOM     22  C   UNL     1      -3.895  -5.905  -0.318  0.00  0.00    +0.162 A 
ATOM     23  C   UNL     1      -2.516  -5.813  -0.146  0.00  0.00    +0.168 A 
BRANCH  23  24
ATOM     24  O   UNL     1      -1.679  -6.495  -0.973  0.00  0.00    -0.491 OA
ATOM     25  C   UNL     1      -1.409  -7.859  -0.641  0.00  0.00    +0.277 C 
ENDBRANCH  23  24
BRANCH  22  26
ATOM     26  O   UNL     1      -4.407  -6.677  -1.314  0.00  0.00    -0.491 OA
ATOM     27  C   UNL     1      -5.830  -6.719  -1.435  0.00  0.00    +0.277 C 
ENDBRANCH  22  26
ENDBRANCH  13  18
TORSDOF 3
