REMARK  Name = ZINC10000967
REMARK  11 active torsions:
REMARK  status: ('A' for Active; 'I' for Inactive)
REMARK    1  A    between atoms: C_1  and  C_2
REMARK    2  A    between atoms: C_2  and  C_3
REMARK    3  A    between atoms: C_2  and  C_4
REMARK    4  A    between atoms: C_4  and  C_6
REMARK    5  A    between atoms: C_4  and  N_26
REMARK    6  A    between atoms: N_8  and  N_9
REMARK    7  A    between atoms: C_10  and  C_11
REMARK    8  A    between atoms: C_16  and  O_17
REMARK    9  A    between atoms: O_17  and  C_18
REMARK   10  A    between atoms: C_18  and  C_19
REMARK   11  A    between atoms: C_27  and  C_29
REMARK                            x       y       z     vdW  Elec       q    Type
REMARK                         _______ _______ _______ _____ _____    ______ ____
ROOT
ATOM      1  C   UNL     1      -3.553   6.975  -1.034  0.00  0.00    +0.253 C 
ATOM      2  O   UNL     1      -2.519   7.609  -1.075  0.00  0.00    -0.272 OA
ATOM      3  N   UNL     1      -3.516   5.633  -0.917  0.00  0.00    -0.205 N 
ATOM      4  H   UNL     1      -4.339   5.120  -0.945  0.00  0.00    +0.177 HD
ENDROOT
BRANCH   3   5
ATOM      5  N   UNL     1      -2.288   4.977  -0.754  0.00  0.00    -0.188 NA
ATOM      6  C   UNL     1      -2.240   3.680  -0.754  0.00  0.00    +0.142 C 
BRANCH   6   7
ATOM      7  C   UNL     1      -0.961   2.990  -0.512  0.00  0.00    +0.036 A 
ATOM      8  C   UNL     1      -0.880   1.600  -0.625  0.00  0.00    +0.013 A 
ATOM      9  C   UNL     1       0.319   0.960  -0.392  0.00  0.00    +0.001 A 
ATOM     10  C   UNL     1       1.447   1.691  -0.058  0.00  0.00    +0.004 A 
ATOM     11  C   UNL     1       1.382   3.067   0.051  0.00  0.00    +0.046 A 
ATOM     12  C   UNL     1       0.184   3.725  -0.174  0.00  0.00    +0.130 A 
BRANCH  12  13
ATOM     13  O   UNL     1       0.118   5.078  -0.067  0.00  0.00    -0.487 OA
BRANCH  13  14
ATOM     14  C   UNL     1       1.348   5.771   0.155  0.00  0.00    +0.266 C 
BRANCH  14  15
ATOM     15  C   UNL     1       1.064   7.231   0.399  0.00  0.00    +0.008 A 
ATOM     16  C   UNL     1      -0.241   7.676   0.492  0.00  0.00    +0.008 A 
ATOM     17  C   UNL     1      -0.502   9.014   0.720  0.00  0.00    +0.000 A 
ATOM     18  C   UNL     1       0.543   9.910   0.845  0.00  0.00    +0.001 A 
ATOM     19  C   UNL     1       1.849   9.468   0.747  0.00  0.00    +0.020 A 
ATOM     20  C   UNL     1       2.110   8.127   0.524  0.00  0.00    +0.047 A 
ATOM     21 CL   UNL     1       3.750   7.571   0.400  0.00  0.00    -0.083 Cl
ENDBRANCH  14  15
ENDBRANCH  13  14
ENDBRANCH  12  13
ENDBRANCH   6   7
ENDBRANCH   3   5
BRANCH   1  22
ATOM     22  C   UNL     1      -4.878   7.688  -1.115  0.00  0.00    +0.163 C 
BRANCH  22  23
ATOM     23  N   UNL     1      -4.650   9.130  -1.237  0.00  0.00    -0.300 N 
ATOM     24  C   UNL     1      -5.596   9.999  -0.831  0.00  0.00    +0.245 C 
ATOM     25  O   UNL     1      -6.640   9.586  -0.364  0.00  0.00    -0.270 OA
ATOM     26  H   UNL     1      -3.817   9.459  -1.611  0.00  0.00    +0.150 HD
BRANCH  24  27
ATOM     27  C   UNL     1      -5.367  11.452  -0.955  0.00  0.00    +0.040 A 
ATOM     28  C   UNL     1      -4.166  11.928  -1.486  0.00  0.00    +0.017 A 
ATOM     29  C   UNL     1      -3.955  13.284  -1.605  0.00  0.00    +0.050 A 
ATOM     30  C   UNL     1      -4.929  14.182  -1.188  0.00  0.00    +0.166 A 
ATOM     31  C   UNL     1      -6.128  13.713  -0.651  0.00  0.00    +0.167 A 
ATOM     32  C   UNL     1      -6.347  12.354  -0.534  0.00  0.00    +0.062 A 
ATOM     33  O   UNL     1      -6.907  14.785  -0.321  0.00  0.00    -0.453 OA
ATOM     34  C   UNL     1      -6.011  15.912  -0.282  0.00  0.00    +0.466 C 
ATOM     35  O   UNL     1      -4.959  15.545  -1.194  0.00  0.00    -0.453 OA
ENDBRANCH  24  27
ENDBRANCH  22  23
BRANCH  22  37
ATOM     36  C   UNL     1      -6.997   7.913  -2.419  0.00  0.00    +0.009 C 
ATOM     37  C   UNL     1      -5.652   7.189  -2.337  0.00  0.00    +0.012 C 
ATOM     38  C   UNL     1      -4.842   7.471  -3.604  0.00  0.00    +0.009 C 
ENDBRANCH  22  37
ENDBRANCH   1  22
TORSDOF 9
