REMARK  Name = ZINC44728495
REMARK  8 active torsions:
REMARK  status: ('A' for Active; 'I' for Inactive)
REMARK    1  A    between atoms: C_1  and  C_2
REMARK    2  A    between atoms: C_11  and  C_12
REMARK    3  A    between atoms: C_12  and  C_13
REMARK    4  A    between atoms: C_13  and  N_14
REMARK    5  A    between atoms: C_15  and  C_17
REMARK    6  A    between atoms: C_28  and  C_30
REMARK    7  A    between atoms: C_31  and  C_41
REMARK    8  A    between atoms: C_34  and  C_35
REMARK                            x       y       z     vdW  Elec       q    Type
REMARK                         _______ _______ _______ _____ _____    ______ ____
ROOT
ATOM      1  C   UNL     1       2.732  -7.928   4.225  0.00  0.00    +0.100 C 
ATOM      2  C   UNL     1       1.867  -8.831   3.317  0.00  0.00    +0.121 C 
ATOM      3  N   UNL     1       2.825  -9.419   2.352  0.00  0.00    -0.296 N 
ATOM      4  C   UNL     1       4.033  -9.709   3.161  0.00  0.00    +0.115 C 
ATOM      5  C   UNL     1       4.152  -8.510   4.123  0.00  0.00    -0.004 C 
ATOM      6  C   UNL     1       4.631  -8.977   5.494  0.00  0.00    -0.010 C 
ATOM      7  C   UNL     1       6.066  -9.498   5.377  0.00  0.00    -0.082 C 
ATOM      8  N   UNL     1       6.937  -8.430   4.871  0.00  0.00    +0.379 N 
ATOM      9  C   UNL     1       6.525  -8.050   3.514  0.00  0.00    -0.082 C 
ATOM     10  C   UNL     1       5.109  -7.469   3.551  0.00  0.00    -0.010 C 
ATOM     11  C   UNL     1       2.640  -9.640   1.035  0.00  0.00    +0.252 C 
ATOM     12  O   UNL     1       3.531 -10.135   0.371  0.00  0.00    -0.270 OA
ATOM     13  H   UNL     1       6.870  -7.626   5.478  0.00  0.00    -0.086 HD
ATOM     14  H   UNL     1       7.891  -8.755   4.853  0.00  0.00    -0.086 HD
ENDROOT
BRANCH  11  15
ATOM     15  C   UNL     1       1.360  -9.283   0.401  0.00  0.00    +0.106 A 
ATOM     16  C   UNL     1       1.044  -8.089  -0.177  0.00  0.00    +0.147 A 
ATOM     17  O   UNL     1      -0.208  -8.164  -0.636  0.00  0.00    -0.359 OA
ATOM     18  N   UNL     1      -0.737  -9.444  -0.355  0.00  0.00    -0.077 NA
ATOM     19  C   UNL     1       0.178 -10.147   0.263  0.00  0.00    +0.126 A 
ATOM     20  C   UNL     1       1.952  -6.890  -0.281  0.00  0.00    +0.090 C 
BRANCH  19  21
ATOM     21  C   UNL     1       0.047 -11.547   0.737  0.00  0.00    +0.004 A 
ATOM     22  C   UNL     1       1.147 -12.402   0.707  0.00  0.00    +0.010 A 
ATOM     23  C   UNL     1       1.020 -13.703   1.149  0.00  0.00    +0.001 A 
ATOM     24  C   UNL     1      -0.198 -14.159   1.621  0.00  0.00    +0.000 A 
ATOM     25  C   UNL     1      -1.294 -13.315   1.653  0.00  0.00    +0.001 A 
ATOM     26  C   UNL     1      -1.176 -12.010   1.219  0.00  0.00    +0.010 A 
ENDBRANCH  19  21
ENDBRANCH  11  15
BRANCH   1  28
ATOM     27  N   UNL     1       2.970  -5.490   4.571  0.00  0.00    -0.315 N 
ATOM     28  C   UNL     1       2.710  -6.506   3.725  0.00  0.00    +0.218 C 
ATOM     29  O   UNL     1       2.458  -6.277   2.561  0.00  0.00    -0.275 OA
ATOM     30  H   UNL     1       3.172  -5.674   5.502  0.00  0.00    +0.149 HD
BRANCH  27  31
ATOM     31  C   UNL     1       2.949  -4.109   4.085  0.00  0.00    +0.109 C 
BRANCH  31  32
ATOM     32  C   UNL     1       3.276  -3.157   5.239  0.00  0.00    +0.056 C 
BRANCH  32  43
ATOM     33  C   UNL     1       2.122   2.708   3.343  0.00  0.00    +0.046 C 
ATOM     34  C   UNL     1       1.640   1.387   3.886  0.00  0.00    -0.027 A 
ATOM     35  C   UNL     1       0.303   1.199   4.161  0.00  0.00    +0.005 A 
ATOM     36  C   UNL     1      -0.153  -0.013   4.662  0.00  0.00    +0.001 A 
ATOM     37  C   UNL     1       0.718  -1.042   4.890  0.00  0.00    +0.010 A 
ATOM     38  C   UNL     1       2.076  -0.873   4.617  0.00  0.00    +0.003 A 
ATOM     39  C   UNL     1       2.543   0.352   4.106  0.00  0.00    +0.050 A 
ATOM     40  N   UNL     1       3.903   0.227   3.932  0.00  0.00    -0.360 N 
ATOM     41  H   UNL     1       4.488   0.923   3.593  0.00  0.00    +0.165 HD
ATOM     42  C   UNL     1       4.308  -1.025   4.308  0.00  0.00    +0.087 A 
ATOM     43  C   UNL     1       3.254  -1.736   4.739  0.00  0.00    -0.021 A 
ENDBRANCH  32  43
ENDBRANCH  31  32
ENDBRANCH  27  31
ENDBRANCH   1  28
TORSDOF 6
