REMARK  Name = ZINC00718455
REMARK  4 active torsions:
REMARK  status: ('A' for Active; 'I' for Inactive)
REMARK    1  A    between atoms: C_3  and  C_9
REMARK    2  A    between atoms: C_16  and  N_32
REMARK    3  A    between atoms: C_17  and  C_30
REMARK    4  A    between atoms: C_18  and  C_20
REMARK                            x       y       z     vdW  Elec       q    Type
REMARK                         _______ _______ _______ _____ _____    ______ ____
ROOT
ATOM      1  C   UNL     1       3.698   2.201  -0.001  0.00  0.00    +0.102 A 
ATOM      2  C   UNL     1       4.971   1.627   0.065  0.00  0.00    +0.054 A 
ATOM      3  C   UNL     1       5.891   2.634   0.023  0.00  0.00    +0.223 A 
ATOM      4  N   UNL     1       5.220   3.800  -0.065  0.00  0.00    -0.246 N 
ATOM      5  H   UNL     1       5.616   4.685  -0.111  0.00  0.00    +0.192 HD
ATOM      6  N   UNL     1       3.847   3.510  -0.084  0.00  0.00    -0.171 NA
ATOM      7  O   UNL     1       7.228   2.406   0.065  0.00  0.00    -0.423 OA
ATOM      8  C   UNL     1       7.652   1.140  -0.126  0.00  0.00    +0.200 C 
ATOM      9  C   UNL     1       6.838   0.061  -0.094  0.00  0.00    +0.098 C 
ATOM     10  C   UNL     1       5.357   0.174   0.167  0.00  0.00    +0.103 C 
ENDROOT
BRANCH  10  11
ATOM     11  C   UNL     1       5.043  -0.341   1.548  0.00  0.00    -0.017 A 
ATOM     12  C   UNL     1       5.532   0.322   2.659  0.00  0.00    +0.055 A 
ATOM     13  C   UNL     1       5.245  -0.149   3.929  0.00  0.00    +0.167 A 
ATOM     14  C   UNL     1       4.462  -1.291   4.085  0.00  0.00    +0.167 A 
ATOM     15  C   UNL     1       3.974  -1.950   2.968  0.00  0.00    +0.065 A 
ATOM     16  C   UNL     1       4.260  -1.470   1.702  0.00  0.00    +0.026 A 
ATOM     17 BR   UNL     1       3.587  -2.367   0.179  0.00  0.00    -0.050 Br
ATOM     18  O   UNL     1       4.325  -1.548   5.418  0.00  0.00    -0.453 OA
ATOM     19  C   UNL     1       5.367  -0.792   6.064  0.00  0.00    +0.466 C 
ATOM     20  O   UNL     1       5.598   0.309   5.166  0.00  0.00    -0.453 OA
ENDBRANCH  10  11
BRANCH   1  23
ATOM     21  C   UNL     1       1.005  -0.290  -0.824  0.00  0.00    +0.021 A 
ATOM     22  C   UNL     1       2.207   0.388  -0.842  0.00  0.00    +0.013 A 
ATOM     23  C   UNL     1       2.407   1.469   0.014  0.00  0.00    +0.021 A 
ATOM     24  C   UNL     1       1.391   1.859   0.885  0.00  0.00    +0.052 A 
ATOM     25  C   UNL     1       0.192   1.174   0.895  0.00  0.00    +0.040 A 
ATOM     26  C   UNL     1      -0.001   0.101   0.042  0.00  0.00    +0.042 A 
ATOM     27 CL   UNL     1      -1.510  -0.757   0.059  0.00  0.00    -0.083 Cl
ATOM     28 CL   UNL     1       1.632   3.204   1.956  0.00  0.00    -0.083 Cl
ENDBRANCH   1  23
BRANCH   8  29
ATOM     29  N   UNL     1       8.988   0.935  -0.366  0.00  0.00    -0.328 N 
ATOM     30  H   UNL     1       9.597   1.690  -0.396  0.00  0.00    +0.145 HD
ATOM     31  H   UNL     1       9.323   0.036  -0.507  0.00  0.00    +0.145 HD
ENDBRANCH   8  29
BRANCH   9  32
ATOM     32  C   UNL     1       7.403  -1.236  -0.316  0.00  0.00    +0.101 C 
ATOM     33  N   UNL     1       7.851  -2.265  -0.491  0.00  0.00    -0.191 NA
ENDBRANCH   9  32
TORSDOF 4
