REMARK  Name = ZINC06658790
REMARK  8 active torsions:
REMARK  status: ('A' for Active; 'I' for Inactive)
REMARK    1  A    between atoms: C_1  and  C_2
REMARK    2  A    between atoms: C_2  and  C_28
REMARK    3  A    between atoms: C_4  and  N_9
REMARK    4  A    between atoms: C_6  and  C_7
REMARK    5  A    between atoms: C_6  and  C_8
REMARK    6  A    between atoms: C_10  and  C_12
REMARK    7  A    between atoms: C_12  and  O_13
REMARK    8  A    between atoms: O_13  and  C_14
REMARK                            x       y       z     vdW  Elec       q    Type
REMARK                         _______ _______ _______ _____ _____    ______ ____
ROOT
ATOM      1  N   UNL     1       5.143   9.269   0.011  0.00  0.00    -0.310 N 
ATOM      2  C   UNL     1       4.946   7.936   0.006  0.00  0.00    +0.251 C 
ATOM      3  O   UNL     1       5.897   7.183  -0.005  0.00  0.00    -0.272 OA
ATOM      4  H   UNL     1       4.383   9.872   0.020  0.00  0.00    +0.149 HD
ENDROOT
BRANCH   1   8
ATOM      5  C   UNL     1       8.727  11.160  -1.711  0.00  0.00    -0.010 C 
ATOM      6  C   UNL     1       7.896  11.810  -0.599  0.00  0.00    -0.072 C 
ATOM      7  C   UNL     1       6.490  11.214  -0.598  0.00  0.00    +0.009 C 
ATOM      8  C   UNL     1       6.508   9.810   0.004  0.00  0.00    +0.070 C 
ATOM      9  C   UNL     1       7.020   9.904   1.441  0.00  0.00    +0.009 C 
ATOM     10  C   UNL     1       8.431  10.486   1.466  0.00  0.00    -0.072 C 
ATOM     11  C   UNL     1       9.433   9.421   1.004  0.00  0.00    -0.010 C 
ATOM     12  C   UNL     1       8.769  10.823   2.936  0.00  0.00    -0.010 C 
ATOM     13  C   UNL     1       7.765  13.310  -0.945  0.00  0.00    -0.010 C 
ATOM     14  N   UNL     1       8.600  11.756   0.710  0.00  0.00    +0.386 N 
ATOM     15  H   UNL     1       8.245  12.523   1.294  0.00  0.00    -0.084 HD
ATOM     16  H   UNL     1       9.603  11.893   0.538  0.00  0.00    -0.084 HD
ENDBRANCH   1   8
BRANCH   2  17
ATOM     17  C   UNL     1       3.545   7.381   0.013  0.00  0.00    +0.324 C 
BRANCH  17  18
ATOM     18  O   UNL     1       3.598   5.953   0.005  0.00  0.00    -0.483 OA
BRANCH  18  19
ATOM     19  C   UNL     1       2.413   5.292   0.011  0.00  0.00    +0.125 A 
ATOM     20  C   UNL     1       1.220   6.013   0.023  0.00  0.00    +0.046 A 
ATOM     21  C   UNL     1       0.020   5.363   0.029  0.00  0.00    +0.015 A 
ATOM     22  C   UNL     1      -0.013   3.964   0.022  0.00  0.00    +0.021 A 
ATOM     23  C   UNL     1       1.188   3.231   0.009  0.00  0.00    +0.143 A 
ATOM     24  C   UNL     1       2.398   3.907   0.003  0.00  0.00    +0.092 A 
ATOM     25  O   UNL     1       1.149   1.881   0.001  0.00  0.00    -0.422 OA
ATOM     26  C   UNL     1      -0.014   1.214   0.009  0.00  0.00    +0.341 A 
ATOM     27  O   UNL     1       0.002  -0.004   0.002  0.00  0.00    -0.245 OA
ATOM     28  C   UNL     1      -1.259   1.884   0.018  0.00  0.00    +0.041 A 
ATOM     29  C   UNL     1      -1.287   3.240   0.031  0.00  0.00    -0.027 A 
ATOM     30  C   UNL     1      -2.714   3.736   0.048  0.00  0.00    +0.036 C 
ATOM     31  C   UNL     1      -3.557   2.518   0.485  0.00  0.00    +0.010 C 
ATOM     32  C   UNL     1      -2.670   1.337   0.035  0.00  0.00    +0.043 C 
ENDBRANCH  18  19
ENDBRANCH  17  18
ENDBRANCH   2  17
TORSDOF 4
