REMARK  Name = ZINC07951793
REMARK  3 active torsions:
REMARK  status: ('A' for Active; 'I' for Inactive)
REMARK    1  A    between atoms: C_4  and  O_24
REMARK    2  A    between atoms: C_5  and  N_7
REMARK    3  A    between atoms: C_13  and  C_15
REMARK                            x       y       z     vdW  Elec       q    Type
REMARK                         _______ _______ _______ _____ _____    ______ ____
ROOT
ATOM      1  N   UNL     1      -1.338   8.561  -0.634  0.00  0.00    -0.324 N 
ATOM      2  C   UNL     1      -2.685   8.004  -0.817  0.00  0.00    +0.124 C 
ATOM      3  C   UNL     1      -2.930   6.913   0.231  0.00  0.00    +0.127 C 
ATOM      4  N   UNL     1      -1.836   5.934   0.149  0.00  0.00    -0.294 N 
ATOM      5  C   UNL     1      -0.452   6.430   0.194  0.00  0.00    +0.127 C 
ATOM      6  C   UNL     1      -0.305   7.541  -0.859  0.00  0.00    +0.124 C 
ATOM      7  C   UNL     1      -2.094   4.615   0.043  0.00  0.00    +0.253 C 
ATOM      8  O   UNL     1      -3.231   4.233  -0.163  0.00  0.00    -0.269 OA
ENDROOT
BRANCH   7   9
ATOM      9  C   UNL     1      -1.006   3.642   0.176  0.00  0.00    +0.075 A 
ATOM     10  C   UNL     1      -1.023   2.278  -0.053  0.00  0.00    +0.024 A 
ATOM     11  C   UNL     1       0.148   1.566   0.150  0.00  0.00    -0.036 A 
ATOM     12  C   UNL     1       1.239   2.280   0.555  0.00  0.00    -0.006 A 
ATOM     13  S   UNL     1       0.688   3.908   0.669  0.00  0.00    -0.088 S 
ATOM     14  C   UNL     1       2.612   1.750   0.835  0.00  0.00    +0.043 C 
ATOM     15  C   UNL     1       2.524   0.222   0.961  0.00  0.00    +0.005 C 
ATOM     16  C   UNL     1       1.718  -0.323  -0.221  0.00  0.00    +0.005 C 
ATOM     17  C   UNL     1       0.245   0.059  -0.068  0.00  0.00    +0.036 C 
ENDBRANCH   7   9
BRANCH   1  22
ATOM     18  C   UNL     1      -0.035  10.694  -3.332  0.00  0.00    +0.002 A 
ATOM     19  C   UNL     1      -0.737  11.864  -3.107  0.00  0.00    +0.004 A 
ATOM     20  C   UNL     1      -1.639  11.943  -2.063  0.00  0.00    +0.047 A 
ATOM     21  C   UNL     1      -1.843  10.849  -1.238  0.00  0.00    +0.138 A 
ATOM     22  C   UNL     1      -1.136   9.670  -1.464  0.00  0.00    +0.072 A 
ATOM     23  C   UNL     1      -0.229   9.599  -2.511  0.00  0.00    +0.027 A 
BRANCH  21  24
ATOM     24  O   UNL     1      -2.730  10.926  -0.210  0.00  0.00    -0.505 OA
ATOM     25  H   UNL     1      -2.342  11.231   0.621  0.00  0.00    +0.292 HD
ENDBRANCH  21  24
ENDBRANCH   1  22
TORSDOF 3
