REMARK  Name = ZINC63805138
REMARK  5 active torsions:
REMARK  status: ('A' for Active; 'I' for Inactive)
REMARK    1  A    between atoms: C_1  and  C_2
REMARK    2  A    between atoms: C_2  and  C_3
REMARK    3  A    between atoms: C_2  and  N_13
REMARK    4  A    between atoms: C_6  and  N_9
REMARK    5  A    between atoms: C_14  and  C_16
REMARK                            x       y       z     vdW  Elec       q    Type
REMARK                         _______ _______ _______ _____ _____    ______ ____
ROOT
ATOM      1  N   UNL     1      -1.422  -0.313   0.122  0.00  0.00    -0.306 N 
ATOM      2  C   UNL     1      -2.173  -0.434  -0.990  0.00  0.00    +0.248 C 
ATOM      3  O   UNL     1      -1.671  -0.267  -2.082  0.00  0.00    -0.272 OA
ATOM      4  H   UNL     1      -1.823  -0.447   0.995  0.00  0.00    +0.149 HD
ENDROOT
BRANCH   2   5
ATOM      5  C   UNL     1      -3.636  -0.777  -0.878  0.00  0.00    +0.169 C 
ATOM      6  C   UNL     1      -3.901  -2.069  -0.088  0.00  0.00    +0.056 C 
ATOM      7  C   UNL     1      -3.904  -3.111  -1.235  0.00  0.00    +0.100 C 
ATOM      8  C   UNL     1      -4.321  -2.321  -2.455  0.00  0.00    +0.221 C 
ATOM      9  O   UNL     1      -4.625  -2.807  -3.523  0.00  0.00    -0.275 OA
ATOM     10  N   UNL     1      -4.306  -0.992  -2.187  0.00  0.00    -0.246 N 
ATOM     11  C   UNL     1      -4.795   0.208  -2.746  0.00  0.00    +0.052 A 
ATOM     12  C   UNL     1      -4.911   0.511  -4.108  0.00  0.00    +0.025 A 
ATOM     13  C   UNL     1      -5.495   1.688  -4.521  0.00  0.00    +0.002 A 
ATOM     14  C   UNL     1      -5.982   2.604  -3.607  0.00  0.00    +0.001 A 
ATOM     15  C   UNL     1      -5.839   2.348  -2.252  0.00  0.00    +0.016 A 
ATOM     16  C   UNL     1      -5.219   1.193  -1.843  0.00  0.00    +0.032 A 
ATOM     17  S   UNL     1      -4.670   0.607  -0.251  0.00  0.00    -0.088 S 
ENDBRANCH   2   5
BRANCH   1  19
ATOM     18  C   UNL     1       0.162   1.539  -0.084  0.00  0.00    +0.033 C 
ATOM     19  C   UNL     1       0.000   0.020   0.013  0.00  0.00    +0.100 C 
BRANCH  19  20
ATOM     20  C   UNL     1       0.730  -0.485   1.231  0.00  0.00    -0.027 A 
ATOM     21  C   UNL     1       0.143  -0.382   2.479  0.00  0.00    +0.007 A 
ATOM     22  C   UNL     1       0.809  -0.845   3.597  0.00  0.00    +0.023 A 
ATOM     23  C   UNL     1       2.069  -1.414   3.467  0.00  0.00    +0.035 A 
ATOM     24  C   UNL     1       2.655  -1.516   2.213  0.00  0.00    +0.023 A 
ATOM     25  C   UNL     1       1.982  -1.057   1.098  0.00  0.00    +0.007 A 
BRANCH  23  26
ATOM     26  N   UNL     1       2.746  -1.883   4.598  0.00  0.00    -0.270 N 
ATOM     27  C   UNL     1       2.054  -2.412   5.627  0.00  0.00    +0.301 C 
ATOM     28  O   UNL     1       0.853  -2.571   5.534  0.00  0.00    -0.253 OA
ATOM     29  N   UNL     1       2.695  -2.765   6.759  0.00  0.00    -0.313 N 
ATOM     30  H   UNL     1       3.713  -1.827   4.642  0.00  0.00    +0.156 HD
ATOM     31  H   UNL     1       3.654  -2.639   6.833  0.00  0.00    +0.146 HD
ATOM     32  H   UNL     1       2.197  -3.146   7.499  0.00  0.00    +0.146 HD
ENDBRANCH  23  26
ENDBRANCH  19  20
ENDBRANCH   1  19
TORSDOF 4
