REMARK  Name = ZINC00617575
REMARK  8 active torsions:
REMARK  status: ('A' for Active; 'I' for Inactive)
REMARK    1  A    between atoms: C_1  and  C_2
REMARK    2  A    between atoms: C_4  and  C_22
REMARK    3  A    between atoms: C_5  and  S_9
REMARK    4  A    between atoms: C_6  and  C_8
REMARK    5  A    between atoms: S_9  and  N_12
REMARK    6  A    between atoms: N_12  and  C_13
REMARK    7  A    between atoms: C_16  and  C_19
REMARK    8  A    between atoms: C_19  and  C_20
REMARK                            x       y       z     vdW  Elec       q    Type
REMARK                         _______ _______ _______ _____ _____    ______ ____
ROOT
ATOM      1  S   UNL     1      -1.907   3.426   5.720  0.00  0.00    +0.073 S 
ATOM      2  O   UNL     1      -2.445   3.560   7.029  0.00  0.00    -0.150 OA
ATOM      3  O   UNL     1      -1.051   2.352   5.355  0.00  0.00    -0.150 OA
ENDROOT
BRANCH   1   8
ATOM      4  C   UNL     1       1.123   8.515   4.572  0.00  0.00    +0.044 C 
ATOM      5  C   UNL     1       0.367   7.244   4.860  0.00  0.00    -0.050 A 
ATOM      6  C   UNL     1      -0.893   7.302   5.426  0.00  0.00    +0.008 A 
ATOM      7  C   UNL     1      -1.587   6.136   5.689  0.00  0.00    -0.023 A 
ATOM      8  C   UNL     1      -1.022   4.912   5.385  0.00  0.00    +0.114 A 
ATOM      9  C   UNL     1       0.239   4.853   4.823  0.00  0.00    -0.023 A 
ATOM     10  C   UNL     1       0.932   6.019   4.556  0.00  0.00    +0.008 A 
ATOM     11  C   UNL     1       0.858   3.518   4.497  0.00  0.00    +0.046 C 
ATOM     12  C   UNL     1      -2.960   6.200   6.308  0.00  0.00    +0.046 C 
ENDBRANCH   1   8
BRANCH   1  13
ATOM     13  N   UNL     1      -3.196   3.378   4.681  0.00  0.00    -0.216 N 
ATOM     14  H   UNL     1      -4.100   3.453   5.026  0.00  0.00    +0.174 HD
BRANCH  13  15
ATOM     15  C   UNL     1      -2.982   3.232   3.309  0.00  0.00    +0.048 A 
ATOM     16  C   UNL     1      -3.733   2.318   2.581  0.00  0.00    +0.025 A 
ATOM     17  C   UNL     1      -3.519   2.176   1.224  0.00  0.00    +0.006 A 
ATOM     18  C   UNL     1      -2.558   2.942   0.590  0.00  0.00    -0.033 A 
ATOM     19  C   UNL     1      -1.804   3.848   1.313  0.00  0.00    +0.006 A 
ATOM     20  C   UNL     1      -2.017   3.999   2.669  0.00  0.00    +0.025 A 
BRANCH  18  21
ATOM     21  C   UNL     1      -2.327   2.784  -0.891  0.00  0.00    +0.153 C 
BRANCH  21  22
ATOM     22  C   UNL     1      -3.200   3.714  -1.625  0.00  0.00    +0.067 C 
ATOM     23  N   UNL     1      -3.873   4.432  -2.192  0.00  0.00    -0.196 NA
ENDBRANCH  21  22
ENDBRANCH  18  21
ENDBRANCH  13  15
ENDBRANCH   1  13
TORSDOF 5
