REMARK  Name = ZINC63339920
REMARK  12 active torsions:
REMARK  status: ('A' for Active; 'I' for Inactive)
REMARK    1  A    between atoms: C_1  and  C_2
REMARK    2  A    between atoms: C_11  and  O_13
REMARK    3  A    between atoms: O_13  and  C_14
REMARK    4  A    between atoms: C_14  and  C_16
REMARK    5  A    between atoms: C_16  and  C_18
REMARK    6  A    between atoms: C_16  and  N_28
REMARK    7  A    between atoms: C_18  and  C_19
REMARK    8  A    between atoms: C_29  and  O_31
REMARK    9  A    between atoms: O_31  and  C_32
REMARK   10  A    between atoms: C_32  and  C_33
REMARK   11  A    between atoms: C_32  and  C_34
REMARK   12  A    between atoms: C_32  and  C_35
REMARK                            x       y       z     vdW  Elec       q    Type
REMARK                         _______ _______ _______ _____ _____    ______ ____
ROOT
ATOM      1  C   UNL     1       0.332  -3.023   7.208  0.00  0.00    +0.189 C 
ENDROOT
BRANCH   1   2
ATOM      2  N   UNL     1      -0.045  -2.147   8.320  0.00  0.00    -0.268 N 
ATOM      3  C   UNL     1       0.629  -0.998   8.531  0.00  0.00    +0.401 C 
ATOM      4  O   UNL     1       1.548  -0.690   7.800  0.00  0.00    -0.226 OA
ATOM      5  H   UNL     1      -0.779  -2.393   8.904  0.00  0.00    +0.153 HD
BRANCH   3   6
ATOM      6  O   UNL     1       0.282  -0.193   9.553  0.00  0.00    -0.445 OA
BRANCH   6   7
ATOM      7  C   UNL     1       1.039   1.008   9.719  0.00  0.00    +0.107 C 
ATOM      8  C   UNL     1       0.915   1.866   8.458  0.00  0.00    +0.055 C 
ATOM      9  C   UNL     1       0.503   1.786  10.921  0.00  0.00    +0.055 C 
ATOM     10  C   UNL     1       2.509   0.655   9.953  0.00  0.00    +0.055 C 
ENDBRANCH   6   7
ENDBRANCH   3   6
ENDBRANCH   1   2
BRANCH   1  11
ATOM     11  C   UNL     1       0.192  -2.273   5.908  0.00  0.00    +0.333 C 
ATOM     12  O   UNL     1       0.173  -1.065   5.906  0.00  0.00    -0.248 OA
BRANCH  11  13
ATOM     13  O   UNL     1       0.086  -2.948   4.752  0.00  0.00    -0.424 OA
BRANCH  13  24
ATOM     14  C   UNL     1      -1.183   0.096  -0.854  0.00  0.00    +0.045 C 
ATOM     15  C   UNL     1       0.058  -0.017  -0.006  0.00  0.00    -0.033 A 
ATOM     16  C   UNL     1       1.211   0.599  -0.373  0.00  0.00    +0.096 A 
ATOM     17  C   UNL     1       2.359   0.479   0.437  0.00  0.00    +0.337 A 
ATOM     18  O   UNL     1       3.387   1.036   0.097  0.00  0.00    -0.245 OA
ATOM     19  O   UNL     1       2.348  -0.234   1.574  0.00  0.00    -0.422 OA
ATOM     20  C   UNL     1       1.234  -0.871   1.996  0.00  0.00    +0.143 A 
ATOM     21  C   UNL     1       0.051  -0.788   1.239  0.00  0.00    +0.021 A 
ATOM     22  C   UNL     1      -1.107  -1.442   1.675  0.00  0.00    +0.015 A 
ATOM     23  C   UNL     1      -1.085  -2.155   2.839  0.00  0.00    +0.047 A 
ATOM     24  C   UNL     1       0.081  -2.236   3.596  0.00  0.00    +0.135 A 
ATOM     25  C   UNL     1       1.240  -1.603   3.173  0.00  0.00    +0.093 A 
ENDBRANCH  13  24
ENDBRANCH  11  13
ENDBRANCH   1  11
BRANCH   1  26
ATOM     26  C   UNL     1       1.784  -3.473   7.382  0.00  0.00    +0.067 C 
BRANCH  26  27
ATOM     27  C   UNL     1       1.900  -4.326   8.619  0.00  0.00    -0.039 C 
ATOM     28  C   UNL     1       1.859  -5.676   8.682  0.00  0.00    -0.001 A 
ATOM     29  C   UNL     1       1.698  -6.715   7.658  0.00  0.00    +0.010 A 
ATOM     30  C   UNL     1       1.696  -8.014   8.035  0.00  0.00    +0.001 A 
ATOM     31  C   UNL     1       1.841  -8.392   9.377  0.00  0.00    +0.002 A 
ATOM     32  C   UNL     1       1.994  -7.495  10.375  0.00  0.00    +0.026 A 
ATOM     33  C   UNL     1       2.011  -6.101  10.092  0.00  0.00    +0.043 A 
ATOM     34  N   UNL     1       2.142  -5.054  10.870  0.00  0.00    -0.380 N 
ATOM     35  C   UNL     1       2.093  -3.846  10.040  0.00  0.00    +0.144 C 
ATOM     36  H   UNL     1       2.256  -5.076  11.833  0.00  0.00    +0.160 HD
ENDBRANCH  26  27
ENDBRANCH   1  26
TORSDOF 8
