REMARK  Name = ZINC31870562
REMARK  6 active torsions:
REMARK  status: ('A' for Active; 'I' for Inactive)
REMARK    1  A    between atoms: C_9  and  C_12
REMARK    2  A    between atoms: N_14  and  C_15
REMARK    3  A    between atoms: C_15  and  C_16
REMARK    4  A    between atoms: N_18  and  N_19
REMARK    5  A    between atoms: C_20  and  C_21
REMARK    6  A    between atoms: C_25  and  O_27
REMARK                            x       y       z     vdW  Elec       q    Type
REMARK                         _______ _______ _______ _____ _____    ______ ____
ROOT
ATOM      1  C   UNL     1       4.738   5.238   0.285  0.00  0.00    +0.202 C 
ENDROOT
BRANCH   1   4
ATOM      2  C   UNL     1       7.105   5.751   0.548  0.00  0.00    +0.258 C 
ATOM      3  O   UNL     1       7.349   4.575   0.380  0.00  0.00    -0.272 OA
ATOM      4  N   UNL     1       5.830   6.186   0.519  0.00  0.00    -0.304 N 
ATOM      5  H   UNL     1       5.609   7.253   0.672  0.00  0.00    +0.149 HD
BRANCH   2  14
ATOM      6  C   UNL     1      12.826   8.022   2.101  0.00  0.00    +0.004 A 
ATOM      7  C   UNL     1      12.964   6.954   1.234  0.00  0.00    +0.004 A 
ATOM      8  C   UNL     1      11.845   6.298   0.758  0.00  0.00    +0.049 A 
ATOM      9  C   UNL     1      10.579   6.710   1.148  0.00  0.00    +0.163 A 
ATOM     10  C   UNL     1      10.440   7.785   2.018  0.00  0.00    +0.162 A 
ATOM     11  C   UNL     1      11.568   8.438   2.493  0.00  0.00    +0.049 A 
ATOM     12  O   UNL     1       9.208   8.210   2.408  0.00  0.00    -0.484 OA
ATOM     13  C   UNL     1       8.120   7.301   2.208  0.00  0.00    +0.283 C 
ATOM     14  C   UNL     1       8.229   6.726   0.789  0.00  0.00    +0.296 C 
ATOM     15  O   UNL     1       9.487   6.052   0.673  0.00  0.00    -0.473 OA
ENDBRANCH   2  14
ENDBRANCH   1   4
BRANCH   1  16
ATOM     16  C   UNL     1       3.423   5.974   0.301  0.00  0.00    +0.249 C 
ATOM     17  O   UNL     1       3.400   7.172   0.489  0.00  0.00    -0.272 OA
ATOM     18  N   UNL     1       2.272   5.300   0.106  0.00  0.00    -0.206 N 
ATOM     19  H   UNL     1       2.292   4.214  -0.065  0.00  0.00    +0.177 HD
BRANCH  18  20
ATOM     20  N   UNL     1       1.049   5.984   0.120  0.00  0.00    -0.188 NA
ATOM     21  C   UNL     1      -0.065   5.321   0.059  0.00  0.00    +0.138 C 
BRANCH  21  22
ATOM     22  C   UNL     1      -0.120   3.926   0.533  0.00  0.00    -0.002 A 
ATOM     23  C   UNL     1       0.912   3.411   1.321  0.00  0.00    +0.010 A 
ATOM     24  C   UNL     1       0.857   2.106   1.763  0.00  0.00    +0.004 A 
ATOM     25  C   UNL     1      -0.218   1.302   1.427  0.00  0.00    +0.045 A 
ATOM     26  C   UNL     1      -1.247   1.803   0.640  0.00  0.00    +0.117 A 
ATOM     27  C   UNL     1      -1.205   3.114   0.196  0.00  0.00    +0.054 A 
BRANCH  26  28
ATOM     28  O   UNL     1      -2.297   1.007   0.309  0.00  0.00    -0.507 OA
ATOM     29  H   UNL     1      -3.112   1.403  -0.314  0.00  0.00    +0.292 HD
ENDBRANCH  26  28
ENDBRANCH  21  22
ENDBRANCH  18  20
ENDBRANCH   1  16
TORSDOF 6
