REMARK  Name = ZINC20766521
REMARK  7 active torsions:
REMARK  status: ('A' for Active; 'I' for Inactive)
REMARK    1  A    between atoms: C_1  and  O_2
REMARK    2  A    between atoms: O_2  and  C_3
REMARK    3  A    between atoms: C_3  and  C_5
REMARK    4  A    between atoms: C_10  and  N_11
REMARK    5  A    between atoms: N_11  and  S_12
REMARK    6  A    between atoms: S_12  and  C_15
REMARK    7  A    between atoms: C_25  and  C_27
REMARK                            x       y       z     vdW  Elec       q    Type
REMARK                         _______ _______ _______ _____ _____    ______ ____
ROOT
ATOM      1  C   UNL     1       2.629   0.097  -0.433  0.00  0.00    +0.109 A 
ATOM      2  C   UNL     1       1.465  -0.356   0.163  0.00  0.00    +0.030 A 
ATOM      3  C   UNL     1       0.352   0.459   0.205  0.00  0.00    +0.026 A 
ATOM      4  C   UNL     1       0.400   1.733  -0.351  0.00  0.00    +0.040 A 
ATOM      5  C   UNL     1       1.567   2.187  -0.944  0.00  0.00    -0.024 A 
ATOM      6  C   UNL     1       2.679   1.362  -0.984  0.00  0.00    +0.034 A 
ATOM      7  C   UNL     1       1.660   3.565  -1.545  0.00  0.00    +0.038 C 
ATOM      8  C   UNL     1       0.266   4.104  -1.863  0.00  0.00    +0.024 C 
ATOM      9  C   UNL     1      -0.615   3.971  -0.614  0.00  0.00    +0.114 C 
ATOM     10  N   UNL     1      -0.744   2.540  -0.307  0.00  0.00    -0.267 N 
ATOM     11  C   UNL     1      -1.943   2.013   0.013  0.00  0.00    +0.251 C 
ATOM     12  O   UNL     1      -2.028   0.840   0.321  0.00  0.00    -0.270 OA
ENDROOT
BRANCH  11  13
ATOM     13  C   UNL     1      -3.153   2.860  -0.012  0.00  0.00    +0.037 A 
ATOM     14  C   UNL     1      -3.063   4.219   0.296  0.00  0.00    +0.014 A 
ATOM     15  C   UNL     1      -4.195   5.006   0.266  0.00  0.00    +0.021 A 
ATOM     16  C   UNL     1      -5.421   4.449  -0.060  0.00  0.00    +0.041 A 
ATOM     17  C   UNL     1      -5.517   3.100  -0.361  0.00  0.00    +0.021 A 
ATOM     18  C   UNL     1      -4.391   2.304  -0.339  0.00  0.00    +0.014 A 
ATOM     19 CL   UNL     1      -6.843   5.445  -0.090  0.00  0.00    -0.084 Cl
ENDBRANCH  11  13
BRANCH   1  20
ATOM     20  S   UNL     1       4.049  -0.944  -0.489  0.00  0.00    +0.072 S 
ATOM     21  O   UNL     1       5.176  -0.087  -0.614  0.00  0.00    -0.150 OA
ATOM     22  O   UNL     1       3.914  -1.873   0.577  0.00  0.00    -0.150 OA
BRANCH  20  23
ATOM     23  N   UNL     1       3.961  -1.818  -1.893  0.00  0.00    -0.215 N 
ATOM     24  H   UNL     1       3.918  -2.916  -1.855  0.00  0.00    +0.174 HD
BRANCH  23  30
ATOM     25  C   UNL     1       3.205  -1.693  -4.189  0.00  0.00    +0.081 A 
ATOM     26  C   UNL     1       3.193  -1.024  -5.416  0.00  0.00    +0.017 A 
ATOM     27  C   UNL     1       3.903   0.147  -5.567  0.00  0.00    +0.001 A 
ATOM     28  C   UNL     1       4.630   0.667  -4.507  0.00  0.00    +0.002 A 
ATOM     29  C   UNL     1       4.647   0.021  -3.288  0.00  0.00    +0.025 A 
ATOM     30  C   UNL     1       3.942  -1.164  -3.117  0.00  0.00    +0.062 A 
BRANCH  25  31
ATOM     31  C   UNL     1       2.448  -2.946  -4.020  0.00  0.00    +0.341 C 
ATOM     32  O   UNL     1       2.460  -3.524  -2.952  0.00  0.00    -0.245 OA
BRANCH  31  34
ATOM     33  C   UNL     1       1.020  -4.687  -4.814  0.00  0.00    +0.280 C 
ATOM     34  O   UNL     1       1.742  -3.450  -5.052  0.00  0.00    -0.464 OA
ENDBRANCH  31  34
ENDBRANCH  25  31
ENDBRANCH  23  30
ENDBRANCH  20  23
ENDBRANCH   1  20
TORSDOF 6
