REMARK  Name = ZINC29056443
REMARK  8 active torsions:
REMARK  status: ('A' for Active; 'I' for Inactive)
REMARK    1  A    between atoms: C_1  and  C_2
REMARK    2  A    between atoms: C_2  and  C_4
REMARK    3  A    between atoms: C_2  and  O_37
REMARK    4  A    between atoms: C_12  and  N_13
REMARK    5  A    between atoms: C_19  and  C_21
REMARK    6  A    between atoms: C_21  and  C_22
REMARK    7  A    between atoms: C_22  and  S_23
REMARK    8  A    between atoms: S_23  and  C_26
REMARK                            x       y       z     vdW  Elec       q    Type
REMARK                         _______ _______ _______ _____ _____    ______ ____
ROOT
ATOM      1  N   UNL     1      -0.882   2.880  -6.043  0.00  0.00    -0.313 N 
ATOM      2  C   UNL     1       0.389   2.177  -5.824  0.00  0.00    +0.125 C 
ATOM      3  C   UNL     1       0.149   0.969  -4.912  0.00  0.00    +0.126 C 
ATOM      4  N   UNL     1      -0.524   1.433  -3.689  0.00  0.00    -0.298 N 
ATOM      5  C   UNL     1      -1.734   2.256  -3.831  0.00  0.00    +0.126 C 
ATOM      6  C   UNL     1      -1.417   3.418  -4.785  0.00  0.00    +0.125 C 
ATOM      7  C   UNL     1      -0.047   1.107  -2.471  0.00  0.00    +0.217 C 
ATOM      8  O   UNL     1       0.949   0.422  -2.373  0.00  0.00    -0.276 OA
ENDROOT
BRANCH   1  17
ATOM      9  C   UNL     1      -3.751   5.640  -7.593  0.00  0.00    +0.063 A 
ATOM     10  C   UNL     1      -3.123   4.658  -6.914  0.00  0.00    +0.118 A 
ATOM     11  N   UNL     1      -1.816   4.650  -7.331  0.00  0.00    -0.289 N 
ATOM     12  C   UNL     1      -1.688   5.644  -8.267  0.00  0.00    +0.117 A 
ATOM     13  N   UNL     1      -2.870   6.229  -8.408  0.00  0.00    -0.341 N 
ATOM     14  C   UNL     1      -0.439   5.872  -8.876  0.00  0.00    +0.045 A 
ATOM     15  C   UNL     1       0.628   5.100  -8.528  0.00  0.00    +0.007 A 
ATOM     16  C   UNL     1       0.474   4.093  -7.568  0.00  0.00    +0.042 A 
ATOM     17  C   UNL     1      -0.739   3.879  -6.988  0.00  0.00    +0.107 A 
ATOM     18  H   UNL     1      -3.188   7.061  -9.053  0.00  0.00    +0.167 HD
BRANCH   9  20
ATOM     19  C   UNL     1      -5.321   7.501  -7.122  0.00  0.00    +0.044 C 
ATOM     20  C   UNL     1      -5.205   6.012  -7.455  0.00  0.00    +0.159 C 
BRANCH  20  21
ATOM     21  O   UNL     1      -5.883   5.745  -8.684  0.00  0.00    -0.386 OA
ATOM     22  H   UNL     1      -5.908   4.722  -9.088  0.00  0.00    +0.210 HD
ENDBRANCH  20  21
ENDBRANCH   9  20
ENDBRANCH   1  17
BRANCH   7  23
ATOM     23  C   UNL     1      -0.753   1.593  -1.232  0.00  0.00    +0.119 C 
BRANCH  23  24
ATOM     24  C   UNL     1      -0.013   1.086   0.008  0.00  0.00    +0.181 C 
BRANCH  24  25
ATOM     25  S   UNL     1      -0.862   1.671   1.500  0.00  0.00    -0.003 S 
ATOM     26  O   UNL     1      -0.735   3.082   1.615  0.00  0.00    -0.169 OA
ATOM     27  O   UNL     1      -2.133   1.046   1.617  0.00  0.00    -0.169 OA
BRANCH  25  28
ATOM     28  C   UNL     1       0.082   1.024   2.841  0.00  0.00    +0.089 A 
ATOM     29  C   UNL     1      -0.241  -0.225   3.368  0.00  0.00    +0.027 A 
ATOM     30  C   UNL     1       0.471  -0.755   4.399  0.00  0.00    +0.010 A 
ATOM     31  C   UNL     1       1.541  -0.030   4.951  0.00  0.00    -0.016 A 
ATOM     32  C   UNL     1       2.295  -0.543   6.020  0.00  0.00    +0.028 A 
ATOM     33  C   UNL     1       3.325   0.188   6.530  0.00  0.00    +0.042 A 
ATOM     34  C   UNL     1       3.644   1.440   6.005  0.00  0.00    +0.020 A 
ATOM     35  C   UNL     1       2.936   1.968   4.971  0.00  0.00    +0.010 A 
ATOM     36  C   UNL     1       1.866   1.242   4.419  0.00  0.00    -0.016 A 
ATOM     37  C   UNL     1       1.111   1.755   3.350  0.00  0.00    +0.035 A 
ATOM     38 CL   UNL     1       4.254  -0.448   7.851  0.00  0.00    -0.084 Cl
ENDBRANCH  25  28
ENDBRANCH  24  25
ENDBRANCH  23  24
ENDBRANCH   7  23
TORSDOF 7
