REMARK  Name = ZINC04475426
REMARK  5 active torsions:
REMARK  status: ('A' for Active; 'I' for Inactive)
REMARK    1  A    between atoms: C_1  and  C_2
REMARK    2  A    between atoms: N_7  and  N_8
REMARK    3  A    between atoms: C_9  and  C_10
REMARK    4  A    between atoms: C_13  and  O_17
REMARK    5  A    between atoms: C_14  and  O_16
REMARK                            x       y       z     vdW  Elec       q    Type
REMARK                         _______ _______ _______ _____ _____    ______ ____
ROOT
ATOM      1  N   UNL     1      -4.461   2.924   3.745  0.00  0.00    -0.188 NA
ATOM      2  C   UNL     1      -5.724   3.177   3.911  0.00  0.00    +0.138 C 
ENDROOT
BRANCH   1   9
ATOM      3  C   UNL     1      -0.013   1.086   0.008  0.00  0.00    +0.066 C 
ATOM      4  C   UNL     1      -0.718   1.572   1.248  0.00  0.00    +0.047 A 
ATOM      5  C   UNL     1      -0.029   1.806   2.391  0.00  0.00    +0.071 A 
ATOM      6  S   UNL     1      -1.347   2.342   3.471  0.00  0.00    -0.059 S 
ATOM      7  C   UNL     1      -2.646   2.205   2.327  0.00  0.00    +0.178 A 
ATOM      8  N   UNL     1      -2.020   1.784   1.244  0.00  0.00    -0.229 NA
ATOM      9  N   UNL     1      -3.993   2.475   2.503  0.00  0.00    -0.215 N 
ATOM     10  H   UNL     1      -4.613   2.353   1.767  0.00  0.00    +0.176 HD
ENDBRANCH   1   9
BRANCH   2  11
ATOM     11  C   UNL     1      -6.216   3.650   5.217  0.00  0.00    -0.002 A 
ATOM     12  C   UNL     1      -5.326   3.821   6.281  0.00  0.00    +0.013 A 
ATOM     13  C   UNL     1      -5.787   4.268   7.501  0.00  0.00    +0.050 A 
ATOM     14  C   UNL     1      -7.136   4.539   7.679  0.00  0.00    +0.158 A 
ATOM     15  C   UNL     1      -8.030   4.365   6.625  0.00  0.00    +0.159 A 
ATOM     16  C   UNL     1      -7.574   3.922   5.397  0.00  0.00    +0.058 A 
BRANCH  15  17
ATOM     17  O   UNL     1      -9.352   4.631   6.804  0.00  0.00    -0.503 OA
ATOM     18  H   UNL     1      -9.869   3.873   7.107  0.00  0.00    +0.292 HD
ENDBRANCH  15  17
BRANCH  14  19
ATOM     19  O   UNL     1      -7.587   4.974   8.886  0.00  0.00    -0.503 OA
ATOM     20  H   UNL     1      -7.851   4.263   9.486  0.00  0.00    +0.292 HD
ENDBRANCH  14  19
ENDBRANCH   2  11
TORSDOF 4
