REMARK  Name = ZINC64164319
REMARK  7 active torsions:
REMARK  status: ('A' for Active; 'I' for Inactive)
REMARK    1  A    between atoms: C_1  and  C_2
REMARK    2  A    between atoms: C_2  and  O_3
REMARK    3  A    between atoms: O_3  and  C_4
REMARK    4  A    between atoms: C_4  and  C_6
REMARK    5  A    between atoms: C_9  and  N_12
REMARK    6  A    between atoms: C_13  and  C_15
REMARK    7  A    between atoms: C_29  and  C_34
REMARK                            x       y       z     vdW  Elec       q    Type
REMARK                         _______ _______ _______ _____ _____    ______ ____
ROOT
ATOM      1  C   UNL     1      -8.302  -5.798   0.075  0.00  0.00    +0.111 C 
ATOM      2  C   UNL     1      -9.032  -5.429  -1.245  0.00  0.00    +0.034 C 
ATOM      3  C   UNL     1     -10.115  -6.531  -1.325  0.00  0.00    +0.059 C 
ATOM      4  C   UNL     1     -10.474  -6.783  -2.797  0.00  0.00    +0.020 C 
ATOM      5  C   UNL     1     -10.004  -8.226  -3.089  0.00  0.00    +0.017 C 
ATOM      6  C   UNL     1      -8.915  -8.459  -2.013  0.00  0.00    +0.086 C 
ATOM      7  N   UNL     1      -9.452  -7.755  -0.800  0.00  0.00    -0.282 NA
ATOM      8  C   UNL     1      -8.350  -7.333   0.079  0.00  0.00    +0.137 C 
ATOM      9  C   UNL     1      -7.036  -7.909  -0.376  0.00  0.00    +0.004 A 
ATOM     10  C   UNL     1      -6.315  -7.807  -1.544  0.00  0.00    +0.008 A 
ATOM     11  C   UNL     1      -5.106  -8.468  -1.671  0.00  0.00    +0.001 A 
ATOM     12  C   UNL     1      -4.626  -9.231  -0.622  0.00  0.00    +0.005 A 
ATOM     13  C   UNL     1      -5.346  -9.336   0.550  0.00  0.00    -0.029 A 
ATOM     14  C   UNL     1      -6.564  -8.674   0.685  0.00  0.00    +0.042 A 
ATOM     15  N   UNL     1      -7.462  -8.624   1.754  0.00  0.00    -0.283 N 
ATOM     16  C   UNL     1      -8.534  -7.859   1.480  0.00  0.00    +0.243 C 
ATOM     17  O   UNL     1      -9.470  -7.634   2.219  0.00  0.00    -0.273 OA
ATOM     18  C   UNL     1      -4.814 -10.170   1.686  0.00  0.00    +0.045 C 
ATOM     19  H   UNL     1      -7.327  -9.087   2.595  0.00  0.00    +0.155 HD
ENDROOT
BRANCH   1  21
ATOM     20  N   UNL     1      -6.175  -5.224   1.200  0.00  0.00    -0.285 N 
ATOM     21  C   UNL     1      -6.877  -5.309   0.053  0.00  0.00    +0.223 C 
ATOM     22  O   UNL     1      -6.362  -4.990  -0.998  0.00  0.00    -0.275 OA
ATOM     23  H   UNL     1      -6.561  -5.548   2.029  0.00  0.00    +0.155 HD
BRANCH  20  27
ATOM     24  C   UNL     1      -2.351  -3.574   1.186  0.00  0.00    +0.059 A 
ATOM     25  C   UNL     1      -3.325  -3.092   0.307  0.00  0.00    +0.017 A 
ATOM     26  C   UNL     1      -4.588  -3.640   0.314  0.00  0.00    +0.024 A 
ATOM     27  C   UNL     1      -4.895  -4.672   1.195  0.00  0.00    +0.033 A 
ATOM     28  C   UNL     1      -3.928  -5.154   2.072  0.00  0.00    +0.024 A 
ATOM     29  C   UNL     1      -2.661  -4.615   2.066  0.00  0.00    +0.017 A 
BRANCH  24  30
ATOM     30  C   UNL     1      -0.997  -2.990   1.181  0.00  0.00    +0.339 C 
ATOM     31  O   UNL     1      -0.149  -3.413   1.942  0.00  0.00    -0.245 OA
BRANCH  30  32
ATOM     32  O   UNL     1      -0.699  -1.986   0.332  0.00  0.00    -0.461 OA
BRANCH  32  34
ATOM     33  C   UNL     1       0.779  -0.344  -0.646  0.00  0.00    +0.048 C 
ATOM     34  C   UNL     1       0.631  -1.468   0.381  0.00  0.00    +0.229 C 
ENDBRANCH  32  34
ENDBRANCH  30  32
ENDBRANCH  24  30
ENDBRANCH  20  27
ENDBRANCH   1  21
TORSDOF 5
