REMARK  Name = ZINC39674618
REMARK  10 active torsions:
REMARK  status: ('A' for Active; 'I' for Inactive)
REMARK    1  A    between atoms: C_1  and  C_2
REMARK    2  A    between atoms: C_2  and  C_3
REMARK    3  A    between atoms: C_3  and  C_4
REMARK    4  A    between atoms: C_4  and  C_5
REMARK    5  A    between atoms: C_9  and  C_18
REMARK    6  A    between atoms: N_20  and  C_21
REMARK    7  A    between atoms: C_21  and  C_22
REMARK    8  A    between atoms: C_22  and  C_23
REMARK    9  A    between atoms: C_26  and  C_34
REMARK   10  A    between atoms: C_31  and  C_33
REMARK                            x       y       z     vdW  Elec       q    Type
REMARK                         _______ _______ _______ _____ _____    ______ ____
ROOT
ATOM      1  C   UNL     1      -2.347  -7.460   0.418  0.00  0.00    +0.218 C 
ATOM      2  O   UNL     1      -2.335  -7.663  -0.777  0.00  0.00    -0.275 OA
ATOM      3  N   UNL     1      -2.098  -8.471   1.275  0.00  0.00    -0.315 N 
ATOM      4  H   UNL     1      -2.108  -8.309   2.232  0.00  0.00    +0.149 HD
ENDROOT
BRANCH   1   9
ATOM      5  C   UNL     1      -2.987  -2.606  -0.018  0.00  0.00    +0.216 C 
ATOM      6  O   UNL     1      -3.937  -1.856   0.050  0.00  0.00    -0.276 OA
ATOM      7  N   UNL     1      -3.178  -3.940   0.011  0.00  0.00    -0.300 N 
ATOM      8  C   UNL     1      -2.152  -5.007  -0.052  0.00  0.00    +0.121 C 
ATOM      9  C   UNL     1      -2.641  -6.080   0.946  0.00  0.00    +0.100 C 
ATOM     10  C   UNL     1      -4.159  -5.856   1.051  0.00  0.00    -0.004 C 
ATOM     11  C   UNL     1      -4.463  -4.671   0.122  0.00  0.00    +0.115 C 
ATOM     12  C   UNL     1      -4.543  -5.506   2.485  0.00  0.00    -0.010 C 
ATOM     13  C   UNL     1      -6.064  -5.344   2.575  0.00  0.00    -0.082 C 
ATOM     14  N   UNL     1      -6.716  -6.592   2.163  0.00  0.00    +0.379 N 
ATOM     15  C   UNL     1      -6.415  -6.873   0.754  0.00  0.00    -0.082 C 
ATOM     16  C   UNL     1      -4.910  -7.099   0.586  0.00  0.00    -0.010 C 
ATOM     17  H   UNL     1      -6.378  -7.352   2.735  0.00  0.00    -0.086 HD
ATOM     18  H   UNL     1      -7.714  -6.504   2.281  0.00  0.00    -0.086 HD
BRANCH   5  19
ATOM     19  C   UNL     1      -1.592  -2.048  -0.136  0.00  0.00    +0.096 C 
BRANCH  19  20
ATOM     20  C   UNL     1      -1.654  -0.519  -0.147  0.00  0.00    +0.009 C 
BRANCH  20  22
ATOM     21  C   UNL     1      -0.300   1.576  -0.278  0.00  0.00    +0.004 C 
ATOM     22  C   UNL     1      -0.238   0.048  -0.267  0.00  0.00    -0.003 C 
ENDBRANCH  20  22
ENDBRANCH  19  20
ENDBRANCH   5  19
ENDBRANCH   1   9
BRANCH   3  23
ATOM     23  C   UNL     1      -1.813  -9.813   0.762  0.00  0.00    +0.108 C 
BRANCH  23  24
ATOM     24  C   UNL     1      -1.568 -10.765   1.934  0.00  0.00    +0.052 C 
BRANCH  24  25
ATOM     25  C   UNL     1      -1.274 -12.146   1.407  0.00  0.00    -0.037 C 
ATOM     26  C   UNL     1      -1.219 -12.528   0.105  0.00  0.00    +0.000 A 
ATOM     27  C   UNL     1      -1.406 -11.805  -1.103  0.00  0.00    +0.028 A 
ATOM     28  C   UNL     1      -1.292 -12.446  -2.314  0.00  0.00    +0.052 A 
ATOM     29  C   UNL     1      -0.980 -13.869  -2.393  0.00  0.00    +0.021 A 
ATOM     30  C   UNL     1      -0.791 -14.606  -1.279  0.00  0.00    +0.027 A 
ATOM     31  C   UNL     1      -0.901 -13.971   0.040  0.00  0.00    +0.043 A 
ATOM     32  N   UNL     1      -0.766 -14.463   1.247  0.00  0.00    -0.378 N 
ATOM     33  C   UNL     1      -0.976 -13.385   2.219  0.00  0.00    +0.103 C 
ATOM     34  C   UNL     1       0.286 -13.174   3.058  0.00  0.00    +0.035 C 
ATOM     35  H   UNL     1      -0.557 -15.386   1.462  0.00  0.00    +0.160 HD
BRANCH  28  36
ATOM     36  C   UNL     1      -1.485 -11.702  -3.523  0.00  0.00    +0.099 C 
ATOM     37  N   UNL     1      -1.637 -11.112  -4.481  0.00  0.00    -0.191 NA
ENDBRANCH  28  36
ENDBRANCH  24  25
ENDBRANCH  23  24
ENDBRANCH   3  23
TORSDOF 8
