REMARK  Name = ZINC14944988
REMARK  1 active torsions:
REMARK  status: ('A' for Active; 'I' for Inactive)
REMARK    1  A    between atoms: C_6  and  N_7
REMARK                            x       y       z     vdW  Elec       q    Type
REMARK                         _______ _______ _______ _____ _____    ______ ____
ROOT
ATOM      1  N   UNL     1      -1.648   2.867   2.817  0.00  0.00    -0.210 N 
ATOM      2  C   UNL     1      -0.852   1.782   2.545  0.00  0.00    +0.228 C 
ATOM      3  O   UNL     1      -0.261   1.083   3.341  0.00  0.00    -0.275 OA
ATOM      4  C   UNL     1      -0.818   1.654   1.115  0.00  0.00    +0.074 C 
ATOM      5  C   UNL     1      -0.013   1.086   0.008  0.00  0.00    -0.054 C 
ATOM      6  C   UNL     1       1.402   1.715  -0.002  0.00  0.00    -0.016 C 
ATOM      7  C   UNL     1       1.728   1.893  -1.497  0.00  0.00    -0.020 C 
ATOM      8  C   UNL     1       0.367   1.919  -2.207  0.00  0.00    -0.076 C 
ATOM      9  N   UNL     1      -0.682   1.689  -1.208  0.00  0.00    +0.395 N 
ATOM     10  C   UNL     1      -1.349   2.943  -0.783  0.00  0.00    +0.053 C 
ATOM     11  C   UNL     1      -0.954   3.165   0.659  0.00  0.00    +0.089 C 
ATOM     12  C   UNL     1      -1.935   3.603   1.701  0.00  0.00    +0.229 C 
ATOM     13  O   UNL     1      -2.804   4.439   1.581  0.00  0.00    -0.275 OA
ATOM     14  C   UNL     1      -2.840   2.826  -0.960  0.00  0.00    -0.024 A 
ATOM     15  C   UNL     1      -3.791   1.976  -0.442  0.00  0.00    +0.043 A 
ATOM     16  C   UNL     1      -5.121   2.121  -0.800  0.00  0.00    +0.124 A 
ATOM     17  C   UNL     1      -5.491   3.121  -1.684  0.00  0.00    +0.040 A 
ATOM     18  C   UNL     1      -4.540   3.971  -2.208  0.00  0.00    +0.026 A 
ATOM     19  C   UNL     1      -3.200   3.831  -1.852  0.00  0.00    +0.036 A 
ATOM     20  N   UNL     1      -2.071   4.555  -2.245  0.00  0.00    -0.286 N 
ATOM     21  C   UNL     1      -0.947   4.094  -1.667  0.00  0.00    +0.212 C 
ATOM     22  O   UNL     1       0.176   4.523  -1.828  0.00  0.00    -0.277 OA
ATOM     23  F   UNL     1      -6.055   1.288  -0.290  0.00  0.00    -0.205 F 
ATOM     24  H   UNL     1      -2.174   5.393  -2.951  0.00  0.00    +0.155 HD
ATOM     25  H   UNL     1      -1.445   1.049  -1.675  0.00  0.00    -0.079 HD
ENDROOT
BRANCH   1  31
ATOM     26  C   UNL     1      -2.914   4.306   4.290  0.00  0.00    +0.025 A 
ATOM     27  C   UNL     1      -3.378   4.615   5.554  0.00  0.00    +0.022 A 
ATOM     28  C   UNL     1      -3.040   3.814   6.631  0.00  0.00    +0.041 A 
ATOM     29  C   UNL     1      -2.241   2.700   6.445  0.00  0.00    +0.022 A 
ATOM     30  C   UNL     1      -1.779   2.384   5.182  0.00  0.00    +0.025 A 
ATOM     31  C   UNL     1      -2.117   3.186   4.100  0.00  0.00    +0.044 A 
ATOM     32 CL   UNL     1      -3.619   4.210   8.220  0.00  0.00    -0.084 Cl
ENDBRANCH   1  31
TORSDOF 1
