REMARK  Name = ZINC04453459
REMARK  6 active torsions:
REMARK  status: ('A' for Active; 'I' for Inactive)
REMARK    1  A    between atoms: C_1  and  C_2
REMARK    2  A    between atoms: C_2  and  C_3
REMARK    3  A    between atoms: C_3  and  C_4
REMARK    4  A    between atoms: C_11  and  N_24
REMARK    5  A    between atoms: C_12  and  C_22
REMARK    6  A    between atoms: C_13  and  C_15
REMARK                            x       y       z     vdW  Elec       q    Type
REMARK                         _______ _______ _______ _____ _____    ______ ____
ROOT
ATOM      1  C   UNL     1      -1.413  -2.041   0.005  0.00  0.00    +0.071 A 
ATOM      2  C   UNL     1      -1.407  -2.849  -1.124  0.00  0.00    +0.050 A 
ATOM      3  C   UNL     1      -1.387  -4.152  -0.711  0.00  0.00    +0.222 A 
ATOM      4  N   UNL     1      -1.381  -4.152   0.632  0.00  0.00    -0.246 N 
ATOM      5  H   UNL     1      -1.369  -4.936   1.203  0.00  0.00    +0.192 HD
ATOM      6  N   UNL     1      -1.392  -2.816   1.062  0.00  0.00    -0.176 NA
ATOM      7  O   UNL     1      -1.373  -5.195  -1.577  0.00  0.00    -0.423 OA
ATOM      8  C   UNL     1      -1.104  -4.928  -2.872  0.00  0.00    +0.200 C 
ATOM      9  C   UNL     1      -1.106  -3.684  -3.399  0.00  0.00    +0.098 C 
ATOM     10  C   UNL     1      -1.420  -2.458  -2.579  0.00  0.00    +0.104 C 
ENDROOT
BRANCH  10  11
ATOM     11  C   UNL     1      -2.782  -1.931  -2.951  0.00  0.00    +0.001 A 
ATOM     12  C   UNL     1      -3.897  -2.737  -2.812  0.00  0.00    +0.007 A 
ATOM     13  C   UNL     1      -5.146  -2.254  -3.153  0.00  0.00    +0.000 A 
ATOM     14  C   UNL     1      -5.282  -0.966  -3.636  0.00  0.00    +0.003 A 
ATOM     15  C   UNL     1      -4.170  -0.159  -3.776  0.00  0.00    +0.038 A 
ATOM     16  C   UNL     1      -2.918  -0.639  -3.429  0.00  0.00    +0.127 A 
ATOM     17  F   UNL     1      -1.830   0.151  -3.561  0.00  0.00    -0.205 F 
ENDBRANCH  10  11
BRANCH   8  18
ATOM     18  N   UNL     1      -0.810  -5.982  -3.701  0.00  0.00    -0.328 N 
ATOM     19  H   UNL     1      -0.800  -6.886  -3.352  0.00  0.00    +0.145 HD
ATOM     20  H   UNL     1      -0.612  -5.821  -4.637  0.00  0.00    +0.145 HD
ENDBRANCH   8  18
BRANCH   9  21
ATOM     21  C   UNL     1      -0.799  -3.524  -4.789  0.00  0.00    +0.101 C 
ATOM     22  N   UNL     1      -0.555  -3.397  -5.891  0.00  0.00    -0.191 NA
ENDBRANCH   9  21
BRANCH   1  23
ATOM     23  C   UNL     1      -1.433  -0.534   0.013  0.00  0.00    +0.057 C 
BRANCH  23  25
ATOM     24  C   UNL     1      -0.019   1.526   0.010  0.00  0.00    +0.004 C 
ATOM     25  C   UNL     1       0.002  -0.004   0.002  0.00  0.00    +0.003 C 
ENDBRANCH  23  25
ENDBRANCH   1  23
TORSDOF 5
