REMARK  Name = ZINC16957644
REMARK  3 active torsions:
REMARK  status: ('A' for Active; 'I' for Inactive)
REMARK    1  A    between atoms: C_10  and  C_15
REMARK    2  A    between atoms: C_10  and  O_19
REMARK    3  A    between atoms: C_22  and  C_25
REMARK                            x       y       z     vdW  Elec       q    Type
REMARK                         _______ _______ _______ _____ _____    ______ ____
ROOT
ATOM      1  C   UNL     1      -0.986  -2.152  -0.350  0.00  0.00    +0.001 A 
ATOM      2  C   UNL     1       0.193  -2.751   0.062  0.00  0.00    +0.004 A 
ATOM      3  C   UNL     1       1.282  -1.989   0.441  0.00  0.00    +0.046 A 
ATOM      4  C   UNL     1       1.208  -0.604   0.414  0.00  0.00    +0.129 A 
ATOM      5  C   UNL     1       0.002  -0.004   0.002  0.00  0.00    +0.040 A 
ATOM      6  C   UNL     1      -1.085  -0.773  -0.381  0.00  0.00    +0.013 A 
ATOM      7  C   UNL     1      -0.018   1.470   0.010  0.00  0.00    +0.081 C 
ATOM      8  N   UNL     1      -0.966   2.318   0.049  0.00  0.00    -0.179 NA
ATOM      9  N   UNL     1      -0.541   3.637   0.226  0.00  0.00    -0.160 N 
ATOM     10  C   UNL     1       0.930   3.648   0.346  0.00  0.00    +0.262 C 
ATOM     11  C   UNL     1       1.321   2.212   0.001  0.00  0.00    +0.138 C 
ATOM     12  C   UNL     1       2.161   1.530   1.081  0.00  0.00    +0.243 C 
ATOM     13  O   UNL     1       2.284   0.141   0.761  0.00  0.00    -0.490 OA
ATOM     14  C   UNL     1      -1.364   4.749   0.280  0.00  0.00    +0.184 A 
ATOM     15  N   UNL     1      -2.679   4.822   0.182  0.00  0.00    -0.223 NA
ATOM     16  C   UNL     1      -3.311   5.984   0.257  0.00  0.00    +0.080 A 
ATOM     17  C   UNL     1      -2.588   7.130   0.440  0.00  0.00    +0.077 A 
ATOM     18  S   UNL     1      -0.929   6.468   0.510  0.00  0.00    -0.058 S 
ENDROOT
BRANCH  16  19
ATOM     19  C   UNL     1      -4.788   6.041   0.144  0.00  0.00    +0.001 A 
ATOM     20  C   UNL     1      -5.529   4.864   0.056  0.00  0.00    +0.011 A 
ATOM     21  C   UNL     1      -6.904   4.923  -0.045  0.00  0.00    +0.020 A 
ATOM     22  C   UNL     1      -7.547   6.149  -0.069  0.00  0.00    +0.041 A 
ATOM     23  C   UNL     1      -6.816   7.321   0.012  0.00  0.00    +0.020 A 
ATOM     24  C   UNL     1      -5.441   7.273   0.119  0.00  0.00    +0.011 A 
ATOM     25 CL   UNL     1      -9.277   6.216  -0.202  0.00  0.00    -0.084 Cl
ENDBRANCH  16  19
BRANCH  10  26
ATOM     26  C   UNL     1       1.353   3.995   1.775  0.00  0.00    +0.438 C 
ATOM     27  F   UNL     1       2.740   3.862   1.896  0.00  0.00    -0.166 F 
ATOM     28  F   UNL     1       0.984   5.313   2.064  0.00  0.00    -0.166 F 
ATOM     29  F   UNL     1       0.721   3.127   2.672  0.00  0.00    -0.166 F 
ENDBRANCH  10  26
BRANCH  10  30
ATOM     30  O   UNL     1       1.508   4.565  -0.585  0.00  0.00    -0.363 OA
ATOM     31  H   UNL     1       1.291   5.492  -0.412  0.00  0.00    +0.212 HD
ENDBRANCH  10  30
TORSDOF 3
