REMARK  Name = ZINC16228292
REMARK  12 active torsions:
REMARK  status: ('A' for Active; 'I' for Inactive)
REMARK    1  A    between atoms: C_1  and  O_2
REMARK    2  A    between atoms: O_2  and  C_3
REMARK    3  A    between atoms: C_7  and  C_18
REMARK    4  A    between atoms: C_8  and  O_9
REMARK    5  A    between atoms: O_9  and  C_10
REMARK    6  A    between atoms: C_10  and  C_11
REMARK    7  A    between atoms: C_18  and  N_54
REMARK    8  A    between atoms: C_19  and  C_20
REMARK    9  A    between atoms: C_19  and  N_54
REMARK   10  A    between atoms: C_20  and  N_21
REMARK   11  A    between atoms: N_21  and  C_22
REMARK   12  A    between atoms: C_25  and  N_29
REMARK                            x       y       z     vdW  Elec       q    Type
REMARK                         _______ _______ _______ _____ _____    ______ ____
ROOT
ATOM      1  C   UNL     1       1.353   1.550  -0.003  0.00  0.00    -0.043 C 
ENDROOT
BRANCH   1   6
ATOM      2  C   UNL     1       3.382  -0.790   2.174  0.00  0.00    +0.162 A 
ATOM      3  C   UNL     1       3.543  -0.025   3.317  0.00  0.00    +0.049 A 
ATOM      4  C   UNL     1       2.997   1.243   3.384  0.00  0.00    +0.004 A 
ATOM      5  C   UNL     1       2.294   1.753   2.308  0.00  0.00    +0.005 A 
ATOM      6  C   UNL     1       2.125   0.993   1.166  0.00  0.00    -0.019 A 
ATOM      7  C   UNL     1       2.669  -0.279   1.093  0.00  0.00    +0.164 A 
BRANCH   2   9
ATOM      8  C   UNL     1       4.636  -2.497   3.254  0.00  0.00    +0.277 C 
ATOM      9  O   UNL     1       3.918  -2.038   2.107  0.00  0.00    -0.491 OA
ENDBRANCH   2   9
BRANCH   7  10
ATOM     10  O   UNL     1       2.509  -1.026  -0.032  0.00  0.00    -0.483 OA
BRANCH  10  11
ATOM     11  C   UNL     1       3.507  -0.894  -1.046  0.00  0.00    +0.267 C 
BRANCH  11  12
ATOM     12  C   UNL     1       3.164  -1.791  -2.208  0.00  0.00    +0.025 A 
ATOM     13  C   UNL     1       2.026  -2.575  -2.164  0.00  0.00    +0.010 A 
ATOM     14  C   UNL     1       1.708  -3.392  -3.232  0.00  0.00    +0.001 A 
ATOM     15  C   UNL     1       2.533  -3.436  -4.340  0.00  0.00    +0.003 A 
ATOM     16  C   UNL     1       3.674  -2.658  -4.384  0.00  0.00    +0.039 A 
ATOM     17  C   UNL     1       3.991  -1.834  -3.317  0.00  0.00    +0.130 A 
ATOM     18  F   UNL     1       5.106  -1.073  -3.359  0.00  0.00    -0.205 F 
ENDBRANCH  11  12
ENDBRANCH  10  11
ENDBRANCH   7  10
ENDBRANCH   1   6
BRANCH   1  19
ATOM     19  N   UNL     1      -0.015   0.998   0.015  0.00  0.00    +0.383 N 
ATOM     20  H   UNL     1      -0.475   1.261   0.894  0.00  0.00    -0.085 HD
ATOM     21  H   UNL     1       0.032  -0.025  -0.054  0.00  0.00    -0.085 HD
BRANCH  19  22
ATOM     22  C   UNL     1      -0.795   1.527  -1.120  0.00  0.00    -0.063 C 
BRANCH  22  23
ATOM     23  C   UNL     1      -2.207   0.938  -1.076  0.00  0.00    +0.082 C 
BRANCH  23  24
ATOM     24  N   UNL     1      -2.989   1.459  -2.200  0.00  0.00    -0.345 N 
ATOM     25  H   UNL     1      -2.584   2.079  -2.826  0.00  0.00    +0.146 HD
BRANCH  24  26
ATOM     26  C   UNL     1      -4.317   1.061  -2.371  0.00  0.00    +0.046 A 
ATOM     27  C   UNL     1      -4.899   0.172  -1.476  0.00  0.00    +0.026 A 
ATOM     28  C   UNL     1      -6.212  -0.219  -1.647  0.00  0.00    +0.034 A 
ATOM     29  C   UNL     1      -6.949   0.273  -2.709  0.00  0.00    +0.128 A 
ATOM     30  C   UNL     1      -6.374   1.158  -3.602  0.00  0.00    +0.054 A 
ATOM     31  C   UNL     1      -5.062   1.558  -3.433  0.00  0.00    +0.064 A 
ATOM     32 CL   UNL     1      -4.344   2.675  -4.551  0.00  0.00    -0.082 Cl
BRANCH  29  33
ATOM     33  N   UNL     1      -8.356  -0.148  -2.889  0.00  0.00    +0.056 N 
ATOM     34  O   UNL     1      -8.864  -0.928  -2.102  0.00  0.00    -0.126 OA
ATOM     35  O   UNL     1      -9.007   0.284  -3.823  0.00  0.00    -0.126 OA
ENDBRANCH  29  33
ENDBRANCH  24  26
ENDBRANCH  23  24
ENDBRANCH  22  23
ENDBRANCH  19  22
ENDBRANCH   1  19
TORSDOF 11
