REMARK  Name = ZINC12007921
REMARK  6 active torsions:
REMARK  status: ('A' for Active; 'I' for Inactive)
REMARK    1  A    between atoms: C_1  and  C_2
REMARK    2  A    between atoms: C_2  and  C_3
REMARK    3  A    between atoms: C_2  and  C_4
REMARK    4  A    between atoms: C_13  and  N_22
REMARK    5  A    between atoms: C_15  and  C_17
REMARK    6  A    between atoms: C_23  and  C_25
REMARK                            x       y       z     vdW  Elec       q    Type
REMARK                         _______ _______ _______ _____ _____    ______ ____
ROOT
ATOM      1  C   UNL     1      -1.233   5.464  -1.512  0.00  0.00    +0.053 A 
ATOM      2  C   UNL     1      -1.750   6.096  -0.420  0.00  0.00    +0.093 A 
ATOM      3  C   UNL     1      -1.210   5.811   0.848  0.00  0.00    +0.253 A 
ATOM      4  O   UNL     1      -1.647   6.357   1.848  0.00  0.00    -0.268 OA
ATOM      5  N   UNL     1      -0.202   4.918   0.938  0.00  0.00    -0.291 N 
ATOM      6  H   UNL     1       0.183   4.703   1.802  0.00  0.00    +0.172 HD
ATOM      7  C   UNL     1       0.275   4.323  -0.188  0.00  0.00    +0.234 A 
ATOM      8  N   UNL     1      -0.235   4.594  -1.370  0.00  0.00    -0.217 NA
ATOM      9  N   UNL     1       1.310   3.413  -0.088  0.00  0.00    -0.184 N 
ATOM     10  C   UNL     1       1.181   2.057   0.002  0.00  0.00    +0.132 A 
ATOM     11  C   UNL     1       2.428   1.528   0.089  0.00  0.00    +0.077 A 
ATOM     12  C   UNL     1       3.352   2.594   0.040  0.00  0.00    +0.130 A 
ATOM     13  N   UNL     1       2.676   3.720  -0.062  0.00  0.00    -0.159 NA
ENDROOT
BRANCH  12  14
ATOM     14  C   UNL     1       4.823   2.468   0.101  0.00  0.00    +0.155 A 
ATOM     15  C   UNL     1       5.714   3.494   0.055  0.00  0.00    +0.051 A 
ATOM     16  C   UNL     1       6.998   2.920   0.145  0.00  0.00    +0.042 A 
ATOM     17  C   UNL     1       6.830   1.586   0.233  0.00  0.00    +0.196 A 
ATOM     18  O   UNL     1       5.514   1.317   0.206  0.00  0.00    -0.461 OA
ENDBRANCH  12  14
BRANCH  10  19
ATOM     19  N   UNL     1      -0.016   1.344   0.011  0.00  0.00    -0.269 N 
ATOM     20  C   UNL     1       0.002  -0.004  -0.016  0.00  0.00    +0.230 C 
ATOM     21  O   UNL     1       1.060  -0.596  -0.048  0.00  0.00    -0.274 OA
ATOM     22  H   UNL     1      -0.863   1.817   0.032  0.00  0.00    +0.156 HD
BRANCH  20  23
ATOM     23  C   UNL     1      -1.293  -0.775  -0.008  0.00  0.00    +0.142 C 
ATOM     24  C   UNL     1      -2.065  -0.434   1.238  0.00  0.00    +0.011 A 
ATOM     25  C   UNL     1      -2.755   0.764   1.301  0.00  0.00    +0.008 A 
ATOM     26  C   UNL     1      -3.469   1.096   2.436  0.00  0.00    +0.001 A 
ATOM     27  C   UNL     1      -3.497   0.231   3.514  0.00  0.00    +0.004 A 
ATOM     28  C   UNL     1      -2.813  -0.964   3.456  0.00  0.00    +0.046 A 
ATOM     29  C   UNL     1      -2.094  -1.302   2.315  0.00  0.00    +0.133 A 
ATOM     30  O   UNL     1      -1.428  -2.482   2.278  0.00  0.00    -0.455 OA
ATOM     31  C   UNL     1      -1.077  -3.026   1.089  0.00  0.00    +0.133 A 
ATOM     32  C   UNL     1      -0.993  -2.248  -0.055  0.00  0.00    +0.011 A 
ATOM     33  C   UNL     1      -0.630  -2.829  -1.258  0.00  0.00    +0.008 A 
ATOM     34  C   UNL     1      -0.351  -4.180  -1.322  0.00  0.00    +0.001 A 
ATOM     35  C   UNL     1      -0.435  -4.959  -0.182  0.00  0.00    +0.004 A 
ATOM     36  C   UNL     1      -0.796  -4.386   1.020  0.00  0.00    +0.046 A 
ENDBRANCH  20  23
ENDBRANCH  10  19
BRANCH   1  38
ATOM     37  C   UNL     1      -0.685   6.307  -3.779  0.00  0.00    +0.014 C 
ATOM     38  C   UNL     1      -1.793   5.750  -2.882  0.00  0.00    +0.032 C 
ATOM     39  C   UNL     1      -2.339   4.457  -3.490  0.00  0.00    +0.014 C 
ENDBRANCH   1  38
TORSDOF 4
