REMARK  Name = ZINC63269908
REMARK  7 active torsions:
REMARK  status: ('A' for Active; 'I' for Inactive)
REMARK    1  A    between atoms: C_1  and  C_2
REMARK    2  A    between atoms: C_2  and  C_3
REMARK    3  A    between atoms: C_2  and  N_4
REMARK    4  A    between atoms: N_7  and  N_8
REMARK    5  A    between atoms: C_9  and  C_11
REMARK    6  A    between atoms: C_11  and  N_12
REMARK    7  A    between atoms: C_19  and  C_22
REMARK                            x       y       z     vdW  Elec       q    Type
REMARK                         _______ _______ _______ _____ _____    ______ ____
ROOT
ATOM      1  N   UNL     1      -7.584  -1.760   0.523  0.00  0.00    -0.290 N 
ATOM      2  C   UNL     1      -8.341  -1.619  -0.596  0.00  0.00    +0.203 A 
ATOM      3  N   UNL     1      -9.477  -2.250  -0.726  0.00  0.00    -0.230 NA
ATOM      4  C   UNL     1      -9.930  -3.052   0.235  0.00  0.00    +0.116 A 
ATOM      5  C   UNL     1      -9.216  -3.260   1.426  0.00  0.00    +0.080 A 
ATOM      6  C   UNL     1      -7.974  -2.558   1.535  0.00  0.00    +0.263 A 
ATOM      7  O   UNL     1      -7.280  -2.678   2.530  0.00  0.00    -0.267 OA
ATOM      8  C   UNL     1      -9.850  -4.167   2.377  0.00  0.00    +0.010 A 
ATOM      9  C   UNL     1     -11.042  -4.725   2.049  0.00  0.00    +0.057 A 
ATOM     10  S   UNL     1     -11.380  -4.054   0.432  0.00  0.00    -0.076 S 
ENDROOT
BRANCH   8  11
ATOM     11  C   UNL     1      -9.205  -4.473   3.671  0.00  0.00    +0.021 A 
ATOM     12  C   UNL     1      -9.739  -4.439   4.931  0.00  0.00    +0.016 A 
ATOM     13  C   UNL     1      -8.935  -4.770   6.001  0.00  0.00    +0.008 A 
ATOM     14  C   UNL     1      -7.644  -5.118   5.774  0.00  0.00    +0.046 A 
ATOM     15  S   UNL     1      -7.528  -4.992   3.997  0.00  0.00    -0.097 S 
ENDBRANCH   8  11
BRANCH   1  16
ATOM     16  C   UNL     1      -6.316  -1.035   0.628  0.00  0.00    +0.223 C 
BRANCH  16  18
ATOM     17  N   UNL     1      -3.940  -1.414   0.052  0.00  0.00    -0.232 N 
ATOM     18  C   UNL     1      -5.205  -1.881   0.061  0.00  0.00    +0.249 C 
ATOM     19  O   UNL     1      -5.449  -2.981  -0.386  0.00  0.00    -0.272 OA
ATOM     20  H   UNL     1      -3.745  -0.534   0.409  0.00  0.00    +0.173 HD
BRANCH  17  24
ATOM     21  N   UNL     1      -1.372  -0.511   0.012  0.00  0.00    -0.296 N 
ATOM     22  C   UNL     1      -1.643  -1.734  -0.485  0.00  0.00    +0.316 C 
ATOM     23  O   UNL     1      -0.747  -2.417  -0.942  0.00  0.00    -0.251 OA
ATOM     24  N   UNL     1      -2.908  -2.201  -0.475  0.00  0.00    -0.218 N 
ATOM     25  H   UNL     1      -2.087   0.033   0.377  0.00  0.00    +0.151 HD
ATOM     26  H   UNL     1      -3.103  -3.081  -0.833  0.00  0.00    +0.174 HD
BRANCH  21  28
ATOM     27  C   UNL     1      -0.019   1.526   0.010  0.00  0.00    +0.027 C 
ATOM     28  C   UNL     1       0.002  -0.004   0.002  0.00  0.00    +0.068 C 
ATOM     29  C   UNL     1       0.742  -0.511   1.242  0.00  0.00    +0.027 C 
ENDBRANCH  21  28
ENDBRANCH  17  24
ENDBRANCH  16  18
ENDBRANCH   1  16
TORSDOF 5
