REMARK  Name = ZINC63315019
REMARK  4 active torsions:
REMARK  status: ('A' for Active; 'I' for Inactive)
REMARK    1  A    between atoms: C_9  and  S_14
REMARK    2  A    between atoms: S_14  and  C_15
REMARK    3  A    between atoms: C_21  and  O_25
REMARK    4  A    between atoms: O_25  and  C_26
REMARK                            x       y       z     vdW  Elec       q    Type
REMARK                         _______ _______ _______ _____ _____    ______ ____
ROOT
ATOM      1  C   UNL     1       3.460  -5.833   0.774  0.00  0.00    +0.236 C 
ATOM      2  N   UNL     1       3.280  -6.209  -0.633  0.00  0.00    -0.355 N 
ATOM      3  C   UNL     1       2.002  -6.203  -0.881  0.00  0.00    +0.061 A 
ATOM      4  C   UNL     1       1.229  -6.491  -2.098  0.00  0.00    +0.031 A 
ATOM      5  C   UNL     1      -0.115  -6.405  -2.074  0.00  0.00    +0.048 A 
ATOM      6  C   UNL     1      -0.840  -6.031  -0.867  0.00  0.00    +0.129 A 
ATOM      7  C   UNL     1      -0.199  -5.750   0.294  0.00  0.00    +0.073 A 
ATOM      8  C   UNL     1       1.262  -5.821   0.352  0.00  0.00    +0.064 A 
ATOM      9  N   UNL     1       2.115  -5.606   1.319  0.00  0.00    -0.355 N 
ATOM     10  H   UNL     1       3.985  -6.423  -1.264  0.00  0.00    +0.162 HD
ATOM     11  H   UNL     1       1.901  -5.345   2.228  0.00  0.00    +0.162 HD
ENDROOT
BRANCH   1  12
ATOM     12  S   UNL     1       4.444  -4.314   0.892  0.00  0.00    -0.102 S 
BRANCH  12  21
ATOM     13  C   UNL     1       0.839   1.586  -1.388  0.00  0.00    +0.000 A 
ATOM     14  C   UNL     1       2.122   2.084  -1.526  0.00  0.00    +0.002 A 
ATOM     15  C   UNL     1       3.196   1.247  -1.356  0.00  0.00    +0.023 A 
ATOM     16  C   UNL     1       3.025  -0.112  -1.038  0.00  0.00    +0.037 A 
ATOM     17  C   UNL     1       1.744  -0.602  -0.897  0.00  0.00    -0.026 A 
ATOM     18  C   UNL     1       0.660   0.257  -1.078  0.00  0.00    +0.005 A 
ATOM     19  C   UNL     1       1.396  -2.013  -0.549  0.00  0.00    +0.038 C 
ATOM     20  C   UNL     1       2.324  -2.696   0.407  0.00  0.00    +0.028 C 
ATOM     21  C   UNL     1       3.609  -3.162  -0.233  0.00  0.00    +0.136 C 
ATOM     22  C   UNL     1       4.524  -2.029  -0.529  0.00  0.00    +0.230 C 
ATOM     23  O   UNL     1       5.711  -2.244  -0.397  0.00  0.00    -0.274 OA
ATOM     24  N   UNL     1       4.192  -0.829  -0.915  0.00  0.00    -0.284 N 
ATOM     25  H   UNL     1       4.965  -0.310  -1.185  0.00  0.00    +0.155 HD
ENDBRANCH  12  21
ENDBRANCH   1  12
BRANCH   6  26
ATOM     26  O   UNL     1      -2.194  -5.961  -0.906  0.00  0.00    -0.434 OA
BRANCH  26  27
ATOM     27  C   UNL     1      -2.823  -6.266  -2.152  0.00  0.00    +0.541 C 
ATOM     28  F   UNL     1      -2.372  -5.375  -3.132  0.00  0.00    -0.166 F 
ATOM     29  F   UNL     1      -2.503  -7.574  -2.528  0.00  0.00    -0.166 F 
ENDBRANCH  26  27
ENDBRANCH   6  26
TORSDOF 4
