REMARK  Name = ZINC08996017
REMARK  6 active torsions:
REMARK  status: ('A' for Active; 'I' for Inactive)
REMARK    1  A    between atoms: C_1  and  C_2
REMARK    2  A    between atoms: C_16  and  C_18
REMARK    3  A    between atoms: C_18  and  C_19
REMARK    4  A    between atoms: N_31  and  C_34
REMARK    5  A    between atoms: C_38  and  O_40
REMARK    6  A    between atoms: O_40  and  C_41
REMARK                            x       y       z     vdW  Elec       q    Type
REMARK                         _______ _______ _______ _____ _____    ______ ____
ROOT
ATOM      1  C   UNL     1      -3.143  11.144  -2.209  0.00  0.00    +0.045 C 
ATOM      2  C   UNL     1      -2.683   9.711  -2.127  0.00  0.00    -0.029 A 
ATOM      3  C   UNL     1      -1.383   9.386  -2.459  0.00  0.00    +0.005 A 
ATOM      4  C   UNL     1      -0.951   8.075  -2.387  0.00  0.00    +0.001 A 
ATOM      5  C   UNL     1      -1.826   7.083  -1.980  0.00  0.00    +0.004 A 
ATOM      6  C   UNL     1      -3.123   7.402  -1.647  0.00  0.00    -0.027 A 
ATOM      7  C   UNL     1      -3.569   8.719  -1.715  0.00  0.00    +0.039 A 
ATOM      8  N   UNL     1      -4.910   8.795  -1.333  0.00  0.00    -0.286 N 
ATOM      9  C   UNL     1      -5.413   7.590  -1.002  0.00  0.00    +0.211 C 
ATOM     10  O   UNL     1      -6.545   7.354  -0.634  0.00  0.00    -0.277 OA
ATOM     11  C   UNL     1      -4.300   6.594  -1.178  0.00  0.00    +0.050 C 
ATOM     12  C   UNL     1      -3.994   5.859   0.132  0.00  0.00    +0.088 C 
ATOM     13  C   UNL     1      -4.755   4.510   0.010  0.00  0.00    +0.074 C 
ATOM     14  C   UNL     1      -5.457   4.573  -1.363  0.00  0.00    -0.053 C 
ATOM     15  C   UNL     1      -3.644   3.486  -0.043  0.00  0.00    +0.228 C 
ATOM     16  O   UNL     1      -3.800   2.288  -0.149  0.00  0.00    -0.275 OA
ATOM     17  N   UNL     1      -2.463   4.107   0.046  0.00  0.00    -0.210 N 
ATOM     18  C   UNL     1      -2.542   5.438   0.156  0.00  0.00    +0.229 C 
ATOM     19  O   UNL     1      -1.596   6.190   0.256  0.00  0.00    -0.275 OA
ATOM     20  H   UNL     1      -5.420   9.620  -1.308  0.00  0.00    +0.155 HD
ATOM     21  N   UNL     1      -4.670   5.551  -2.118  0.00  0.00    +0.394 N 
ATOM     22  H   UNL     1      -3.829   5.107  -2.505  0.00  0.00    -0.083 HD
ATOM     23  H   UNL     1      -5.232   5.944  -2.882  0.00  0.00    -0.083 HD
ENDROOT
BRANCH  17  24
ATOM     24  C   UNL     1      -1.241   3.419   0.031  0.00  0.00    +0.047 A 
ATOM     25  C   UNL     1      -0.445   3.392   1.169  0.00  0.00    +0.024 A 
ATOM     26  C   UNL     1       0.758   2.713   1.154  0.00  0.00    +0.005 A 
ATOM     27  C   UNL     1       1.173   2.061   0.009  0.00  0.00    +0.046 A 
ATOM     28  C   UNL     1       0.382   2.086  -1.131  0.00  0.00    +0.122 A 
ATOM     29  C   UNL     1      -0.824   2.770  -1.121  0.00  0.00    +0.069 A 
BRANCH  28  30
ATOM     30  O   UNL     1       0.791   1.444  -2.257  0.00  0.00    -0.495 OA
ATOM     31  C   UNL     1       2.047   0.765  -2.197  0.00  0.00    +0.277 C 
ENDBRANCH  28  30
ENDBRANCH  17  24
BRANCH  14  32
ATOM     32  C   UNL     1      -5.437   3.198  -2.034  0.00  0.00    +0.022 C 
BRANCH  32  33
ATOM     33  C   UNL     1      -6.232   3.253  -3.314  0.00  0.00    -0.024 A 
ATOM     34  C   UNL     1      -7.522   2.915  -3.467  0.00  0.00    +0.087 A 
ATOM     35  N   UNL     1      -7.900   3.095  -4.770  0.00  0.00    -0.360 N 
ATOM     36  H   UNL     1      -8.786   2.918  -5.123  0.00  0.00    +0.165 HD
ATOM     37  C   UNL     1      -6.835   3.566  -5.505  0.00  0.00    +0.047 A 
ATOM     38  C   UNL     1      -5.745   3.691  -4.624  0.00  0.00    +0.003 A 
ATOM     39  C   UNL     1      -4.514   4.146  -5.099  0.00  0.00    +0.010 A 
ATOM     40  C   UNL     1      -4.377   4.479  -6.418  0.00  0.00    +0.001 A 
ATOM     41  C   UNL     1      -5.450   4.363  -7.290  0.00  0.00    +0.002 A 
ATOM     42  C   UNL     1      -6.673   3.911  -6.843  0.00  0.00    +0.026 A 
ENDBRANCH  32  33
ENDBRANCH  14  32
TORSDOF 4
