REMARK  Name = ZINC39654612
REMARK  9 active torsions:
REMARK  status: ('A' for Active; 'I' for Inactive)
REMARK    1  A    between atoms: C_1  and  C_2
REMARK    2  A    between atoms: C_2  and  C_3
REMARK    3  A    between atoms: C_6  and  C_9
REMARK    4  A    between atoms: C_9  and  C_10
REMARK    5  A    between atoms: C_10  and  N_11
REMARK    6  A    between atoms: C_12  and  C_14
REMARK    7  A    between atoms: C_25  and  C_27
REMARK    8  A    between atoms: C_28  and  C_38
REMARK    9  A    between atoms: C_31  and  C_32
REMARK                            x       y       z     vdW  Elec       q    Type
REMARK                         _______ _______ _______ _____ _____    ______ ____
ROOT
ATOM      1  C   UNL     1       5.056  -0.741  -8.911  0.00  0.00    +0.100 C 
ATOM      2  C   UNL     1       4.120  -1.649  -9.741  0.00  0.00    +0.121 C 
ATOM      3  N   UNL     1       3.513  -0.743 -10.744  0.00  0.00    -0.296 N 
ATOM      4  C   UNL     1       4.621   0.156 -11.147  0.00  0.00    +0.115 C 
ATOM      5  C   UNL     1       5.385   0.440  -9.839  0.00  0.00    -0.004 C 
ATOM      6  C   UNL     1       6.886   0.500 -10.106  0.00  0.00    -0.010 C 
ATOM      7  C   UNL     1       7.196   1.717 -10.983  0.00  0.00    -0.082 C 
ATOM      8  N   UNL     1       6.750   2.939 -10.302  0.00  0.00    +0.379 N 
ATOM      9  C   UNL     1       5.292   2.914 -10.133  0.00  0.00    -0.082 C 
ATOM     10  C   UNL     1       4.902   1.748  -9.220  0.00  0.00    -0.010 C 
ATOM     11  C   UNL     1       2.241  -0.738 -11.190  0.00  0.00    +0.252 C 
ATOM     12  O   UNL     1       1.892   0.076 -12.023  0.00  0.00    -0.270 OA
ATOM     13  H   UNL     1       7.192   2.998  -9.397  0.00  0.00    -0.086 HD
ATOM     14  H   UNL     1       7.010   3.743 -10.854  0.00  0.00    -0.086 HD
ENDROOT
BRANCH  11  15
ATOM     15  C   UNL     1       1.274  -1.718 -10.667  0.00  0.00    +0.106 A 
ATOM     16  C   UNL     1       0.459  -1.559  -9.585  0.00  0.00    +0.147 A 
ATOM     17  O   UNL     1      -0.267  -2.671  -9.440  0.00  0.00    -0.359 OA
ATOM     18  N   UNL     1       0.077  -3.593 -10.454  0.00  0.00    -0.077 NA
ATOM     19  C   UNL     1       0.995  -3.054 -11.215  0.00  0.00    +0.126 A 
ATOM     20  C   UNL     1       0.389  -0.338  -8.704  0.00  0.00    +0.090 C 
BRANCH  19  21
ATOM     21  C   UNL     1       1.636  -3.673 -12.401  0.00  0.00    +0.004 A 
ATOM     22  C   UNL     1       2.001  -2.885 -13.491  0.00  0.00    +0.010 A 
ATOM     23  C   UNL     1       2.596  -3.466 -14.591  0.00  0.00    +0.001 A 
ATOM     24  C   UNL     1       2.832  -4.829 -14.614  0.00  0.00    +0.000 A 
ATOM     25  C   UNL     1       2.472  -5.617 -13.535  0.00  0.00    +0.001 A 
ATOM     26  C   UNL     1       1.881  -5.045 -12.427  0.00  0.00    +0.010 A 
ENDBRANCH  19  21
ENDBRANCH  11  15
BRANCH   1  28
ATOM     27  N   UNL     1       5.066   0.130  -6.596  0.00  0.00    -0.315 N 
ATOM     28  C   UNL     1       4.351  -0.254  -7.671  0.00  0.00    +0.218 C 
ATOM     29  O   UNL     1       3.139  -0.209  -7.641  0.00  0.00    -0.275 OA
ATOM     30  H   UNL     1       6.035   0.094  -6.620  0.00  0.00    +0.149 HD
BRANCH  27  31
ATOM     31  C   UNL     1       4.381   0.604  -5.391  0.00  0.00    +0.109 C 
BRANCH  31  32
ATOM     32  C   UNL     1       5.416   0.975  -4.328  0.00  0.00    +0.054 C 
BRANCH  32  36
ATOM     33  C   UNL     1       3.419   2.356  -0.813  0.00  0.00    -0.048 A 
ATOM     34  C   UNL     1       3.710   1.012  -0.960  0.00  0.00    +0.004 A 
ATOM     35  C   UNL     1       4.356   0.565  -2.098  0.00  0.00    +0.004 A 
ATOM     36  C   UNL     1       4.711   1.462  -3.088  0.00  0.00    -0.046 A 
ATOM     37  C   UNL     1       4.420   2.805  -2.941  0.00  0.00    +0.004 A 
ATOM     38  C   UNL     1       3.770   3.251  -1.806  0.00  0.00    +0.004 A 
BRANCH  33  40
ATOM     39  C   UNL     1       1.202   2.796   0.206  0.00  0.00    +0.009 C 
ATOM     40  C   UNL     1       2.715   2.843   0.427  0.00  0.00    +0.032 C 
ENDBRANCH  33  40
ENDBRANCH  32  36
ENDBRANCH  31  32
ENDBRANCH  27  31
ENDBRANCH   1  28
TORSDOF 7
