REMARK  Name = ZINC39673708
REMARK  11 active torsions:
REMARK  status: ('A' for Active; 'I' for Inactive)
REMARK    1  A    between atoms: C_1  and  C_2
REMARK    2  A    between atoms: C_2  and  C_3
REMARK    3  A    between atoms: C_3  and  C_4
REMARK    4  A    between atoms: C_4  and  C_6
REMARK    5  A    between atoms: C_4  and  N_7
REMARK    6  A    between atoms: C_8  and  C_10
REMARK    7  A    between atoms: C_21  and  C_23
REMARK    8  A    between atoms: C_27  and  O_30
REMARK    9  A    between atoms: C_28  and  C_29
REMARK   10  A    between atoms: O_30  and  C_31
REMARK   11  A    between atoms: C_31  and  C_33
REMARK                            x       y       z     vdW  Elec       q    Type
REMARK                         _______ _______ _______ _____ _____    ______ ____
ROOT
ATOM      1  C   UNL     1       1.478  -4.688   1.682  0.00  0.00    +0.100 C 
ATOM      2  C   UNL     1       1.546  -3.656   2.830  0.00  0.00    +0.121 C 
ATOM      3  N   UNL     1       0.444  -4.039   3.744  0.00  0.00    -0.296 N 
ATOM      4  C   UNL     1       0.470  -5.521   3.752  0.00  0.00    +0.115 C 
ATOM      5  C   UNL     1       0.774  -5.912   2.292  0.00  0.00    -0.004 C 
ATOM      6  C   UNL     1      -0.523  -6.203   1.544  0.00  0.00    -0.010 C 
ATOM      7  C   UNL     1      -1.175  -7.458   2.133  0.00  0.00    -0.082 C 
ATOM      8  N   UNL     1      -0.252  -8.593   2.014  0.00  0.00    +0.379 N 
ATOM      9  C   UNL     1       0.954  -8.344   2.812  0.00  0.00    -0.082 C 
ATOM     10  C   UNL     1       1.696  -7.127   2.252  0.00  0.00    -0.010 C 
ATOM     11  C   UNL     1      -0.394  -3.224   4.415  0.00  0.00    +0.247 C 
ATOM     12  O   UNL     1      -1.193  -3.689   5.204  0.00  0.00    -0.270 OA
ATOM     13  H   UNL     1      -0.706  -9.430   2.346  0.00  0.00    -0.086 HD
ATOM     14  H   UNL     1       0.006  -8.715   1.046  0.00  0.00    -0.086 HD
ENDROOT
BRANCH  11  15
ATOM     15  C   UNL     1      -0.342  -1.763   4.191  0.00  0.00    +0.043 A 
ATOM     16  C   UNL     1       0.882  -1.134   3.955  0.00  0.00    +0.013 A 
ATOM     17  C   UNL     1       0.927   0.229   3.746  0.00  0.00    +0.004 A 
ATOM     18  C   UNL     1      -0.237   0.975   3.769  0.00  0.00    +0.047 A 
ATOM     19  C   UNL     1      -1.458   0.358   4.002  0.00  0.00    +0.135 A 
ATOM     20  C   UNL     1      -1.516  -1.010   4.208  0.00  0.00    +0.004 A 
ATOM     21  C   UNL     1      -2.841  -1.682   4.456  0.00  0.00    +0.048 C 
BRANCH  19  22
ATOM     22  O   UNL     1      -2.599   1.097   4.023  0.00  0.00    -0.426 OA
BRANCH  22  23
ATOM     23  C   UNL     1      -3.035   1.550   5.210  0.00  0.00    +0.309 C 
ATOM     24  O   UNL     1      -2.369   1.378   6.204  0.00  0.00    -0.251 OA
ATOM     25  C   UNL     1      -4.354   2.273   5.302  0.00  0.00    +0.136 C 
ENDBRANCH  22  23
ENDBRANCH  19  22
ENDBRANCH  11  15
BRANCH   1  27
ATOM     26  N   UNL     1       0.921  -4.563  -0.725  0.00  0.00    -0.312 N 
ATOM     27  C   UNL     1       0.674  -4.141   0.531  0.00  0.00    +0.218 C 
ATOM     28  O   UNL     1      -0.195  -3.320   0.735  0.00  0.00    -0.275 OA
ATOM     29  H   UNL     1       1.616  -5.220  -0.887  0.00  0.00    +0.149 HD
BRANCH  26  30
ATOM     30  C   UNL     1       0.139  -4.031  -1.843  0.00  0.00    +0.070 C 
ATOM     31  C   UNL     1      -1.157  -4.831  -1.986  0.00  0.00    +0.028 C 
BRANCH  30  32
ATOM     32  C   UNL     1       0.953  -4.145  -3.134  0.00  0.00    +0.022 C 
BRANCH  32  34
ATOM     33  C   UNL     1       3.002  -3.360  -4.330  0.00  0.00    +0.004 C 
ATOM     34  C   UNL     1       2.188  -3.246  -3.039  0.00  0.00    -0.002 C 
ENDBRANCH  32  34
ENDBRANCH  30  32
ENDBRANCH  26  30
ENDBRANCH   1  27
TORSDOF 7
