REMARK  Name = ZINC08737919
REMARK  5 active torsions:
REMARK  status: ('A' for Active; 'I' for Inactive)
REMARK    1  A    between atoms: C_4  and  C_7
REMARK    2  A    between atoms: C_12  and  C_17
REMARK    3  A    between atoms: C_32  and  C_34
REMARK    4  A    between atoms: C_34  and  C_35
REMARK    5  A    between atoms: C_35  and  C_36
REMARK                            x       y       z     vdW  Elec       q    Type
REMARK                         _______ _______ _______ _____ _____    ______ ____
ROOT
ATOM      1  C   UNL     1       5.761  -1.738  -0.143  0.00  0.00    +0.147 C 
ATOM      2  C   UNL     1       4.423  -1.040  -0.180  0.00  0.00    +0.037 C 
ATOM      3  C   UNL     1       3.733  -0.601   0.886  0.00  0.00    +0.017 C 
ATOM      4  C   UNL     1       2.385   0.078   0.708  0.00  0.00    +0.060 C 
ATOM      5  C   UNL     1       2.355   0.841  -0.615  0.00  0.00    +0.035 C 
ATOM      6  C   UNL     1       2.602  -0.168  -1.743  0.00  0.00    +0.088 C 
ATOM      7  C   UNL     1       3.907  -0.860  -1.486  0.00  0.00    +0.163 C 
ATOM      8  O   UNL     1       4.543  -1.282  -2.431  0.00  0.00    -0.292 OA
ATOM      9  N   UNL     1       4.141  -0.727   2.176  0.00  0.00    -0.316 N 
ATOM     10  C   UNL     1       5.418  -0.436   2.639  0.00  0.00    +0.053 A 
ATOM     11  C   UNL     1       5.656   0.551   3.580  0.00  0.00    +0.025 A 
ATOM     12  C   UNL     1       6.934   0.711   4.087  0.00  0.00    +0.002 A 
ATOM     13  C   UNL     1       7.963  -0.107   3.655  0.00  0.00    +0.002 A 
ATOM     14  C   UNL     1       7.731  -1.079   2.698  0.00  0.00    +0.025 A 
ATOM     15  C   UNL     1       6.456  -1.229   2.176  0.00  0.00    +0.058 A 
ATOM     16  N   UNL     1       6.183  -2.163   1.175  0.00  0.00    -0.258 N 
ATOM     17  C   UNL     1       6.313  -3.478   1.439  0.00  0.00    +0.221 C 
ATOM     18  O   UNL     1       6.078  -4.296   0.576  0.00  0.00    -0.275 OA
ATOM     19  H   UNL     1       3.492  -1.045   2.822  0.00  0.00    +0.152 HD
ENDROOT
BRANCH   5  20
ATOM     20  C   UNL     1       1.009   1.493  -0.798  0.00  0.00    -0.008 A 
ATOM     21  C   UNL     1      -0.136   0.719  -0.823  0.00  0.00    +0.007 A 
ATOM     22  C   UNL     1      -1.371   1.317  -0.996  0.00  0.00    +0.000 A 
ATOM     23  C   UNL     1      -1.462   2.689  -1.133  0.00  0.00    +0.003 A 
ATOM     24  C   UNL     1      -0.319   3.465  -1.109  0.00  0.00    +0.038 A 
ATOM     25  C   UNL     1       0.919   2.867  -0.941  0.00  0.00    +0.127 A 
ATOM     26  F   UNL     1       2.037   3.624  -0.917  0.00  0.00    -0.205 F 
ENDBRANCH   5  20
BRANCH   1  30
ATOM     27  C   UNL     1       8.714   0.914  -1.721  0.00  0.00    +0.000 A 
ATOM     28  C   UNL     1       8.434  -0.274  -2.371  0.00  0.00    +0.000 A 
ATOM     29  C   UNL     1       7.478  -1.132  -1.861  0.00  0.00    +0.006 A 
ATOM     30  C   UNL     1       6.803  -0.803  -0.700  0.00  0.00    -0.022 A 
ATOM     31  C   UNL     1       7.080   0.387  -0.052  0.00  0.00    +0.006 A 
ATOM     32  C   UNL     1       8.040   1.242  -0.560  0.00  0.00    +0.000 A 
ENDBRANCH   1  30
BRANCH  17  33
ATOM     33  C   UNL     1       6.751  -3.931   2.808  0.00  0.00    +0.107 C 
BRANCH  33  34
ATOM     34  C   UNL     1       6.819  -5.459   2.842  0.00  0.00    +0.134 C 
BRANCH  34  35
ATOM     35  C   UNL     1       7.257  -5.912   4.210  0.00  0.00    +0.356 C 
ATOM     36  O   UNL     1       7.492  -5.097   5.071  0.00  0.00    -0.246 OA
ATOM     37  O   UNL     1       7.387  -7.222   4.474  0.00  0.00    -0.246 OA
ENDBRANCH  34  35
ENDBRANCH  33  34
ENDBRANCH  17  33
TORSDOF 5
