REMARK  Name = ZINC35383447
REMARK  4 active torsions:
REMARK  status: ('A' for Active; 'I' for Inactive)
REMARK    1  A    between atoms: C_1  and  C_2
REMARK    2  A    between atoms: C_6  and  O_8
REMARK    3  A    between atoms: O_8  and  C_9
REMARK    4  A    between atoms: C_14  and  N_15
REMARK                            x       y       z     vdW  Elec       q    Type
REMARK                         _______ _______ _______ _____ _____    ______ ____
ROOT
ATOM      1  C   UNL     1       0.039  -1.976   3.458  0.00  0.00    +0.151 A 
ATOM      2  C   UNL     1      -0.045  -0.606   3.307  0.00  0.00    +0.076 A 
ATOM      3  C   UNL     1      -0.058   0.216   4.434  0.00  0.00    +0.081 A 
ATOM      4  C   UNL     1       0.015  -0.366   5.720  0.00  0.00    +0.067 A 
ATOM      5  C   UNL     1       0.099  -1.751   5.860  0.00  0.00    +0.041 A 
ATOM      6  C   UNL     1       0.105  -2.550   4.734  0.00  0.00    +0.068 A 
ATOM      7  C   UNL     1      -0.001   0.530   6.884  0.00  0.00    +0.259 A 
ATOM      8  O   UNL     1       0.059   0.093   8.019  0.00  0.00    -0.267 OA
ATOM      9  N   UNL     1      -0.085   1.860   6.646  0.00  0.00    -0.313 N 
ATOM     10  H   UNL     1      -0.098   2.481   7.391  0.00  0.00    +0.170 HD
ATOM     11  C   UNL     1      -0.150   2.333   5.373  0.00  0.00    +0.199 A 
ATOM     12  N   UNL     1      -0.139   1.567   4.326  0.00  0.00    -0.237 NA
ENDROOT
BRANCH   6  13
ATOM     13  N   UNL     1       0.183  -3.942   4.867  0.00  0.00    -0.355 N 
ATOM     14  H   UNL     1       0.191  -4.505   4.078  0.00  0.00    +0.142 HD
ATOM     15  H   UNL     1       0.229  -4.342   5.750  0.00  0.00    +0.142 HD
ENDBRANCH   6  13
BRANCH   1  16
ATOM     16  O   UNL     1       0.052  -2.775   2.360  0.00  0.00    -0.453 OA
BRANCH  16  22
ATOM     17  C   UNL     1      -4.804  -3.031   2.778  0.00  0.00    +0.044 C 
ATOM     18  C   UNL     1      -3.517  -3.440   2.111  0.00  0.00    -0.047 A 
ATOM     19  C   UNL     1      -3.539  -4.340   1.061  0.00  0.00    +0.005 A 
ATOM     20  C   UNL     1      -2.359  -4.718   0.446  0.00  0.00    +0.024 A 
ATOM     21  C   UNL     1      -1.155  -4.195   0.879  0.00  0.00    +0.083 A 
ATOM     22  C   UNL     1      -1.131  -3.290   1.932  0.00  0.00    +0.147 A 
ATOM     23  C   UNL     1      -2.317  -2.910   2.543  0.00  0.00    +0.051 A 
ATOM     24 CL   UNL     1       0.326  -4.669   0.107  0.00  0.00    -0.080 Cl
ENDBRANCH  16  22
ENDBRANCH   1  16
TORSDOF 3
