REMARK  Name = ZINC36637728
REMARK  12 active torsions:
REMARK  status: ('A' for Active; 'I' for Inactive)
REMARK    1  A    between atoms: C_1  and  C_2
REMARK    2  A    between atoms: C_2  and  N_3
REMARK    3  A    between atoms: N_3  and  C_4
REMARK    4  A    between atoms: N_3  and  C_6
REMARK    5  A    between atoms: C_4  and  C_5
REMARK    6  A    between atoms: C_6  and  C_7
REMARK    7  A    between atoms: C_7  and  N_8
REMARK    8  A    between atoms: C_14  and  C_18
REMARK    9  A    between atoms: C_19  and  C_21
REMARK   10  A    between atoms: C_24  and  S_27
REMARK   11  A    between atoms: S_27  and  N_30
REMARK   12  A    between atoms: C_35  and  C_37
REMARK                            x       y       z     vdW  Elec       q    Type
REMARK                         _______ _______ _______ _____ _____    ______ ____
ROOT
ATOM      1  N   UNL     1      -1.789  -3.635   1.288  0.00  0.00    -0.248 N 
ATOM      2  C   UNL     1      -2.034  -4.099   2.569  0.00  0.00    +0.168 A 
ATOM      3  N   UNL     1      -2.844  -3.613   3.480  0.00  0.00    -0.224 NA
ATOM      4  C   UNL     1      -2.985  -4.174   4.701  0.00  0.00    +0.080 A 
ATOM      5  C   UNL     1      -3.816  -3.753   5.765  0.00  0.00    +0.029 A 
ATOM      6  C   UNL     1      -3.840  -4.443   6.949  0.00  0.00    +0.005 A 
ATOM      7  C   UNL     1      -3.056  -5.570   7.147  0.00  0.00    -0.049 A 
ATOM      8  C   UNL     1      -2.232  -6.010   6.128  0.00  0.00    +0.020 A 
ATOM      9  C   UNL     1      -2.201  -5.326   4.939  0.00  0.00    +0.041 A 
ATOM     10  S   UNL     1      -1.334  -5.518   3.400  0.00  0.00    -0.052 S 
ATOM     11  C   UNL     1      -3.103  -6.308   8.461  0.00  0.00    +0.044 C 
ATOM     12  C   UNL     1      -0.916  -4.283   0.492  0.00  0.00    +0.252 C 
ATOM     13  O   UNL     1      -0.386  -5.306   0.877  0.00  0.00    -0.270 OA
ENDROOT
BRANCH  12  14
ATOM     14  C   UNL     1      -0.604  -3.749  -0.851  0.00  0.00    +0.037 A 
ATOM     15  C   UNL     1      -0.663  -2.375  -1.090  0.00  0.00    +0.015 A 
ATOM     16  C   UNL     1      -0.371  -1.884  -2.346  0.00  0.00    +0.029 A 
ATOM     17  C   UNL     1      -0.019  -2.750  -3.366  0.00  0.00    +0.106 A 
ATOM     18  C   UNL     1       0.041  -4.113  -3.136  0.00  0.00    +0.029 A 
ATOM     19  C   UNL     1      -0.243  -4.617  -1.883  0.00  0.00    +0.015 A 
BRANCH  17  20
ATOM     20  S   UNL     1       0.352  -2.114  -4.967  0.00  0.00    +0.061 S 
ATOM     21  O   UNL     1      -0.043  -3.109  -5.901  0.00  0.00    -0.153 OA
ATOM     22  O   UNL     1      -0.158  -0.788  -5.005  0.00  0.00    -0.153 OA
BRANCH  20  23
ATOM     23  N   UNL     1       2.000  -1.991  -5.075  0.00  0.00    -0.174 NA
ATOM     24  C   UNL     1       2.786  -3.036  -5.745  0.00  0.00    +0.110 C 
ATOM     25  C   UNL     1       3.664  -2.381  -6.816  0.00  0.00    +0.017 C 
ATOM     26  C   UNL     1       4.505  -1.275  -6.176  0.00  0.00    +0.003 C 
ATOM     27  C   UNL     1       3.582  -0.205  -5.588  0.00  0.00    +0.020 C 
ATOM     28  C   UNL     1       2.703  -0.832  -4.508  0.00  0.00    +0.077 C 
ATOM     29  C   UNL     1       1.682   0.198  -4.019  0.00  0.00    +0.026 C 
ENDBRANCH  20  23
ENDBRANCH  17  20
ENDBRANCH  12  14
BRANCH   1  30
ATOM     30  C   UNL     1      -2.479  -2.438   0.798  0.00  0.00    +0.097 C 
BRANCH  30  31
ATOM     31  C   UNL     1      -1.821  -1.191   1.393  0.00  0.00    -0.059 C 
BRANCH  31  32
ATOM     32  N   UNL     1      -2.431   0.010   0.808  0.00  0.00    +0.380 N 
ATOM     33  H   UNL     1      -2.355  -0.030  -0.197  0.00  0.00    -0.082 HD
BRANCH  32  35
ATOM     34  C   UNL     1      -4.513   1.258   0.480  0.00  0.00    -0.017 C 
ATOM     35  C   UNL     1      -3.847   0.076   1.190  0.00  0.00    -0.082 C 
ENDBRANCH  32  35
BRANCH  32  36
ATOM     36  C   UNL     1      -1.733   1.204   1.304  0.00  0.00    -0.082 C 
ATOM     37  C   UNL     1      -0.301   1.219   0.765  0.00  0.00    -0.017 C 
ENDBRANCH  32  36
ENDBRANCH  31  32
ENDBRANCH  30  31
ENDBRANCH   1  30
TORSDOF 8
