REMARK  Name = ZINC39676554
REMARK  13 active torsions:
REMARK  status: ('A' for Active; 'I' for Inactive)
REMARK    1  A    between atoms: C_1  and  C_2
REMARK    2  A    between atoms: C_2  and  C_3
REMARK    3  A    between atoms: C_3  and  C_4
REMARK    4  A    between atoms: C_4  and  C_6
REMARK    5  A    between atoms: C_4  and  C_7
REMARK    6  A    between atoms: C_11  and  C_20
REMARK    7  A    between atoms: N_22  and  C_23
REMARK    8  A    between atoms: C_23  and  C_24
REMARK    9  A    between atoms: C_23  and  C_32
REMARK   10  A    between atoms: C_27  and  O_30
REMARK   11  A    between atoms: O_30  and  C_31
REMARK   12  A    between atoms: C_35  and  O_38
REMARK   13  A    between atoms: O_38  and  C_39
REMARK                            x       y       z     vdW  Elec       q    Type
REMARK                         _______ _______ _______ _____ _____    ______ ____
ROOT
ATOM      1  C   UNL     1      -0.905  -5.486  -3.651  0.00  0.00    +0.219 C 
ATOM      2  O   UNL     1      -1.368  -4.379  -3.480  0.00  0.00    -0.275 OA
ATOM      3  N   UNL     1      -1.642  -6.440  -4.255  0.00  0.00    -0.304 N 
ATOM      4  H   UNL     1      -1.271  -7.325  -4.391  0.00  0.00    +0.150 HD
ENDROOT
BRANCH   1   9
ATOM      5  C   UNL     1       1.386  -2.541  -1.878  0.00  0.00    +0.218 C 
ATOM      6  O   UNL     1       1.953  -1.621  -2.429  0.00  0.00    -0.275 OA
ATOM      7  N   UNL     1       1.514  -3.794  -2.356  0.00  0.00    -0.300 N 
ATOM      8  C   UNL     1       0.819  -5.018  -1.893  0.00  0.00    +0.121 C 
ATOM      9  C   UNL     1       0.495  -5.797  -3.188  0.00  0.00    +0.100 C 
ATOM     10  C   UNL     1       1.525  -5.296  -4.214  0.00  0.00    -0.004 C 
ATOM     11  C   UNL     1       2.377  -4.259  -3.469  0.00  0.00    +0.115 C 
ATOM     12  C   UNL     1       0.817  -4.638  -5.395  0.00  0.00    -0.010 C 
ATOM     13  C   UNL     1       1.858  -4.200  -6.429  0.00  0.00    -0.082 C 
ATOM     14  N   UNL     1       2.624  -5.368  -6.880  0.00  0.00    +0.379 N 
ATOM     15  C   UNL     1       3.376  -5.940  -5.756  0.00  0.00    -0.082 C 
ATOM     16  C   UNL     1       2.398  -6.452  -4.694  0.00  0.00    -0.010 C 
ATOM     17  H   UNL     1       1.991  -6.063  -7.247  0.00  0.00    -0.086 HD
ATOM     18  H   UNL     1       3.268  -5.087  -7.605  0.00  0.00    -0.086 HD
BRANCH   5  19
ATOM     19  C   UNL     1       0.540  -2.282  -0.658  0.00  0.00    +0.072 C 
ATOM     20  C   UNL     1      -0.108  -0.900  -0.770  0.00  0.00    +0.017 C 
BRANCH  19  21
ATOM     21  C   UNL     1       1.419  -2.333   0.593  0.00  0.00    +0.012 C 
BRANCH  21  23
ATOM     22  C   UNL     1       1.421  -2.246   3.090  0.00  0.00    +0.004 C 
ATOM     23  C   UNL     1       0.541  -2.195   1.839  0.00  0.00    -0.003 C 
ENDBRANCH  21  23
ENDBRANCH  19  21
ENDBRANCH   5  19
ENDBRANCH   1   9
BRANCH   3  24
ATOM     24  C   UNL     1      -3.003  -6.138  -4.705  0.00  0.00    +0.134 C 
BRANCH  24  25
ATOM     25  C   UNL     1      -2.951  -5.512  -6.075  0.00  0.00    -0.023 A 
ATOM     26  C   UNL     1      -2.065  -5.994  -7.021  0.00  0.00    +0.009 A 
ATOM     27  C   UNL     1      -2.016  -5.423  -8.278  0.00  0.00    +0.046 A 
ATOM     28  C   UNL     1      -2.857  -4.364  -8.590  0.00  0.00    +0.120 A 
ATOM     29  C   UNL     1      -3.745  -3.883  -7.640  0.00  0.00    +0.046 A 
ATOM     30  C   UNL     1      -3.795  -4.462  -6.386  0.00  0.00    +0.009 A 
BRANCH  28  31
ATOM     31  O   UNL     1      -2.810  -3.800  -9.826  0.00  0.00    -0.495 OA
ATOM     32  C   UNL     1      -3.705  -2.714 -10.077  0.00  0.00    +0.277 C 
ENDBRANCH  28  31
ENDBRANCH  24  25
BRANCH  24  33
ATOM     33  C   UNL     1      -3.806  -7.411  -4.764  0.00  0.00    -0.023 A 
ATOM     34  C   UNL     1      -3.223  -8.575  -5.230  0.00  0.00    +0.009 A 
ATOM     35  C   UNL     1      -3.958  -9.743  -5.285  0.00  0.00    +0.046 A 
ATOM     36  C   UNL     1      -5.282  -9.749  -4.872  0.00  0.00    +0.120 A 
ATOM     37  C   UNL     1      -5.865  -8.580  -4.404  0.00  0.00    +0.046 A 
ATOM     38  C   UNL     1      -5.124  -7.415  -4.346  0.00  0.00    +0.009 A 
BRANCH  36  39
ATOM     39  O   UNL     1      -6.007 -10.897  -4.926  0.00  0.00    -0.495 OA
ATOM     40  C   UNL     1      -7.364 -10.828  -4.484  0.00  0.00    +0.277 C 
ENDBRANCH  36  39
ENDBRANCH  24  33
ENDBRANCH   3  24
TORSDOF 9
