REMARK  Name = ZINC55927645
REMARK  6 active torsions:
REMARK  status: ('A' for Active; 'I' for Inactive)
REMARK    1  A    between atoms: C_4  and  C_6
REMARK    2  A    between atoms: N_11  and  C_12
REMARK    3  A    between atoms: C_12  and  C_13
REMARK    4  A    between atoms: C_13  and  C_15
REMARK    5  A    between atoms: C_16  and  N_27
REMARK    6  A    between atoms: N_17  and  C_24
REMARK                            x       y       z     vdW  Elec       q    Type
REMARK                         _______ _______ _______ _____ _____    ______ ____
ROOT
ATOM      1  C   UNL     1       1.255  -6.205  -1.513  0.00  0.00    +0.118 A 
ATOM      2  C   UNL     1       0.447  -7.352  -1.430  0.00  0.00    +0.116 A 
ATOM      3  N   UNL     1       0.874  -8.505  -2.024  0.00  0.00    -0.278 N 
ATOM      4  C   UNL     1       2.044  -8.561  -2.680  0.00  0.00    +0.331 A 
ATOM      5  O   UNL     1       2.379  -9.611  -3.192  0.00  0.00    -0.246 OA
ATOM      6  N   UNL     1       2.857  -7.498  -2.793  0.00  0.00    -0.274 N 
ATOM      7  H   UNL     1       3.693  -7.584  -3.277  0.00  0.00    +0.173 HD
ATOM      8  C   UNL     1       2.523  -6.310  -2.247  0.00  0.00    +0.266 A 
ATOM      9  O   UNL     1       3.260  -5.348  -2.355  0.00  0.00    -0.267 OA
ENDROOT
BRANCH   3  10
ATOM     10  C   UNL     1       0.040  -9.707  -1.942  0.00  0.00    +0.094 C 
ATOM     11  C   UNL     1      -0.204 -10.486  -3.236  0.00  0.00    +0.027 C 
ATOM     12  C   UNL     1      -1.333  -9.660  -2.616  0.00  0.00    +0.027 C 
ENDBRANCH   3  10
BRANCH   2  13
ATOM     13  N   UNL     1      -0.741  -7.315  -0.767  0.00  0.00    -0.344 N 
ATOM     14  H   UNL     1      -1.230  -6.480  -0.697  0.00  0.00    +0.144 HD
ATOM     15  H   UNL     1      -1.098  -8.122  -0.365  0.00  0.00    +0.144 HD
ENDBRANCH   2  13
BRANCH   1  16
ATOM     16  C   UNL     1       0.858  -4.989  -0.917  0.00  0.00    +0.155 C 
ATOM     17  O   UNL     1      -0.247  -4.888  -0.422  0.00  0.00    -0.294 OA
BRANCH  16  18
ATOM     18  C   UNL     1       1.804  -3.817  -0.894  0.00  0.00    +0.003 C 
BRANCH  18  23
ATOM     19  C   UNL     1       2.121  -1.571  -0.091  0.00  0.00    -0.065 C 
ATOM     20  C   UNL     1       1.549  -0.370  -0.874  0.00  0.00    -0.017 C 
ATOM     21  C   UNL     1       0.571  -1.039  -1.875  0.00  0.00    -0.020 C 
ATOM     22  C   UNL     1       0.008  -2.208  -1.028  0.00  0.00    -0.078 C 
ATOM     23  N   UNL     1       1.159  -2.680  -0.223  0.00  0.00    +0.387 N 
ATOM     24  H   UNL     1       0.840  -2.964   0.692  0.00  0.00    -0.081 HD
BRANCH  19  28
ATOM     25  C   UNL     1       1.181   0.750   2.426  0.00  0.00    +0.000 C 
ATOM     26  C   UNL     1       2.708   0.828   2.676  0.00  0.00    +0.000 C 
ATOM     27  C   UNL     1       3.287  -0.032   1.525  0.00  0.00    +0.002 C 
ATOM     28  C   UNL     1       2.287  -1.198   1.384  0.00  0.00    -0.025 C 
ATOM     29  C   UNL     1       0.948  -0.701   1.957  0.00  0.00    +0.002 C 
ENDBRANCH  19  28
ENDBRANCH  18  23
ENDBRANCH  16  18
ENDBRANCH   1  16
TORSDOF 6
