REMARK  Name = ZINC38821091
REMARK  6 active torsions:
REMARK  status: ('A' for Active; 'I' for Inactive)
REMARK    1  A    between atoms: C_1  and  C_2
REMARK    2  A    between atoms: C_3  and  C_26
REMARK    3  A    between atoms: C_4  and  C_16
REMARK    4  A    between atoms: C_19  and  C_22
REMARK    5  A    between atoms: C_26  and  O_28
REMARK    6  A    between atoms: O_28  and  C_29
REMARK                            x       y       z     vdW  Elec       q    Type
REMARK                         _______ _______ _______ _____ _____    ______ ____
ROOT
ATOM      1  C   UNL     1      -0.018   1.503   0.010  0.00  0.00    +0.061 C 
ATOM      2  C   UNL     1       0.002  -0.004   0.002  0.00  0.00    +0.016 C 
ATOM      3  C   UNL     1      -1.156  -0.678   0.004  0.00  0.00    +0.062 C 
ATOM      4  C   UNL     1      -1.237  -2.178  -0.025  0.00  0.00    +0.076 C 
ATOM      5  C   UNL     1       0.065  -2.790   0.498  0.00  0.00    +0.148 C 
ATOM      6  C   UNL     1       1.182  -2.015  -0.182  0.00  0.00    +0.106 C 
ATOM      7  N   UNL     1       2.045  -2.662  -0.909  0.00  0.00    -0.151 NA
ATOM      8  C   UNL     1       1.965  -3.986  -1.099  0.00  0.00    +0.331 C 
ATOM      9  O   UNL     1       2.833  -4.514  -1.768  0.00  0.00    -0.250 OA
ATOM     10  N   UNL     1       0.998  -4.767  -0.603  0.00  0.00    -0.238 N 
ATOM     11  C   UNL     1       0.013  -4.277   0.199  0.00  0.00    +0.231 C 
ATOM     12  O   UNL     1      -0.864  -4.984   0.649  0.00  0.00    -0.275 OA
ATOM     13  N   UNL     1       1.211  -0.665  -0.013  0.00  0.00    -0.307 N 
ATOM     14  H   UNL     1       1.001  -5.713  -0.817  0.00  0.00    +0.159 HD
ATOM     15  H   UNL     1       2.049  -0.188   0.095  0.00  0.00    +0.153 HD
ENDROOT
BRANCH   4  16
ATOM     16  C   UNL     1      -2.382  -2.633   0.843  0.00  0.00    -0.039 A 
ATOM     17  C   UNL     1      -2.397  -2.317   2.189  0.00  0.00    +0.005 A 
ATOM     18  C   UNL     1      -3.447  -2.733   2.985  0.00  0.00    +0.012 A 
ATOM     19  C   UNL     1      -4.483  -3.466   2.436  0.00  0.00    +0.055 A 
ATOM     20  C   UNL     1      -4.468  -3.782   1.090  0.00  0.00    +0.012 A 
ATOM     21  C   UNL     1      -3.420  -3.361   0.293  0.00  0.00    +0.005 A 
BRANCH  19  22
ATOM     22  C   UNL     1      -5.627  -3.922   3.304  0.00  0.00    +0.417 C 
ATOM     23  F   UNL     1      -6.629  -2.946   3.304  0.00  0.00    -0.166 F 
ATOM     24  F   UNL     1      -6.144  -5.121   2.802  0.00  0.00    -0.166 F 
ATOM     25  F   UNL     1      -5.170  -4.121   4.611  0.00  0.00    -0.166 F 
ENDBRANCH  19  22
ENDBRANCH   4  16
BRANCH   3  26
ATOM     26  C   UNL     1      -2.363   0.059   0.035  0.00  0.00    +0.337 C 
ATOM     27  O   UNL     1      -2.333   1.276   0.059  0.00  0.00    -0.245 OA
BRANCH  26  28
ATOM     28  O   UNL     1      -3.548  -0.586   0.038  0.00  0.00    -0.465 OA
ATOM     29  C   UNL     1      -4.727   0.222   0.070  0.00  0.00    +0.280 C 
ENDBRANCH  26  28
ENDBRANCH   3  26
TORSDOF 4
