REMARK  Name = ZINC36311942
REMARK  5 active torsions:
REMARK  status: ('A' for Active; 'I' for Inactive)
REMARK    1  A    between atoms: C_6  and  N_7
REMARK    2  A    between atoms: C_8  and  C_10
REMARK    3  A    between atoms: C_10  and  C_12
REMARK    4  A    between atoms: C_10  and  N_17
REMARK    5  A    between atoms: C_23  and  C_25
REMARK                            x       y       z     vdW  Elec       q    Type
REMARK                         _______ _______ _______ _____ _____    ______ ____
ROOT
ATOM      1  C   UNL     1      -3.178   0.535   1.401  0.00  0.00    +0.023 C 
ENDROOT
BRANCH   1   2
ATOM      2  N   UNL     1      -4.389   1.327   1.146  0.00  0.00    +0.390 N 
ATOM      3  C   UNL     1      -5.561   0.603   1.654  0.00  0.00    -0.058 C 
ATOM      4  C   UNL     1      -6.809   1.477   1.492  0.00  0.00    +0.089 C 
ATOM      5  N   UNL     1      -6.912   1.886   0.082  0.00  0.00    -0.301 N 
ATOM      6  C   UNL     1      -5.725   2.474  -0.557  0.00  0.00    +0.089 C 
ATOM      7  C   UNL     1      -4.528   1.553  -0.298  0.00  0.00    -0.058 C 
ATOM      8  C   UNL     1      -8.062   1.727  -0.604  0.00  0.00    +0.248 C 
ATOM      9  O   UNL     1      -8.092   1.950  -1.798  0.00  0.00    -0.270 OA
ATOM     10  H   UNL     1      -4.314   2.215   1.619  0.00  0.00    -0.081 HD
BRANCH   8  11
ATOM     11  C   UNL     1      -9.284   1.282   0.096  0.00  0.00    +0.055 A 
ATOM     12  C   UNL     1      -9.606   1.809   1.349  0.00  0.00    +0.016 A 
ATOM     13  C   UNL     1     -10.748   1.390   1.997  0.00  0.00    +0.021 A 
ATOM     14  C   UNL     1     -11.576   0.447   1.410  0.00  0.00    +0.042 A 
ATOM     15  C   UNL     1     -11.262  -0.081   0.169  0.00  0.00    +0.040 A 
ATOM     16  C   UNL     1     -10.125   0.335  -0.494  0.00  0.00    +0.054 A 
ATOM     17 CL   UNL     1      -9.737  -0.322  -2.054  0.00  0.00    -0.083 Cl
ATOM     18 CL   UNL     1     -13.012  -0.076   2.234  0.00  0.00    -0.083 Cl
ENDBRANCH   8  11
ENDBRANCH   1   2
BRANCH   1  19
ATOM     19  C   UNL     1      -3.004   0.343   2.909  0.00  0.00    -0.016 C 
ATOM     20  C   UNL     1      -2.897   1.714   3.608  0.00  0.00    +0.002 C 
ATOM     21  C   UNL     1      -1.856   1.487   4.732  0.00  0.00    +0.000 C 
ATOM     22  C   UNL     1      -0.827   0.545   4.060  0.00  0.00    +0.000 C 
ATOM     23  C   UNL     1      -1.687  -0.401   3.197  0.00  0.00    +0.002 C 
ENDBRANCH   1  19
BRANCH   1  25
ATOM     24  N   UNL     1      -0.907   0.557   0.422  0.00  0.00    -0.287 N 
ATOM     25  C   UNL     1      -1.979   1.257   0.845  0.00  0.00    +0.204 C 
ATOM     26  O   UNL     1      -1.978   2.468   0.777  0.00  0.00    -0.277 OA
ATOM     27  H   UNL     1      -0.953  -0.409   0.359  0.00  0.00    +0.155 HD
BRANCH  24  33
ATOM     28  C   UNL     1       0.220   2.539  -0.376  0.00  0.00    +0.027 A 
ATOM     29  C   UNL     1       1.383   3.201  -0.721  0.00  0.00    +0.051 A 
ATOM     30  C   UNL     1       2.605   2.557  -0.619  0.00  0.00    +0.166 A 
ATOM     31  C   UNL     1       2.662   1.239  -0.169  0.00  0.00    +0.168 A 
ATOM     32  C   UNL     1       1.496   0.577   0.175  0.00  0.00    +0.072 A 
ATOM     33  C   UNL     1       0.273   1.227   0.072  0.00  0.00    +0.037 A 
ATOM     34  O   UNL     1       3.966   0.837  -0.160  0.00  0.00    -0.453 OA
ATOM     35  C   UNL     1       4.665   1.780  -0.994  0.00  0.00    +0.466 C 
ATOM     36  O   UNL     1       3.876   2.979  -0.892  0.00  0.00    -0.453 OA
ENDBRANCH  24  33
ENDBRANCH   1  25
TORSDOF 5
