REMARK  Name = ZINC03440009
REMARK  8 active torsions:
REMARK  status: ('A' for Active; 'I' for Inactive)
REMARK    1  A    between atoms: C_1  and  C_2
REMARK    2  A    between atoms: C_5  and  N_8
REMARK    3  A    between atoms: C_9  and  C_28
REMARK    4  A    between atoms: C_12  and  S_13
REMARK    5  A    between atoms: S_13  and  C_14
REMARK    6  A    between atoms: C_14  and  C_15
REMARK    7  A    between atoms: C_15  and  C_16
REMARK    8  A    between atoms: C_16  and  N_17
REMARK                            x       y       z     vdW  Elec       q    Type
REMARK                         _______ _______ _______ _____ _____    ______ ____
ROOT
ATOM      1  N   UNL     1      -8.990   2.728  -3.711  0.00  0.00    -0.270 N 
ATOM      2  C   UNL     1     -10.148   2.480  -3.006  0.00  0.00    +0.169 A 
ATOM      3  N   UNL     1      -9.841   2.533  -1.730  0.00  0.00    -0.128 NA
ATOM      4  N   UNL     1      -8.589   2.788  -1.589  0.00  0.00    -0.122 NA
ATOM      5  C   UNL     1      -8.018   2.915  -2.766  0.00  0.00    +0.196 A 
ENDROOT
BRANCH   1  10
ATOM      6  C   UNL     1      -8.378   2.922  -9.350  0.00  0.00    +0.044 C 
ATOM      7  C   UNL     1      -8.540   2.870  -7.852  0.00  0.00    -0.050 A 
ATOM      8  C   UNL     1      -7.905   1.882  -7.123  0.00  0.00    +0.005 A 
ATOM      9  C   UNL     1      -8.052   1.833  -5.750  0.00  0.00    +0.026 A 
ATOM     10  C   UNL     1      -8.839   2.776  -5.103  0.00  0.00    +0.051 A 
ATOM     11  C   UNL     1      -9.480   3.763  -5.839  0.00  0.00    +0.026 A 
ATOM     12  C   UNL     1      -9.325   3.811  -7.210  0.00  0.00    +0.005 A 
ENDBRANCH   1  10
BRANCH   2  13
ATOM     13  C   UNL     1     -11.483   2.209  -3.578  0.00  0.00    +0.020 A 
ATOM     14  C   UNL     1     -11.614   1.879  -4.928  0.00  0.00    +0.013 A 
ATOM     15  C   UNL     1     -12.863   1.623  -5.455  0.00  0.00    +0.021 A 
ATOM     16  C   UNL     1     -13.987   1.704  -4.650  0.00  0.00    +0.041 A 
ATOM     17  C   UNL     1     -13.864   2.036  -3.311  0.00  0.00    +0.021 A 
ATOM     18  C   UNL     1     -12.620   2.289  -2.772  0.00  0.00    +0.013 A 
ATOM     19 CL   UNL     1     -15.556   1.387  -5.322  0.00  0.00    -0.084 Cl
ENDBRANCH   2  13
BRANCH   5  20
ATOM     20  S   UNL     1      -6.318   3.266  -3.070  0.00  0.00    -0.086 S 
BRANCH  20  21
ATOM     21  C   UNL     1      -5.711   3.378  -1.369  0.00  0.00    +0.079 C 
BRANCH  21  22
ATOM     22  C   UNL     1      -4.212   3.686  -1.381  0.00  0.00    +0.033 C 
BRANCH  22  23
ATOM     23  C   UNL     1      -3.699   3.780   0.057  0.00  0.00    +0.128 C 
BRANCH  23  24
ATOM     24  N   UNL     1      -2.264   4.076   0.045  0.00  0.00    -0.292 N 
ATOM     25  C   UNL     1      -1.238   3.134   0.030  0.00  0.00    +0.070 A 
ATOM     26  C   UNL     1      -1.220   1.747   0.017  0.00  0.00    +0.028 A 
ATOM     27  C   UNL     1      -0.013   1.076   0.008  0.00  0.00    +0.002 A 
ATOM     28  C   UNL     1       1.179   1.781   0.000  0.00  0.00    +0.002 A 
ATOM     29  C   UNL     1       1.170   3.162   0.007  0.00  0.00    +0.028 A 
ATOM     30  C   UNL     1      -0.037   3.845   0.022  0.00  0.00    +0.067 A 
ATOM     31  N   UNL     1      -0.370   5.197   0.033  0.00  0.00    -0.306 N 
ATOM     32  H   UNL     1       0.258   5.937   0.031  0.00  0.00    +0.170 HD
ATOM     33  C   UNL     1      -1.712   5.304   0.046  0.00  0.00    +0.328 A 
ATOM     34  O   UNL     1      -2.332   6.351   0.057  0.00  0.00    -0.247 OA
ENDBRANCH  23  24
ENDBRANCH  22  23
ENDBRANCH  21  22
ENDBRANCH  20  21
ENDBRANCH   5  20
TORSDOF 7
