REMARK  Name = ZINC61326488
REMARK  2 active torsions:
REMARK  status: ('A' for Active; 'I' for Inactive)
REMARK    1  A    between atoms: C_6  and  N_11
REMARK    2  A    between atoms: N_11  and  C_12
REMARK                            x       y       z     vdW  Elec       q    Type
REMARK                         _______ _______ _______ _____ _____    ______ ____
ROOT
ATOM      1  N   UNL     1      -1.810  -0.914   1.365  0.00  0.00    -0.336 N 
ATOM      2  H   UNL     1      -1.587  -1.658   1.947  0.00  0.00    +0.147 HD
ENDROOT
BRANCH   1   3
ATOM      3  C   UNL     1      -2.656   0.103   1.824  0.00  0.00    +0.050 A 
ATOM      4  C   UNL     1      -2.981   1.164   0.990  0.00  0.00    +0.074 A 
ATOM      5  C   UNL     1      -3.818   2.169   1.443  0.00  0.00    +0.168 A 
ATOM      6  C   UNL     1      -4.333   2.115   2.736  0.00  0.00    +0.168 A 
ATOM      7  C   UNL     1      -4.007   1.054   3.566  0.00  0.00    +0.071 A 
ATOM      8  C   UNL     1      -3.175   0.048   3.111  0.00  0.00    +0.065 A 
ATOM      9 CL   UNL     1      -2.773  -1.282   4.152  0.00  0.00    -0.082 Cl
ATOM     10  O   UNL     1      -5.121   3.212   2.939  0.00  0.00    -0.453 OA
ATOM     11  C   UNL     1      -4.757   4.143   1.903  0.00  0.00    +0.466 C 
ATOM     12  O   UNL     1      -4.284   3.300   0.836  0.00  0.00    -0.453 OA
ENDBRANCH   1   3
BRANCH   1  18
ATOM     13  C   UNL     1      -0.017   1.391   0.010  0.00  0.00    +0.013 A 
ATOM     14  C   UNL     1       1.145   2.084   0.002  0.00  0.00    +0.046 A 
ATOM     15  S   UNL     1       2.356   0.771  -0.016  0.00  0.00    -0.101 S 
ATOM     16  C   UNL     1       1.227  -0.595  -0.012  0.00  0.00    -0.005 A 
ATOM     17  C   UNL     1       0.002  -0.004   0.002  0.00  0.00    -0.017 A 
ATOM     18  C   UNL     1      -1.264  -0.856   0.007  0.00  0.00    +0.101 C 
ATOM     19  C   UNL     1      -0.910  -2.267  -0.467  0.00  0.00    +0.027 C 
ATOM     20  C   UNL     1       0.255  -2.821   0.358  0.00  0.00    +0.007 C 
ATOM     21  C   UNL     1       1.533  -2.058  -0.020  0.00  0.00    +0.043 C 
ENDBRANCH   1  18
TORSDOF 2
