REMARK  Name = ZINC03820029
REMARK  8 active torsions:
REMARK  status: ('A' for Active; 'I' for Inactive)
REMARK    1  A    between atoms: C_1  and  C_2
REMARK    2  A    between atoms: C_3  and  C_4
REMARK    3  A    between atoms: C_4  and  N_5
REMARK    4  A    between atoms: C_14  and  N_63
REMARK    5  A    between atoms: N_17  and  C_35
REMARK    6  A    between atoms: N_20  and  C_23
REMARK    7  A    between atoms: C_23  and  C_24
REMARK    8  A    between atoms: C_26  and  C_34
REMARK                            x       y       z     vdW  Elec       q    Type
REMARK                         _______ _______ _______ _____ _____    ______ ____
ROOT
ATOM      1  N   UNL     1      -1.960   3.879   3.404  0.00  0.00    -0.295 N 
ATOM      2  C   UNL     1      -2.942   4.697   2.861  0.00  0.00    +0.154 A 
ATOM      3  C   UNL     1      -2.540   6.006   3.106  0.00  0.00    +0.170 A 
ATOM      4  N   UNL     1      -1.379   5.954   3.761  0.00  0.00    -0.196 NA
ATOM      5  C   UNL     1      -1.024   4.699   3.950  0.00  0.00    +0.202 A 
ATOM      6  N   UNL     1       0.118   4.285   4.596  0.00  0.00    -0.302 N 
ATOM      7  C   UNL     1       0.919   3.405   3.736  0.00  0.00    +0.108 C 
ATOM      8  C   UNL     1       2.101   2.848   4.533  0.00  0.00    +0.017 C 
ATOM      9  C   UNL     1       2.957   4.010   5.045  0.00  0.00    -0.013 C 
ATOM     10  C   UNL     1       2.087   4.937   5.898  0.00  0.00    -0.057 C 
ATOM     11  C   UNL     1       0.906   5.433   5.061  0.00  0.00    +0.092 C 
ATOM     12  N   UNL     1      -3.345   7.044   2.666  0.00  0.00    -0.279 N 
ATOM     13  C   UNL     1      -4.492   6.779   2.014  0.00  0.00    +0.334 A 
ATOM     14  O   UNL     1      -5.187   7.702   1.635  0.00  0.00    -0.246 OA
ATOM     15  N   UNL     1      -4.890   5.518   1.773  0.00  0.00    -0.252 N 
ATOM     16  C   UNL     1      -4.148   4.466   2.176  0.00  0.00    +0.283 A 
ATOM     17  O   UNL     1      -4.519   3.327   1.951  0.00  0.00    -0.265 OA
ATOM     18  C   UNL     1      -2.946   8.433   2.910  0.00  0.00    +0.155 C 
ENDROOT
BRANCH  10  21
ATOM     19  H   UNL     1       3.674   5.783   6.901  0.00  0.00    -0.090 HD
ATOM     20  H   UNL     1       3.190   6.643   5.562  0.00  0.00    -0.090 HD
ATOM     21  N   UNL     1       2.870   6.097   6.360  0.00  0.00    +0.381 N 
ATOM     22  H   UNL     1       2.277   6.689   6.954  0.00  0.00    -0.090 HD
ENDBRANCH  10  21
BRANCH   1  23
ATOM     23  C   UNL     1      -1.940   2.414   3.396  0.00  0.00    +0.214 C 
BRANCH  23  26
ATOM     24  C   UNL     1      -0.013   1.086   0.008  0.00  0.00    +0.106 C 
ATOM     25  C   UNL     1      -0.702   1.560   1.219  0.00  0.00    -0.104 C 
ATOM     26  C   UNL     1      -1.251   1.939   2.185  0.00  0.00    -0.081 C 
ENDBRANCH  23  26
ENDBRANCH   1  23
BRANCH  15  27
ATOM     27  C   UNL     1      -6.148   5.282   1.060  0.00  0.00    +0.206 C 
BRANCH  27  28
ATOM     28  C   UNL     1      -5.881   5.217  -0.422  0.00  0.00    +0.150 A 
ATOM     29  N   UNL     1      -5.944   6.338  -1.126  0.00  0.00    -0.235 NA
ATOM     30  C   UNL     1      -5.716   6.352  -2.424  0.00  0.00    +0.049 A 
ATOM     31  C   UNL     1      -5.411   5.136  -3.062  0.00  0.00    +0.021 A 
ATOM     32  C   UNL     1      -5.161   5.058  -4.440  0.00  0.00    +0.012 A 
ATOM     33  C   UNL     1      -4.871   3.851  -5.001  0.00  0.00    +0.001 A 
ATOM     34  C   UNL     1      -4.820   2.694  -4.226  0.00  0.00    +0.002 A 
ATOM     35  C   UNL     1      -5.058   2.734  -2.886  0.00  0.00    +0.028 A 
ATOM     36  C   UNL     1      -5.359   3.958  -2.272  0.00  0.00    +0.075 A 
ATOM     37  N   UNL     1      -5.602   4.054  -0.959  0.00  0.00    -0.230 NA
ATOM     38  C   UNL     1      -5.786   7.638  -3.207  0.00  0.00    +0.066 C 
ENDBRANCH  27  28
ENDBRANCH  15  27
TORSDOF 5
