REMARK  Name = ZINC00850182
REMARK  7 active torsions:
REMARK  status: ('A' for Active; 'I' for Inactive)
REMARK    1  A    between atoms: C_1  and  C_2
REMARK    2  A    between atoms: C_2  and  C_4
REMARK    3  A    between atoms: C_5  and  C_25
REMARK    4  A    between atoms: C_7  and  N_24
REMARK    5  A    between atoms: C_8  and  C_20
REMARK    6  A    between atoms: C_20  and  O_22
REMARK    7  A    between atoms: O_22  and  C_23
REMARK                            x       y       z     vdW  Elec       q    Type
REMARK                         _______ _______ _______ _____ _____    ______ ____
ROOT
ATOM      1  C   UNL     1       2.974   4.434  -1.211  0.00  0.00    +0.062 C 
ATOM      2  C   UNL     1       2.884   5.790  -1.302  0.00  0.00    +0.145 C 
ATOM      3  O   UNL     1       2.670   6.555  -0.216  0.00  0.00    -0.441 OA
ATOM      4  C   UNL     1       2.902   6.064   1.013  0.00  0.00    +0.196 C 
ATOM      5  C   UNL     1       2.993   4.727   1.241  0.00  0.00    +0.117 C 
ATOM      6  C   UNL     1       2.838   3.745   0.116  0.00  0.00    +0.142 C 
ATOM      7  C   UNL     1       1.507   3.041   0.210  0.00  0.00    -0.001 A 
ATOM      8  C   UNL     1       0.204   3.486   0.169  0.00  0.00    +0.022 A 
ATOM      9  C   UNL     1      -0.838   2.581   0.283  0.00  0.00    +0.018 A 
ATOM     10  C   UNL     1      -0.566   1.233   0.434  0.00  0.00    +0.017 A 
ATOM     11  C   UNL     1       0.739   0.786   0.481  0.00  0.00    +0.025 A 
ATOM     12  C   UNL     1       1.793   1.690   0.367  0.00  0.00    +0.038 A 
ATOM     13  N   UNL     1       3.174   1.488   0.381  0.00  0.00    -0.284 N 
ATOM     14  C   UNL     1       3.858   2.638   0.240  0.00  0.00    +0.237 C 
ATOM     15  O   UNL     1       5.064   2.761   0.216  0.00  0.00    -0.274 OA
ATOM     16 BR   UNL     1      -2.629   3.186   0.226  0.00  0.00    -0.050 Br
ATOM     17  H   UNL     1       3.592   0.618   0.480  0.00  0.00    +0.155 HD
ENDROOT
BRANCH   2  18
ATOM     18  C   UNL     1       3.023   6.434  -2.621  0.00  0.00    +0.018 A 
ATOM     19  C   UNL     1       3.925   7.487  -2.796  0.00  0.00    +0.011 A 
ATOM     20  C   UNL     1       4.054   8.081  -4.035  0.00  0.00    +0.001 A 
ATOM     21  C   UNL     1       3.286   7.643  -5.099  0.00  0.00    +0.000 A 
ATOM     22  C   UNL     1       2.387   6.604  -4.932  0.00  0.00    +0.001 A 
ATOM     23  C   UNL     1       2.251   5.997  -3.701  0.00  0.00    +0.011 A 
ENDBRANCH   2  18
BRANCH   1  25
ATOM     24  C   UNL     1       2.126   2.742  -2.873  0.00  0.00    +0.091 C 
ATOM     25  C   UNL     1       3.196   3.675  -2.367  0.00  0.00    +0.161 C 
ATOM     26  O   UNL     1       4.251   3.769  -2.962  0.00  0.00    -0.293 OA
ENDBRANCH   1  25
BRANCH   4  27
ATOM     27  N   UNL     1       3.049   6.931   2.062  0.00  0.00    -0.329 N 
ATOM     28  H   UNL     1       3.705   6.750   2.753  0.00  0.00    +0.145 HD
ATOM     29  H   UNL     1       2.497   7.727   2.114  0.00  0.00    +0.145 HD
ENDBRANCH   4  27
BRANCH   5  30
ATOM     30  C   UNL     1       3.235   4.259   2.542  0.00  0.00    +0.341 C 
ATOM     31  O   UNL     1       3.440   5.051   3.445  0.00  0.00    -0.245 OA
BRANCH  30  32
ATOM     32  O   UNL     1       3.239   2.932   2.793  0.00  0.00    -0.465 OA
ATOM     33  C   UNL     1       3.492   2.527   4.140  0.00  0.00    +0.280 C 
ENDBRANCH  30  32
ENDBRANCH   5  30
TORSDOF 5
