REMARK  Name = ZINC50944797
REMARK  5 active torsions:
REMARK  status: ('A' for Active; 'I' for Inactive)
REMARK    1  A    between atoms: C_3  and  N_11
REMARK    2  A    between atoms: C_6  and  N_7
REMARK    3  A    between atoms: C_12  and  C_14
REMARK    4  A    between atoms: C_14  and  C_15
REMARK    5  A    between atoms: C_15  and  C_16
REMARK                            x       y       z     vdW  Elec       q    Type
REMARK                         _______ _______ _______ _____ _____    ______ ____
ROOT
ATOM      1  N   UNL     1       3.584   2.125  -0.021  0.00  0.00    -0.285 N 
ATOM      2  C   UNL     1       3.568   3.470  -0.116  0.00  0.00    +0.217 C 
ATOM      3  O   UNL     1       2.512   4.066  -0.103  0.00  0.00    -0.275 OA
ATOM      4  H   UNL     1       4.429   1.654   0.049  0.00  0.00    +0.155 HD
ENDROOT
BRANCH   1   7
ATOM      5  C   UNL     1       0.065   1.242  -0.620  0.00  0.00    +0.034 A 
ATOM      6  C   UNL     1       1.250   1.952  -0.618  0.00  0.00    +0.026 A 
ATOM      7  C   UNL     1       2.381   1.409  -0.024  0.00  0.00    +0.048 A 
ATOM      8  C   UNL     1       2.317   0.153   0.567  0.00  0.00    +0.041 A 
ATOM      9  C   UNL     1       1.128  -0.551   0.562  0.00  0.00    +0.049 A 
ATOM     10  C   UNL     1       0.004  -0.007  -0.031  0.00  0.00    +0.127 A 
ATOM     11 BR   UNL     1       3.855  -0.591   1.378  0.00  0.00    -0.048 Br
BRANCH  10  12
ATOM     12  N   UNL     1      -1.268  -0.764  -0.034  0.00  0.00    +0.056 N 
ATOM     13  O   UNL     1      -2.253  -0.289  -0.552  0.00  0.00    -0.126 OA
ATOM     14  O   UNL     1      -1.323  -1.856   0.480  0.00  0.00    -0.126 OA
ENDBRANCH  10  12
ENDBRANCH   1   7
BRANCH   2  15
ATOM     15  C   UNL     1       4.862   4.232  -0.238  0.00  0.00    +0.094 C 
BRANCH  15  16
ATOM     16  C   UNL     1       4.566   5.730  -0.329  0.00  0.00    -0.007 C 
BRANCH  16  17
ATOM     17  C   UNL     1       5.880   6.503  -0.454  0.00  0.00    -0.071 C 
ATOM     18  C   UNL     1       5.591   8.006  -0.417  0.00  0.00    -0.016 C 
ATOM     19  C   UNL     1       6.909   8.776  -0.542  0.00  0.00    -0.003 C 
ATOM     20  C   UNL     1       7.618   8.351  -1.832  0.00  0.00    -0.019 C 
ATOM     21  C   UNL     1       7.831   6.836  -1.815  0.00  0.00    -0.082 C 
ATOM     22  N   UNL     1       6.532   6.158  -1.722  0.00  0.00    +0.381 N 
ATOM     23  H   UNL     1       6.672   5.159  -1.766  0.00  0.00    -0.086 HD
ATOM     24  H   UNL     1       5.946   6.447  -2.490  0.00  0.00    -0.086 HD
ENDBRANCH  16  17
ENDBRANCH  15  16
ENDBRANCH   2  15
TORSDOF 5
