REMARK  Name = ZINC05935567
REMARK  8 active torsions:
REMARK  status: ('A' for Active; 'I' for Inactive)
REMARK    1  A    between atoms: C_1  and  C_2
REMARK    2  A    between atoms: C_2  and  N_3
REMARK    3  A    between atoms: C_4  and  N_27
REMARK    4  A    between atoms: C_5  and  N_12
REMARK    5  A    between atoms: N_15  and  C_18
REMARK    6  A    between atoms: C_23  and  O_24
REMARK    7  A    between atoms: O_24  and  C_25
REMARK    8  A    between atoms: C_25  and  C_26
REMARK                            x       y       z     vdW  Elec       q    Type
REMARK                         _______ _______ _______ _____ _____    ______ ____
ROOT
ATOM      1  N   UNL     1      -2.901   4.384   0.062  0.00  0.00    -0.320 N 
ATOM      2  C   UNL     1      -2.781   3.561   1.274  0.00  0.00    +0.124 C 
ATOM      3  C   UNL     1      -1.405   2.892   1.298  0.00  0.00    +0.124 C 
ATOM      4  N   UNL     1      -1.239   2.072   0.090  0.00  0.00    -0.324 N 
ATOM      5  C   UNL     1      -1.359   2.896  -1.121  0.00  0.00    +0.124 C 
ATOM      6  C   UNL     1      -2.735   3.565  -1.147  0.00  0.00    +0.124 C 
ENDROOT
BRANCH   1   9
ATOM      7  N   UNL     1      -5.375   7.095   0.015  0.00  0.00    -0.281 N 
ATOM      8  C   UNL     1      -4.162   6.445   0.042  0.00  0.00    +0.127 A 
ATOM      9  C   UNL     1      -4.134   5.077   0.040  0.00  0.00    +0.133 A 
ATOM     10  C   UNL     1      -5.349   4.370   0.021  0.00  0.00    +0.277 A 
ATOM     11  O   UNL     1      -5.350   3.150   0.024  0.00  0.00    -0.266 OA
ATOM     12  N   UNL     1      -6.513   5.048   0.000  0.00  0.00    -0.273 N 
ATOM     13  H   UNL     1      -7.379   4.547  -0.013  0.00  0.00    +0.173 HD
ATOM     14  C   UNL     1      -6.522   6.394  -0.003  0.00  0.00    +0.331 A 
ATOM     15  O   UNL     1      -7.585   6.985  -0.022  0.00  0.00    -0.246 OA
BRANCH   8  16
ATOM     16  N   UNL     1      -2.988   7.164   0.065  0.00  0.00    -0.343 N 
ATOM     17  H   UNL     1      -2.137   6.705  -0.014  0.00  0.00    +0.144 HD
ATOM     18  H   UNL     1      -3.013   8.129   0.161  0.00  0.00    +0.144 HD
ENDBRANCH   8  16
BRANCH   7  20
ATOM     19  C   UNL     1      -5.454   9.072   1.452  0.00  0.00    +0.027 C 
ATOM     20  C   UNL     1      -5.416   8.560   0.011  0.00  0.00    +0.125 C 
ENDBRANCH   7  20
ENDBRANCH   1   9
BRANCH   4  21
ATOM     21  C   UNL     1      -0.019   1.387   0.112  0.00  0.00    +0.072 A 
ATOM     22  C   UNL     1       1.174   2.092   0.170  0.00  0.00    +0.027 A 
ATOM     23  C   UNL     1       2.378   1.413   0.185  0.00  0.00    +0.002 A 
ATOM     24  C   UNL     1       2.396   0.031   0.143  0.00  0.00    +0.004 A 
ATOM     25  C   UNL     1       1.211  -0.679   0.086  0.00  0.00    +0.047 A 
ATOM     26  C   UNL     1       0.000  -0.006   0.070  0.00  0.00    +0.141 A 
BRANCH  26  27
ATOM     27  O   UNL     1      -1.167  -0.702   0.013  0.00  0.00    -0.490 OA
BRANCH  27  28
ATOM     28  C   UNL     1      -1.070  -2.127  -0.028  0.00  0.00    +0.226 C 
ATOM     29  C   UNL     1      -2.474  -2.732  -0.089  0.00  0.00    +0.048 C 
ENDBRANCH  27  28
ENDBRANCH  26  27
ENDBRANCH   4  21
TORSDOF 6
