REMARK  Name = ZINC55070166
REMARK  10 active torsions:
REMARK  status: ('A' for Active; 'I' for Inactive)
REMARK    1  A    between atoms: C_1  and  O_2
REMARK    2  A    between atoms: O_2  and  C_3
REMARK    3  A    between atoms: C_8  and  N_9
REMARK    4  A    between atoms: N_9  and  C_10
REMARK    5  A    between atoms: N_9  and  S_27
REMARK    6  A    between atoms: C_10  and  C_11
REMARK    7  A    between atoms: N_13  and  N_14
REMARK    8  A    between atoms: C_15  and  C_16
REMARK    9  A    between atoms: C_25  and  O_26
REMARK   10  A    between atoms: S_27  and  C_30
REMARK                            x       y       z     vdW  Elec       q    Type
REMARK                         _______ _______ _______ _____ _____    ______ ____
ROOT
ATOM      1  C   UNL     1      -1.282  -3.177   0.519  0.00  0.00    +0.229 C 
ENDROOT
BRANCH   1   2
ATOM      2  C   UNL     1      -2.270  -2.147   0.033  0.00  0.00    +0.251 C 
ATOM      3  O   UNL     1      -1.879  -1.062  -0.342  0.00  0.00    -0.272 OA
ATOM      4  N   UNL     1      -3.587  -2.433   0.015  0.00  0.00    -0.206 N 
ATOM      5  H   UNL     1      -3.899  -3.301   0.316  0.00  0.00    +0.177 HD
BRANCH   4   6
ATOM      6  N   UNL     1      -4.505  -1.476  -0.436  0.00  0.00    -0.188 NA
ATOM      7  C   UNL     1      -5.764  -1.781  -0.540  0.00  0.00    +0.142 C 
BRANCH   7   8
ATOM      8  C   UNL     1      -6.247  -3.081  -0.053  0.00  0.00    +0.044 A 
ATOM      9  C   UNL     1      -6.964  -3.992  -0.944  0.00  0.00    -0.006 A 
ATOM     10  C   UNL     1      -7.213  -3.661  -2.281  0.00  0.00    +0.009 A 
ATOM     11  C   UNL     1      -7.884  -4.539  -3.079  0.00  0.00    +0.001 A 
ATOM     12  C   UNL     1      -8.327  -5.763  -2.581  0.00  0.00    +0.001 A 
ATOM     13  C   UNL     1      -8.101  -6.116  -1.286  0.00  0.00    +0.008 A 
ATOM     14  C   UNL     1      -7.412  -5.235  -0.435  0.00  0.00    -0.017 A 
ATOM     15  C   UNL     1      -7.160  -5.566   0.908  0.00  0.00    +0.012 A 
ATOM     16  C   UNL     1      -6.492  -4.707   1.723  0.00  0.00    +0.046 A 
ATOM     17  C   UNL     1      -6.027  -3.474   1.267  0.00  0.00    +0.126 A 
BRANCH  17  18
ATOM     18  O   UNL     1      -5.360  -2.650   2.114  0.00  0.00    -0.506 OA
ATOM     19  H   UNL     1      -5.920  -1.988   2.541  0.00  0.00    +0.292 HD
ENDBRANCH  17  18
ENDBRANCH   7   8
ENDBRANCH   4   6
ENDBRANCH   1   2
BRANCH   1  20
ATOM     20  N   UNL     1       0.074  -2.628   0.440  0.00  0.00    -0.191 N 
BRANCH  20  26
ATOM     21  C   UNL     1       0.485  -0.459   1.431  0.00  0.00    +0.143 A 
ATOM     22  C   UNL     1       0.978   0.307   2.474  0.00  0.00    +0.047 A 
ATOM     23  C   UNL     1       1.562  -0.306   3.567  0.00  0.00    +0.004 A 
ATOM     24  C   UNL     1       1.657  -1.684   3.623  0.00  0.00    +0.002 A 
ATOM     25  C   UNL     1       1.168  -2.456   2.586  0.00  0.00    +0.028 A 
ATOM     26  C   UNL     1       0.575  -1.848   1.488  0.00  0.00    +0.093 A 
BRANCH  21  28
ATOM     27  C   UNL     1      -0.147   1.570   0.364  0.00  0.00    +0.277 C 
ATOM     28  O   UNL     1      -0.090   0.142   0.355  0.00  0.00    -0.493 OA
ENDBRANCH  21  28
ENDBRANCH  20  26
BRANCH  20  29
ATOM     29  S   UNL     1       1.013  -2.931  -0.890  0.00  0.00    +0.075 S 
ATOM     30  O   UNL     1       0.123  -3.221  -1.958  0.00  0.00    -0.150 OA
ATOM     31  O   UNL     1       1.969  -1.881  -0.959  0.00  0.00    -0.150 OA
BRANCH  29  32
ATOM     32  C   UNL     1       1.913  -4.411  -0.567  0.00  0.00    +0.109 A 
ATOM     33  C   UNL     1       3.150  -4.348   0.046  0.00  0.00    +0.029 A 
ATOM     34  C   UNL     1       3.856  -5.509   0.300  0.00  0.00    +0.002 A 
ATOM     35  C   UNL     1       3.323  -6.734  -0.059  0.00  0.00    +0.000 A 
ATOM     36  C   UNL     1       2.085  -6.797  -0.670  0.00  0.00    +0.002 A 
ATOM     37  C   UNL     1       1.378  -5.636  -0.920  0.00  0.00    +0.029 A 
ENDBRANCH  29  32
ENDBRANCH  20  29
ENDBRANCH   1  20
TORSDOF 9
