REMARK  Name = ZINC05837117
REMARK  11 active torsions:
REMARK  status: ('A' for Active; 'I' for Inactive)
REMARK    1  A    between atoms: C_1  and  C_2
REMARK    2  A    between atoms: C_2  and  C_3
REMARK    3  A    between atoms: C_3  and  O_4
REMARK    4  A    between atoms: O_4  and  C_5
REMARK    5  A    between atoms: C_8  and  C_11
REMARK    6  A    between atoms: C_18  and  N_33
REMARK    7  A    between atoms: C_19  and  C_31
REMARK    8  A    between atoms: C_20  and  C_22
REMARK    9  A    between atoms: C_25  and  N_28
REMARK   10  A    between atoms: N_28  and  C_29
REMARK   11  A    between atoms: N_28  and  C_30
REMARK                            x       y       z     vdW  Elec       q    Type
REMARK                         _______ _______ _______ _____ _____    ______ ____
ROOT
ATOM      1  C   UNL     1       3.357  -4.482   5.547  0.00  0.00    +0.074 A 
ATOM      2  C   UNL     1       4.223  -5.519   5.449  0.00  0.00    +0.054 A 
ATOM      3  C   UNL     1       4.640  -5.865   6.749  0.00  0.00    +0.245 A 
ATOM      4  N   UNL     1       4.050  -5.068   7.594  0.00  0.00    -0.135 NA
ATOM      5  N   UNL     1       3.238  -4.179   6.874  0.00  0.00    -0.273 N 
ATOM      6  H   UNL     1       2.687  -3.475   7.251  0.00  0.00    +0.189 HD
ATOM      7  O   UNL     1       5.516  -6.881   6.979  0.00  0.00    -0.421 OA
ATOM      8  C   UNL     1       5.769  -7.726   5.959  0.00  0.00    +0.201 C 
ATOM      9  C   UNL     1       5.429  -7.496   4.674  0.00  0.00    +0.098 C 
ATOM     10  C   UNL     1       4.718  -6.244   4.223  0.00  0.00    +0.102 C 
ENDROOT
BRANCH   1  14
ATOM     11  C   UNL     1       1.394  -2.524   2.325  0.00  0.00    +0.121 A 
ATOM     12  C   UNL     1       1.981  -1.775   3.337  0.00  0.00    +0.046 A 
ATOM     13  C   UNL     1       2.619  -2.407   4.383  0.00  0.00    +0.013 A 
ATOM     14  C   UNL     1       2.673  -3.800   4.426  0.00  0.00    +0.000 A 
ATOM     15  C   UNL     1       2.082  -4.550   3.408  0.00  0.00    +0.013 A 
ATOM     16  C   UNL     1       1.441  -3.911   2.367  0.00  0.00    +0.046 A 
BRANCH  11  17
ATOM     17  O   UNL     1       0.766  -1.898   1.296  0.00  0.00    -0.492 OA
BRANCH  17  18
ATOM     18  C   UNL     1       0.755  -0.469   1.315  0.00  0.00    +0.229 C 
BRANCH  18  20
ATOM     19  C   UNL     1      -0.004   1.581   0.106  0.00  0.00    +0.007 C 
ATOM     20  C   UNL     1       0.009   0.051   0.085  0.00  0.00    +0.038 C 
ENDBRANCH  18  20
ENDBRANCH  17  18
ENDBRANCH  11  17
ENDBRANCH   1  14
BRANCH  10  21
ATOM     21  C   UNL     1       5.674  -5.363   3.462  0.00  0.00    -0.034 A 
ATOM     22  C   UNL     1       6.834  -4.918   4.069  0.00  0.00    +0.006 A 
ATOM     23  C   UNL     1       7.713  -4.109   3.375  0.00  0.00    +0.023 A 
ATOM     24  C   UNL     1       7.430  -3.744   2.065  0.00  0.00    +0.029 A 
ATOM     25  C   UNL     1       6.264  -4.193   1.458  0.00  0.00    +0.023 A 
ATOM     26  C   UNL     1       5.393  -5.005   2.156  0.00  0.00    +0.006 A 
BRANCH  24  27
ATOM     27  N   UNL     1       8.316  -2.926   1.359  0.00  0.00    -0.336 N 
ATOM     28  C   UNL     1       9.480  -2.351   2.038  0.00  0.00    +0.129 C 
ATOM     29  C   UNL     1       8.081  -2.644  -0.059  0.00  0.00    +0.129 C 
ENDBRANCH  24  27
ENDBRANCH  10  21
BRANCH   8  30
ATOM     30  N   UNL     1       6.417  -8.900   6.249  0.00  0.00    -0.328 N 
ATOM     31  H   UNL     1       6.677  -9.099   7.162  0.00  0.00    +0.145 HD
ATOM     32  H   UNL     1       6.615  -9.532   5.540  0.00  0.00    +0.145 HD
ENDBRANCH   8  30
BRANCH   9  33
ATOM     33  C   UNL     1       5.757  -8.486   3.692  0.00  0.00    +0.101 C 
ATOM     34  N   UNL     1       6.018  -9.271   2.914  0.00  0.00    -0.191 NA
ENDBRANCH   9  33
TORSDOF 8
