REMARK  Name = ZINC15936391
REMARK  13 active torsions:
REMARK  status: ('A' for Active; 'I' for Inactive)
REMARK    1  A    between atoms: C_1  and  C_2
REMARK    2  A    between atoms: C_2  and  O_3
REMARK    3  A    between atoms: O_3  and  C_4
REMARK    4  A    between atoms: C_4  and  C_5
REMARK    5  A    between atoms: C_5  and  C_6
REMARK    6  A    between atoms: C_6  and  N_7
REMARK    7  A    between atoms: N_7  and  C_8
REMARK    8  A    between atoms: N_7  and  C_9
REMARK    9  A    between atoms: C_15  and  C_17
REMARK   10  A    between atoms: C_18  and  N_26
REMARK   11  A    between atoms: C_27  and  C_29
REMARK   12  A    between atoms: C_29  and  C_30
REMARK   13  A    between atoms: C_33  and  N_36
REMARK                            x       y       z     vdW  Elec       q    Type
REMARK                         _______ _______ _______ _____ _____    ______ ____
ROOT
ATOM      1  C   UNL     1       5.523  -9.153   2.539  0.00  0.00    +0.212 A 
ATOM      2  C   UNL     1       5.338 -10.439   2.110  0.00  0.00    +0.092 A 
ATOM      3  C   UNL     1       6.377 -10.679   1.101  0.00  0.00    +0.042 A 
ATOM      4  C   UNL     1       6.721 -11.771   0.303  0.00  0.00    +0.013 A 
ATOM      5  C   UNL     1       7.774 -11.673  -0.562  0.00  0.00    +0.001 A 
ATOM      6  C   UNL     1       8.503 -10.495  -0.652  0.00  0.00    +0.004 A 
ATOM      7  C   UNL     1       8.178  -9.406   0.128  0.00  0.00    +0.047 A 
ATOM      8  C   UNL     1       7.110  -9.483   1.015  0.00  0.00    +0.138 A 
ATOM      9  O   UNL     1       6.567  -8.603   1.879  0.00  0.00    -0.448 OA
ENDROOT
BRANCH   1  16
ATOM     10  C   UNL     1       1.871  -5.731   2.429  0.00  0.00    -0.066 C 
ATOM     11  C   UNL     1       2.417  -5.813   3.856  0.00  0.00    +0.004 C 
ATOM     12  C   UNL     1       2.684  -7.279   4.213  0.00  0.00    +0.106 C 
ATOM     13  N   UNL     1       3.569  -7.860   3.195  0.00  0.00    -0.295 N 
ATOM     14  C   UNL     1       3.182  -7.756   1.781  0.00  0.00    +0.106 C 
ATOM     15  C   UNL     1       2.909  -6.285   1.451  0.00  0.00    +0.004 C 
ATOM     16  C   UNL     1       4.713  -8.477   3.550  0.00  0.00    +0.284 C 
ATOM     17  O   UNL     1       5.072  -8.470   4.713  0.00  0.00    -0.267 OA
BRANCH  10  18
ATOM     18  N   UNL     1       1.583  -4.330   2.095  0.00  0.00    +0.380 N 
ATOM     19  C   UNL     1       0.586  -3.798   3.033  0.00  0.00    -0.096 C 
ATOM     20  H   UNL     1       2.430  -3.787   2.161  0.00  0.00    -0.082 HD
BRANCH  18  21
ATOM     21  C   UNL     1       1.057  -4.252   0.725  0.00  0.00    -0.077 C 
BRANCH  21  22
ATOM     22  C   UNL     1       0.874  -2.784   0.332  0.00  0.00    +0.009 C 
BRANCH  22  23
ATOM     23  C   UNL     1       0.326  -2.703  -1.094  0.00  0.00    +0.158 C 
BRANCH  23  24
ATOM     24  O   UNL     1       0.155  -1.332  -1.461  0.00  0.00    -0.380 OA
BRANCH  24  26
ATOM     25  C   UNL     1      -0.496   0.353  -3.065  0.00  0.00    +0.034 C 
ATOM     26  C   UNL     1      -0.354  -1.143  -2.782  0.00  0.00    +0.156 C 
ENDBRANCH  24  26
ENDBRANCH  23  24
ENDBRANCH  22  23
ENDBRANCH  21  22
ENDBRANCH  18  21
ENDBRANCH  10  18
ENDBRANCH   1  16
BRANCH   2  27
ATOM     27  N   UNL     1       4.366 -11.334   2.541  0.00  0.00    -0.282 N 
ATOM     28  C   UNL     1       3.953 -12.324   1.726  0.00  0.00    +0.222 C 
ATOM     29  O   UNL     1       4.378 -12.393   0.592  0.00  0.00    -0.275 OA
ATOM     30  H   UNL     1       3.986 -11.246   3.429  0.00  0.00    +0.155 HD
BRANCH  28  31
ATOM     31  C   UNL     1       2.961 -13.345   2.222  0.00  0.00    +0.131 C 
BRANCH  31  32
ATOM     32  C   UNL     1       2.667 -14.334   1.125  0.00  0.00    -0.038 A 
ATOM     33  C   UNL     1       1.634 -14.095   0.237  0.00  0.00    +0.006 A 
ATOM     34  C   UNL     1       1.364 -15.003  -0.770  0.00  0.00    +0.033 A 
ATOM     35  C   UNL     1       2.127 -16.150  -0.889  0.00  0.00    +0.126 A 
ATOM     36  C   UNL     1       3.160 -16.388  -0.002  0.00  0.00    +0.033 A 
ATOM     37  C   UNL     1       3.433 -15.478   1.002  0.00  0.00    +0.006 A 
BRANCH  35  38
ATOM     38  N   UNL     1       1.837 -17.122  -1.967  0.00  0.00    +0.056 N 
ATOM     39  O   UNL     1       0.933 -16.914  -2.742  0.00  0.00    -0.126 OA
ATOM     40  O   UNL     1       2.504 -18.125  -2.071  0.00  0.00    -0.126 OA
ENDBRANCH  35  38
ENDBRANCH  31  32
ENDBRANCH  28  31
ENDBRANCH   2  27
TORSDOF 11
