REMARK  Name = ZINC50037016
REMARK  4 active torsions:
REMARK  status: ('A' for Active; 'I' for Inactive)
REMARK    1  A    between atoms: C_1  and  C_2
REMARK    2  A    between atoms: C_8  and  N_10
REMARK    3  A    between atoms: C_11  and  C_15
REMARK    4  A    between atoms: C_20  and  N_21
REMARK                            x       y       z     vdW  Elec       q    Type
REMARK                         _______ _______ _______ _____ _____    ______ ____
ROOT
ATOM      1  N   UNL     1       2.196  -0.055   1.283  0.00  0.00    -0.222 N 
ATOM      2  C   UNL     1       2.731   0.846   2.146  0.00  0.00    +0.184 A 
ATOM      3  N   UNL     1       3.968   1.069   1.752  0.00  0.00    -0.108 NA
ATOM      4  N   UNL     1       4.239   0.372   0.707  0.00  0.00    -0.023 NA
ATOM      5  N   UNL     1       3.220  -0.339   0.364  0.00  0.00    -0.043 NA
ENDROOT
BRANCH   2   6
ATOM      6  C   UNL     1       2.054   1.460   3.307  0.00  0.00    +0.044 A 
ATOM      7  C   UNL     1       1.358   0.661   4.215  0.00  0.00    +0.054 A 
ATOM      8  C   UNL     1       0.728   1.240   5.299  0.00  0.00    +0.159 A 
ATOM      9  C   UNL     1       0.783   2.615   5.489  0.00  0.00    +0.160 A 
ATOM     10  C   UNL     1       1.470   3.415   4.594  0.00  0.00    +0.064 A 
ATOM     11  C   UNL     1       2.114   2.846   3.504  0.00  0.00    +0.038 A 
ATOM     12  F   UNL     1       0.164   3.172   6.551  0.00  0.00    -0.202 F 
ATOM     13  F   UNL     1       0.054   0.466   6.178  0.00  0.00    -0.202 F 
BRANCH  11  14
ATOM     14  N   UNL     1       2.811   3.651   2.605  0.00  0.00    -0.357 N 
ATOM     15  H   UNL     1       3.179   3.267   1.794  0.00  0.00    +0.142 HD
ATOM     16  H   UNL     1       2.928   4.596   2.790  0.00  0.00    +0.142 HD
ENDBRANCH  11  14
ENDBRANCH   2   6
BRANCH   1  23
ATOM     17  C   UNL     1       0.054   1.218  -0.195  0.00  0.00    +0.009 C 
ATOM     18  C   UNL     1       0.134  -0.299  -0.010  0.00  0.00    +0.011 C 
ATOM     19  C   UNL     1       0.919  -0.913  -1.171  0.00  0.00    +0.005 C 
ATOM     20  C   UNL     1       0.999  -2.430  -0.987  0.00  0.00    +0.000 C 
ATOM     21  C   UNL     1       1.707  -2.746   0.332  0.00  0.00    +0.002 C 
ATOM     22  C   UNL     1       0.922  -2.132   1.493  0.00  0.00    +0.027 C 
ATOM     23  C   UNL     1       0.842  -0.615   1.308  0.00  0.00    +0.114 C 
ENDBRANCH   1  23
TORSDOF 3
