REMARK  Name = ZINC63166527
REMARK  8 active torsions:
REMARK  status: ('A' for Active; 'I' for Inactive)
REMARK    1  A    between atoms: C_4  and  C_7
REMARK    2  A    between atoms: C_7  and  C_8
REMARK    3  A    between atoms: C_7  and  C_14
REMARK    4  A    between atoms: N_16  and  C_17
REMARK    5  A    between atoms: C_17  and  C_19
REMARK    6  A    between atoms: C_17  and  C_29
REMARK    7  A    between atoms: C_19  and  C_20
REMARK    8  A    between atoms: N_31  and  C_32
REMARK                            x       y       z     vdW  Elec       q    Type
REMARK                         _______ _______ _______ _____ _____    ______ ____
ROOT
ATOM      1  C   UNL     1       3.617  -2.365  -3.370  0.00  0.00    +0.163 C 
ENDROOT
BRANCH   1   4
ATOM      2  C   UNL     1       3.979  -2.094  -0.976  0.00  0.00    +0.225 C 
ATOM      3  O   UNL     1       4.186  -3.287  -0.901  0.00  0.00    -0.275 OA
ATOM      4  N   UNL     1       3.686  -1.534  -2.166  0.00  0.00    -0.303 N 
ATOM      5  H   UNL     1       3.521  -0.580  -2.225  0.00  0.00    +0.149 HD
BRANCH   2   6
ATOM      6  C   UNL     1       4.050  -1.238   0.263  0.00  0.00    +0.135 C 
BRANCH   6  10
ATOM      7  C   UNL     1       0.271   0.645   0.913  0.00  0.00    +0.000 A 
ATOM      8  C   UNL     1       0.339  -0.723   0.723  0.00  0.00    +0.000 A 
ATOM      9  C   UNL     1       1.561  -1.332   0.513  0.00  0.00    +0.005 A 
ATOM     10  C   UNL     1       2.717  -0.574   0.492  0.00  0.00    -0.031 A 
ATOM     11  C   UNL     1       2.650   0.794   0.681  0.00  0.00    +0.005 A 
ATOM     12  C   UNL     1       1.427   1.403   0.893  0.00  0.00    +0.000 A 
ENDBRANCH   6  10
BRANCH   6  13
ATOM     13  C   UNL     1       4.392  -2.100   1.451  0.00  0.00    -0.031 A 
ATOM     14  C   UNL     1       3.636  -3.223   1.730  0.00  0.00    +0.005 A 
ATOM     15  C   UNL     1       3.949  -4.014   2.819  0.00  0.00    +0.000 A 
ATOM     16  C   UNL     1       5.019  -3.683   3.629  0.00  0.00    +0.000 A 
ATOM     17  C   UNL     1       5.776  -2.560   3.349  0.00  0.00    +0.000 A 
ATOM     18  C   UNL     1       5.465  -1.772   2.257  0.00  0.00    +0.005 A 
ENDBRANCH   6  13
ENDBRANCH   2   6
ENDBRANCH   1   4
BRANCH   1  19
ATOM     19  C   UNL     1       2.243  -2.975  -3.481  0.00  0.00    +0.238 C 
ATOM     20  O   UNL     1       1.404  -2.738  -2.638  0.00  0.00    -0.273 OA
ATOM     21  N   UNL     1       1.947  -3.784  -4.518  0.00  0.00    -0.284 N 
ATOM     22  H   UNL     1       2.637  -4.031  -5.153  0.00  0.00    +0.155 HD
BRANCH  21  23
ATOM     23  C   UNL     1       0.643  -4.266  -4.678  0.00  0.00    +0.033 A 
ATOM     24  C   UNL     1       0.430  -5.532  -5.208  0.00  0.00    +0.023 A 
ATOM     25  C   UNL     1      -0.858  -6.005  -5.366  0.00  0.00    +0.002 A 
ATOM     26  C   UNL     1      -1.935  -5.220  -4.996  0.00  0.00    +0.000 A 
ATOM     27  C   UNL     1      -1.726  -3.958  -4.469  0.00  0.00    +0.002 A 
ATOM     28  C   UNL     1      -0.440  -3.482  -4.303  0.00  0.00    +0.023 A 
ENDBRANCH  21  23
ENDBRANCH   1  19
BRANCH   1  29
ATOM     29  C   UNL     1       3.894  -1.503  -4.602  0.00  0.00    +0.065 C 
BRANCH  29  30
ATOM     30  C   UNL     1       5.311  -0.993  -4.551  0.00  0.00    -0.039 C 
ATOM     31  C   UNL     1       6.395  -1.542  -5.145  0.00  0.00    -0.001 A 
ATOM     32  C   UNL     1       6.572  -2.733  -5.984  0.00  0.00    +0.010 A 
ATOM     33  C   UNL     1       7.809  -3.035  -6.442  0.00  0.00    +0.001 A 
ATOM     34  C   UNL     1       8.922  -2.240  -6.136  0.00  0.00    +0.002 A 
ATOM     35  C   UNL     1       8.838  -1.131  -5.371  0.00  0.00    +0.026 A 
ATOM     36  C   UNL     1       7.587  -0.719  -4.837  0.00  0.00    +0.043 A 
ATOM     37  N   UNL     1       7.252   0.299  -4.081  0.00  0.00    -0.380 N 
ATOM     38  C   UNL     1       5.808   0.240  -3.830  0.00  0.00    +0.144 C 
ATOM     39  H   UNL     1       7.858   0.979  -3.748  0.00  0.00    +0.160 HD
ENDBRANCH  29  30
ENDBRANCH   1  29
TORSDOF 8
