REMARK  Name = ZINC20271091
REMARK  11 active torsions:
REMARK  status: ('A' for Active; 'I' for Inactive)
REMARK    1  A    between atoms: C_1  and  C_2
REMARK    2  A    between atoms: C_2  and  C_4
REMARK    3  A    between atoms: C_8  and  C_11
REMARK    4  A    between atoms: C_11  and  N_12
REMARK    5  A    between atoms: C_15  and  C_18
REMARK    6  A    between atoms: C_18  and  C_29
REMARK    7  A    between atoms: N_21  and  C_25
REMARK    8  A    between atoms: C_25  and  C_26
REMARK    9  A    between atoms: C_26  and  O_27
REMARK   10  A    between atoms: O_27  and  C_28
REMARK   11  A    between atoms: C_29  and  C_30
REMARK                            x       y       z     vdW  Elec       q    Type
REMARK                         _______ _______ _______ _____ _____    ______ ____
ROOT
ATOM      1  C   UNL     1      -0.095   5.866  -1.409  0.00  0.00    +0.119 C 
ATOM      2  C   UNL     1      -1.322   5.358  -2.139  0.00  0.00    +0.247 C 
ATOM      3  O   UNL     1      -2.482   5.571  -1.859  0.00  0.00    -0.273 OA
ATOM      4  N   UNL     1      -0.855   4.618  -3.165  0.00  0.00    -0.222 N 
ATOM      5  C   UNL     1       0.483   4.589  -3.183  0.00  0.00    +0.309 C 
ATOM      6  O   UNL     1       1.134   3.986  -4.014  0.00  0.00    -0.252 OA
ATOM      7  N   UNL     1       1.026   5.301  -2.179  0.00  0.00    -0.284 N 
ATOM      8  H   UNL     1       2.063   5.507  -1.874  0.00  0.00    +0.151 HD
ENDROOT
BRANCH   1  12
ATOM      9  N   UNL     1      -1.323   9.908  -2.055  0.00  0.00    +0.382 N 
ATOM     10  C   UNL     1      -0.209   9.422  -2.880  0.00  0.00    -0.078 C 
ATOM     11  C   UNL     1      -0.198   7.891  -2.871  0.00  0.00    -0.013 C 
ATOM     12  C   UNL     1      -0.046   7.395  -1.430  0.00  0.00    +0.018 C 
ATOM     13  C   UNL     1      -1.190   7.955  -0.581  0.00  0.00    -0.013 C 
ATOM     14  C   UNL     1      -1.174   9.484  -0.657  0.00  0.00    -0.078 C 
ATOM     15  H   UNL     1      -2.249   9.460  -2.445  0.00  0.00    -0.081 HD
BRANCH   9  16
ATOM     16  C   UNL     1      -1.450  11.369  -2.151  0.00  0.00    -0.048 C 
BRANCH  16  20
ATOM     17  C   UNL     1      -5.175  12.227  -0.187  0.00  0.00    +0.018 C 
ATOM     18  C   UNL     1      -5.078  12.621  -1.666  0.00  0.00    +0.012 C 
ATOM     19  C   UNL     1      -3.990  11.769  -2.324  0.00  0.00    +0.029 C 
ATOM     20  C   UNL     1      -2.736  11.805  -1.500  0.00  0.00    -0.090 C 
ATOM     21  C   UNL     1      -2.692  12.183  -0.263  0.00  0.00    -0.029 C 
ATOM     22  C   UNL     1      -3.885  12.658   0.514  0.00  0.00    +0.035 C 
BRANCH  17  24
ATOM     23  C   UNL     1      -6.416  14.428   0.468  0.00  0.00    +0.039 C 
ATOM     24  C   UNL     1      -6.353  12.922   0.446  0.00  0.00    -0.076 C 
ATOM     25  C   UNL     1      -7.321  12.218   0.977  0.00  0.00    +0.007 C 
ENDBRANCH  17  24
ENDBRANCH  16  20
ENDBRANCH   9  16
ENDBRANCH   1  12
BRANCH   4  26
ATOM     26  C   UNL     1      -1.706   3.931  -4.138  0.00  0.00    +0.146 C 
BRANCH  26  27
ATOM     27  C   UNL     1      -2.017   2.519  -3.638  0.00  0.00    +0.179 C 
BRANCH  27  28
ATOM     28  O   UNL     1      -2.796   2.598  -2.443  0.00  0.00    -0.381 OA
ATOM     29  C   UNL     1      -3.142   1.327  -1.889  0.00  0.00    +0.194 C 
ENDBRANCH  27  28
ENDBRANCH  26  27
ENDBRANCH   4  26
BRANCH   1  30
ATOM     30  C   UNL     1      -0.073   5.349   0.031  0.00  0.00    +0.070 C 
BRANCH  30  31
ATOM     31  C   UNL     1      -0.051   3.842   0.023  0.00  0.00    -0.042 A 
ATOM     32  C   UNL     1      -1.238   3.133   0.031  0.00  0.00    +0.004 A 
ATOM     33  C   UNL     1      -1.219   1.751   0.017  0.00  0.00    +0.003 A 
ATOM     34  C   UNL     1      -0.013   1.076   0.008  0.00  0.00    +0.038 A 
ATOM     35  C   UNL     1       1.177   1.784   0.000  0.00  0.00    +0.124 A 
ATOM     36  C   UNL     1       1.156   3.169   0.008  0.00  0.00    +0.042 A 
ATOM     37  F   UNL     1       2.356   1.126  -0.015  0.00  0.00    -0.205 F 
ENDBRANCH  30  31
ENDBRANCH   1  30
TORSDOF 9
