REMARK  Name = ZINC09846182
REMARK  7 active torsions:
REMARK  status: ('A' for Active; 'I' for Inactive)
REMARK    1  A    between atoms: C_1  and  C_2
REMARK    2  A    between atoms: C_2  and  C_3
REMARK    3  A    between atoms: C_9  and  C_11
REMARK    4  A    between atoms: C_14  and  N_17
REMARK    5  A    between atoms: N_17  and  C_18
REMARK    6  A    between atoms: C_18  and  N_20
REMARK    7  A    between atoms: C_21  and  C_23
REMARK                            x       y       z     vdW  Elec       q    Type
REMARK                         _______ _______ _______ _____ _____    ______ ____
ROOT
ATOM      1  N   UNL     1       7.282   5.214  -0.039  0.00  0.00    -0.297 N 
ATOM      2  H   UNL     1       6.775   5.807   0.538  0.00  0.00    +0.154 HD
ENDROOT
BRANCH   1   6
ATOM      3  C   UNL     1      11.447   5.247   0.085  0.00  0.00    +0.009 A 
ATOM      4  C   UNL     1      10.737   6.448   0.126  0.00  0.00    +0.012 A 
ATOM      5  C   UNL     1       9.360   6.434   0.084  0.00  0.00    +0.024 A 
ATOM      6  C   UNL     1       8.678   5.225   0.002  0.00  0.00    +0.033 A 
ATOM      7  C   UNL     1       9.382   4.027  -0.032  0.00  0.00    +0.024 A 
ATOM      8  C   UNL     1      10.760   4.035   0.003  0.00  0.00    +0.012 A 
BRANCH   3  15
ATOM      9  C   UNL     1      16.301   3.716   0.153  0.00  0.00    +0.155 A 
ATOM     10  N   UNL     1      17.299   4.552   0.226  0.00  0.00    -0.132 NA
ATOM     11  N   UNL     1      16.858   5.761   0.275  0.00  0.00    -0.120 NA
ATOM     12  C   UNL     1      15.560   5.749   0.235  0.00  0.00    +0.218 A 
ATOM     13  N   UNL     1      15.131   4.447   0.155  0.00  0.00    -0.190 N 
ATOM     14  N   UNL     1      13.757   4.248   0.104  0.00  0.00    -0.156 NA
ATOM     15  C   UNL     1      12.926   5.259   0.130  0.00  0.00    +0.132 A 
ATOM     16  S   UNL     1      14.034   6.656   0.227  0.00  0.00    -0.026 S 
BRANCH   9  18
ATOM     17  C   UNL     1      16.488   1.780  -1.386  0.00  0.00    +0.012 C 
ATOM     18  C   UNL     1      16.408   2.214   0.079  0.00  0.00    +0.075 C 
ENDBRANCH   9  18
ENDBRANCH   3  15
ENDBRANCH   1   6
BRANCH   1  19
ATOM     19  C   UNL     1       6.639   4.380  -0.880  0.00  0.00    +0.141 C 
ATOM     20  S   UNL     1       7.530   3.438  -1.998  0.00  0.00    -0.018 S 
BRANCH  19  21
ATOM     21  N   UNL     1       5.295   4.288  -0.842  0.00  0.00    -0.261 N 
ATOM     22  C   UNL     1       4.652   3.455  -1.683  0.00  0.00    +0.285 C 
ATOM     23  O   UNL     1       5.285   2.785  -2.477  0.00  0.00    -0.266 OA
ATOM     24  H   UNL     1       4.790   4.822  -0.208  0.00  0.00    +0.157 HD
BRANCH  22  25
ATOM     25  C   UNL     1       3.187   3.354  -1.641  0.00  0.00    +0.191 A 
ATOM     26  C   UNL     1       2.435   2.551  -2.438  0.00  0.00    +0.063 A 
ATOM     27  C   UNL     1       1.045   2.780  -2.047  0.00  0.00    +0.021 A 
ATOM     28  C   UNL     1      -0.184   2.270  -2.475  0.00  0.00    +0.011 A 
ATOM     29  C   UNL     1      -1.339   2.707  -1.891  0.00  0.00    +0.001 A 
ATOM     30  C   UNL     1      -1.298   3.644  -0.867  0.00  0.00    +0.004 A 
ATOM     31  C   UNL     1      -0.097   4.159  -0.430  0.00  0.00    +0.047 A 
ATOM     32  C   UNL     1       1.091   3.734  -1.014  0.00  0.00    +0.136 A 
ATOM     33  O   UNL     1       2.385   4.047  -0.806  0.00  0.00    -0.450 OA
ENDBRANCH  22  25
ENDBRANCH  19  21
ENDBRANCH   1  19
TORSDOF 6
