REMARK  Name = ZINC02398958
REMARK  7 active torsions:
REMARK  status: ('A' for Active; 'I' for Inactive)
REMARK    1  A    between atoms: C_1  and  C_2
REMARK    2  A    between atoms: C_10  and  C_18
REMARK    3  A    between atoms: C_25  and  C_28
REMARK    4  A    between atoms: C_31  and  O_36
REMARK    5  A    between atoms: C_33  and  O_34
REMARK    6  A    between atoms: O_34  and  C_35
REMARK    7  A    between atoms: O_36  and  C_37
REMARK                            x       y       z     vdW  Elec       q    Type
REMARK                         _______ _______ _______ _____ _____    ______ ____
ROOT
ATOM      1  C   UNL     1      -0.172   1.787   1.487  0.00  0.00    +0.044 C 
ATOM      2  C   UNL     1      -0.207   0.319   1.148  0.00  0.00    -0.050 A 
ATOM      3  C   UNL     1      -0.366  -0.082  -0.167  0.00  0.00    +0.007 A 
ATOM      4  C   UNL     1      -0.399  -1.425  -0.493  0.00  0.00    +0.046 A 
ATOM      5  C   UNL     1      -0.273  -2.379   0.501  0.00  0.00    +0.131 A 
ATOM      6  C   UNL     1      -0.112  -1.973   1.832  0.00  0.00    +0.043 A 
ATOM      7  C   UNL     1      -0.075  -0.623   2.151  0.00  0.00    +0.017 A 
ATOM      8  C   UNL     1       0.025  -3.021   2.876  0.00  0.00    +0.083 C 
ATOM      9  C   UNL     1       0.311  -4.273   2.465  0.00  0.00    +0.027 C 
ATOM     10  C   UNL     1       0.446  -5.354   3.516  0.00  0.00    +0.162 C 
ATOM     11  N   UNL     1       0.249  -4.926   4.906  0.00  0.00    -0.208 N 
ATOM     12  C   UNL     1      -0.035  -3.599   5.163  0.00  0.00    +0.237 C 
ATOM     13  N   UNL     1      -0.133  -2.724   4.189  0.00  0.00    -0.213 NA
ATOM     14  N   UNL     1      -0.165  -3.477   6.502  0.00  0.00    -0.205 NA
ATOM     15  C   UNL     1       0.017  -4.631   7.083  0.00  0.00    +0.203 C 
ATOM     16  N   UNL     1       0.279  -5.578   6.140  0.00  0.00    -0.251 N 
ATOM     17  C   UNL     1       0.498  -4.576   1.007  0.00  0.00    +0.238 C 
ATOM     18  O   UNL     1      -0.306  -3.704   0.210  0.00  0.00    -0.479 OA
ATOM     19  H   UNL     1       0.452  -6.519   6.296  0.00  0.00    +0.171 HD
ENDROOT
BRANCH  10  20
ATOM     20  C   UNL     1      -0.562  -6.432   3.212  0.00  0.00    +0.014 A 
ATOM     21  C   UNL     1      -1.815  -6.391   3.795  0.00  0.00    +0.008 A 
ATOM     22  C   UNL     1      -2.740  -7.380   3.517  0.00  0.00    +0.001 A 
ATOM     23  C   UNL     1      -2.413  -8.411   2.656  0.00  0.00    +0.003 A 
ATOM     24  C   UNL     1      -1.161  -8.454   2.073  0.00  0.00    +0.039 A 
ATOM     25  C   UNL     1      -0.236  -7.461   2.346  0.00  0.00    +0.129 A 
ATOM     26  F   UNL     1       0.987  -7.500   1.772  0.00  0.00    -0.205 F 
ENDBRANCH  10  20
BRANCH  17  27
ATOM     27  C   UNL     1       1.947  -4.385   0.640  0.00  0.00    +0.039 A 
ATOM     28  C   UNL     1       2.723  -3.479   1.338  0.00  0.00    +0.015 A 
ATOM     29  C   UNL     1       4.052  -3.302   1.004  0.00  0.00    +0.046 A 
ATOM     30  C   UNL     1       4.611  -4.034  -0.034  0.00  0.00    +0.124 A 
ATOM     31  C   UNL     1       3.835  -4.943  -0.735  0.00  0.00    +0.091 A 
ATOM     32  C   UNL     1       2.503  -5.123  -0.395  0.00  0.00    +0.131 A 
BRANCH  32  33
ATOM     33  O   UNL     1       1.742  -6.019  -1.077  0.00  0.00    -0.495 OA
ATOM     34  C   UNL     1       2.380  -6.744  -2.130  0.00  0.00    +0.277 C 
ENDBRANCH  32  33
BRANCH  30  35
ATOM     35  O   UNL     1       5.918  -3.859  -0.362  0.00  0.00    -0.495 OA
ATOM     36  C   UNL     1       6.657  -2.905   0.403  0.00  0.00    +0.277 C 
ENDBRANCH  30  35
ENDBRANCH  17  27
TORSDOF 4
