REMARK  Name = ZINC06197900
REMARK  13 active torsions:
REMARK  status: ('A' for Active; 'I' for Inactive)
REMARK    1  A    between atoms: C_1  and  C_2
REMARK    2  A    between atoms: C_2  and  C_3
REMARK    3  A    between atoms: C_10  and  C_15
REMARK    4  A    between atoms: C_15  and  C_17
REMARK    5  A    between atoms: C_15  and  N_70
REMARK    6  A    between atoms: N_21  and  C_22
REMARK    7  A    between atoms: C_22  and  C_23
REMARK    8  A    between atoms: C_22  and  C_24
REMARK    9  A    between atoms: C_22  and  C_25
REMARK   10  A    between atoms: C_26  and  C_27
REMARK   11  A    between atoms: C_26  and  N_70
REMARK   12  A    between atoms: C_32  and  C_33
REMARK   13  A    between atoms: C_32  and  N_70
REMARK                            x       y       z     vdW  Elec       q    Type
REMARK                         _______ _______ _______ _____ _____    ______ ____
ROOT
ATOM      1  C   UNL     1       0.668  -2.166   0.552  0.00  0.00    +0.039 C 
ENDROOT
BRANCH   1   9
ATOM      2  C   UNL     1       0.918   4.008   0.243  0.00  0.00    -0.047 A 
ATOM      3  C   UNL     1       0.152   4.252   1.375  0.00  0.00    +0.005 A 
ATOM      4  C   UNL     1      -0.357   3.209   2.118  0.00  0.00    +0.026 A 
ATOM      5  C   UNL     1      -0.103   1.897   1.730  0.00  0.00    +0.049 A 
ATOM      6  C   UNL     1       0.673   1.654   0.582  0.00  0.00    -0.001 A 
ATOM      7  C   UNL     1       1.175   2.729  -0.160  0.00  0.00    +0.013 A 
ATOM      8  C   UNL     1       0.935   0.270   0.182  0.00  0.00    +0.017 A 
ATOM      9  C   UNL     1       0.418  -0.731   0.936  0.00  0.00    +0.011 A 
ATOM     10  C   UNL     1      -0.354  -0.433   2.079  0.00  0.00    +0.251 A 
ATOM     11  O   UNL     1      -0.810  -1.348   2.743  0.00  0.00    -0.268 OA
ATOM     12  N   UNL     1      -0.600   0.835   2.454  0.00  0.00    -0.322 N 
ATOM     13  H   UNL     1      -1.152   1.009   3.270  0.00  0.00    +0.169 HD
BRANCH   2  15
ATOM     14  C   UNL     1       2.843   5.550  -0.013  0.00  0.00    +0.009 C 
ATOM     15  C   UNL     1       1.464   5.166  -0.552  0.00  0.00    +0.032 C 
ENDBRANCH   2  15
ENDBRANCH   1   9
BRANCH   1  16
ATOM     16  C   UNL     1       1.407  -2.214  -0.761  0.00  0.00    +0.143 A 
ATOM     17  N   UNL     1       2.667  -1.913  -0.961  0.00  0.00    -0.115 NA
ATOM     18  N   UNL     1       2.922  -2.079  -2.213  0.00  0.00    -0.023 NA
ATOM     19  N   UNL     1       1.857  -2.479  -2.816  0.00  0.00    -0.043 NA
ATOM     20  N   UNL     1       0.903  -2.579  -1.954  0.00  0.00    -0.225 N 
BRANCH  20  21
ATOM     21  C   UNL     1      -0.472  -3.006  -2.224  0.00  0.00    +0.059 C 
ATOM     22  C   UNL     1      -1.443  -1.910  -1.780  0.00  0.00    +0.036 C 
ATOM     23  C   UNL     1      -0.642  -3.262  -3.723  0.00  0.00    +0.036 C 
ATOM     24  C   UNL     1      -0.768  -4.293  -1.450  0.00  0.00    +0.036 C 
ENDBRANCH  20  21
ENDBRANCH   1  16
BRANCH   1  25
ATOM     25  N   UNL     1       1.460  -2.817   1.616  0.00  0.00    +0.394 N 
ATOM     26  H   UNL     1       0.921  -2.803   2.490  0.00  0.00    -0.080 HD
BRANCH  25  27
ATOM     27  C   UNL     1       1.741  -4.221   1.250  0.00  0.00    -0.034 C 
BRANCH  27  28
ATOM     28  C   UNL     1       2.192  -4.962   2.482  0.00  0.00    -0.027 A 
ATOM     29  C   UNL     1       1.445  -5.594   3.420  0.00  0.00    +0.009 A 
ATOM     30  C   UNL     1       2.082  -6.218   4.476  0.00  0.00    +0.008 A 
ATOM     31  C   UNL     1       3.434  -6.170   4.549  0.00  0.00    +0.045 A 
ATOM     32  S   UNL     1       3.850  -5.229   3.090  0.00  0.00    -0.103 S 
ENDBRANCH  27  28
ENDBRANCH  25  27
BRANCH  25  33
ATOM     33  C   UNL     1       2.728  -2.086   1.822  0.00  0.00    -0.045 C 
BRANCH  33  34
ATOM     34  C   UNL     1       2.469  -0.921   2.780  0.00  0.00    +0.102 C 
ATOM     35  C   UNL     1       3.784  -0.168   3.079  0.00  0.00    +0.032 C 
ATOM     36  C   UNL     1       3.664   0.222   4.569  0.00  0.00    +0.030 C 
ATOM     37  C   UNL     1       2.290  -0.342   4.994  0.00  0.00    +0.160 C 
ATOM     38  O   UNL     1       2.027  -1.414   4.063  0.00  0.00    -0.378 OA
ENDBRANCH  33  34
ENDBRANCH  25  33
ENDBRANCH   1  25
TORSDOF 9
