REMARK  Name = ZINC51151494
REMARK  8 active torsions:
REMARK  status: ('A' for Active; 'I' for Inactive)
REMARK    1  A    between atoms: C_1  and  C_2
REMARK    2  A    between atoms: C_3  and  C_17
REMARK    3  A    between atoms: C_7  and  N_15
REMARK    4  A    between atoms: C_9  and  C_11
REMARK    5  A    between atoms: C_11  and  C_12
REMARK    6  A    between atoms: C_12  and  O_13
REMARK    7  A    between atoms: O_13  and  C_14
REMARK    8  A    between atoms: N_15  and  N_16
REMARK                            x       y       z     vdW  Elec       q    Type
REMARK                         _______ _______ _______ _____ _____    ______ ____
ROOT
ATOM      1  C   UNL     1      -1.563   1.389   0.641  0.00  0.00    +0.045 C 
ATOM      2  C   UNL     1      -1.394  -0.106   0.572  0.00  0.00    -0.028 A 
ATOM      3  C   UNL     1      -2.038  -0.819  -0.364  0.00  0.00    -0.008 A 
ATOM      4  S   UNL     1      -1.524  -2.495  -0.038  0.00  0.00    -0.074 S 
ATOM      5  C   UNL     1      -0.459  -2.193   1.347  0.00  0.00    +0.114 A 
ATOM      6  C   UNL     1      -0.527  -0.792   1.514  0.00  0.00    +0.052 A 
ATOM      7  C   UNL     1       0.255  -0.267   2.579  0.00  0.00    +0.144 A 
ATOM      8  N   UNL     1       0.978  -1.093   3.318  0.00  0.00    -0.216 NA
ATOM      9  C   UNL     1       0.998  -2.396   3.100  0.00  0.00    +0.135 A 
ATOM     10  N   UNL     1       0.285  -2.944   2.135  0.00  0.00    -0.225 NA
ATOM     11  C   UNL     1      -2.973  -0.322  -1.436  0.00  0.00    +0.052 C 
ENDROOT
BRANCH   7  12
ATOM     12  N   UNL     1       0.262   1.092   2.839  0.00  0.00    -0.267 N 
ATOM     13  H   UNL     1       0.110   1.724   2.119  0.00  0.00    +0.167 HD
BRANCH  12  14
ATOM     14  N   UNL     1       0.482   1.543   4.109  0.00  0.00    -0.255 NA
ATOM     15  H   UNL     1       1.355   1.190   4.472  0.00  0.00    +0.140 HD
ATOM     16  H   UNL     1       0.458   2.551   4.144  0.00  0.00    +0.140 HD
ENDBRANCH  12  14
ENDBRANCH   7  12
BRANCH   9  17
ATOM     17  C   UNL     1       1.844  -3.278   3.982  0.00  0.00    +0.104 C 
BRANCH  17  18
ATOM     18  C   UNL     1       1.017  -3.744   5.182  0.00  0.00    +0.167 C 
BRANCH  18  19
ATOM     19  O   UNL     1       1.819  -4.579   6.018  0.00  0.00    -0.383 OA
ATOM     20  C   UNL     1       1.138  -5.071   7.174  0.00  0.00    +0.194 C 
ENDBRANCH  18  19
ENDBRANCH  17  18
ENDBRANCH   9  17
TORSDOF 5
