REMARK  Name = ZINC13768273
REMARK  13 active torsions:
REMARK  status: ('A' for Active; 'I' for Inactive)
REMARK    1  A    between atoms: C_1  and  O_2
REMARK    2  A    between atoms: O_2  and  C_3
REMARK    3  A    between atoms: C_6  and  C_11
REMARK    4  A    between atoms: C_8  and  O_9
REMARK    5  A    between atoms: O_9  and  C_10
REMARK    6  A    between atoms: C_11  and  C_12
REMARK    7  A    between atoms: C_12  and  N_13
REMARK    8  A    between atoms: C_19  and  C_29
REMARK    9  A    between atoms: C_24  and  O_28
REMARK   10  A    between atoms: C_32  and  O_37
REMARK   11  A    between atoms: C_33  and  O_35
REMARK   12  A    between atoms: O_35  and  C_36
REMARK   13  A    between atoms: O_37  and  C_38
REMARK                            x       y       z     vdW  Elec       q    Type
REMARK                         _______ _______ _______ _____ _____    ______ ____
ROOT
ATOM      1  N   UNL     1       0.016   7.652  -3.089  0.00  0.00    -0.318 N 
ATOM      2  C   UNL     1       0.049   8.984  -3.343  0.00  0.00    +0.204 A 
ATOM      3  N   UNL     1       0.672   9.464  -4.380  0.00  0.00    -0.202 NA
ATOM      4  C   UNL     1       1.308   8.672  -5.264  0.00  0.00    +0.229 A 
ATOM      5  C   UNL     1       1.315   7.322  -5.080  0.00  0.00    +0.066 A 
ATOM      6  C   UNL     1       0.650   6.782  -3.954  0.00  0.00    +0.115 A 
ATOM      7  C   UNL     1       2.012   6.404  -6.043  0.00  0.00    +0.091 C 
ATOM      8  C   UNL     1       2.984   7.176  -6.895  0.00  0.00    +0.007 A 
ATOM      9  C   UNL     1       3.974   6.499  -7.585  0.00  0.00    +0.012 A 
ATOM     10  C   UNL     1       4.874   7.192  -8.370  0.00  0.00    +0.046 A 
ATOM     11  C   UNL     1       4.787   8.574  -8.469  0.00  0.00    +0.120 A 
ATOM     12  C   UNL     1       3.797   9.255  -7.779  0.00  0.00    +0.092 A 
ATOM     13  C   UNL     1       2.893   8.556  -6.990  0.00  0.00    +0.138 A 
ATOM     14  O   UNL     1       1.930   9.235  -6.322  0.00  0.00    -0.437 OA
ATOM     15  H   UNL     1       0.200   5.030  -2.991  0.00  0.00    +0.157 HD
ATOM     16  N   UNL     1       0.670   5.453  -3.792  0.00  0.00    -0.384 N 
ATOM     17  H   UNL     1       1.160   4.860  -4.472  0.00  0.00    +0.157 HD
ENDROOT
BRANCH   7  18
ATOM     18  C   UNL     1       0.989   5.743  -6.931  0.00  0.00    -0.032 A 
ATOM     19  C   UNL     1       0.170   6.516  -7.733  0.00  0.00    +0.008 A 
ATOM     20  C   UNL     1      -0.770   5.914  -8.549  0.00  0.00    +0.050 A 
ATOM     21  C   UNL     1      -0.893   4.534  -8.564  0.00  0.00    +0.162 A 
ATOM     22  C   UNL     1      -0.069   3.757  -7.756  0.00  0.00    +0.162 A 
ATOM     23  C   UNL     1       0.875   4.366  -6.944  0.00  0.00    +0.054 A 
BRANCH  22  24
ATOM     24  O   UNL     1      -0.185   2.402  -7.767  0.00  0.00    -0.491 OA
ATOM     25  C   UNL     1       0.694   1.668  -6.912  0.00  0.00    +0.277 C 
ENDBRANCH  22  24
BRANCH  21  26
ATOM     26  O   UNL     1      -1.816   3.941  -9.367  0.00  0.00    -0.491 OA
ATOM     27  C   UNL     1      -2.627   4.801 -10.169  0.00  0.00    +0.277 C 
ENDBRANCH  21  26
ENDBRANCH   7  18
BRANCH  11  28
ATOM     28  O   UNL     1       5.672   9.258  -9.241  0.00  0.00    -0.507 OA
ATOM     29  H   UNL     1       5.387   9.372 -10.158  0.00  0.00    +0.292 HD
ENDBRANCH  11  28
BRANCH   1  30
ATOM     30  C   UNL     1      -0.688   7.141  -1.910  0.00  0.00    +0.129 C 
BRANCH  30  31
ATOM     31  C   UNL     1       0.305   6.958  -0.761  0.00  0.00    +0.057 C 
BRANCH  31  35
ATOM     32  C   UNL     1      -1.759   5.472   2.676  0.00  0.00    +0.161 A 
ATOM     33  C   UNL     1      -1.629   6.837   2.480  0.00  0.00    +0.049 A 
ATOM     34  C   UNL     1      -0.962   7.314   1.366  0.00  0.00    +0.007 A 
ATOM     35  C   UNL     1      -0.420   6.432   0.451  0.00  0.00    -0.042 A 
ATOM     36  C   UNL     1      -0.541   5.069   0.644  0.00  0.00    +0.053 A 
ATOM     37  C   UNL     1      -1.208   4.583   1.758  0.00  0.00    +0.162 A 
BRANCH  32  39
ATOM     38  C   UNL     1      -2.959   5.970   4.668  0.00  0.00    +0.277 C 
ATOM     39  O   UNL     1      -2.419   5.000   3.768  0.00  0.00    -0.491 OA
ENDBRANCH  32  39
BRANCH  37  40
ATOM     40  O   UNL     1      -1.328   3.243   1.950  0.00  0.00    -0.491 OA
ATOM     41  C   UNL     1      -0.743   2.391   0.963  0.00  0.00    +0.277 C 
ENDBRANCH  37  40
ENDBRANCH  31  35
ENDBRANCH  30  31
ENDBRANCH   1  30
TORSDOF 9
