REMARK  Name = ZINC00994436
REMARK  3 active torsions:
REMARK  status: ('A' for Active; 'I' for Inactive)
REMARK    1  A    between atoms: C_1  and  S_2
REMARK    2  A    between atoms: S_2  and  C_3
REMARK    3  A    between atoms: C_16  and  C_19
REMARK                            x       y       z     vdW  Elec       q    Type
REMARK                         _______ _______ _______ _____ _____    ______ ____
ROOT
ATOM      1  C   UNL     1       2.440   1.336  -0.084  0.00  0.00    +0.212 A 
ATOM      2  N   UNL     1       2.503   0.008  -0.114  0.00  0.00    -0.184 NA
ATOM      3  C   UNL     1       1.388  -0.695  -0.018  0.00  0.00    +0.248 A 
ATOM      4  C   UNL     1       0.160  -0.006   0.110  0.00  0.00    +0.156 A 
ATOM      5  N   UNL     1       0.167   1.318   0.135  0.00  0.00    -0.141 NA
ATOM      6  N   UNL     1       1.278   1.964   0.041  0.00  0.00    -0.122 NA
ATOM      7  C   UNL     1      -1.101  -0.771   0.208  0.00  0.00    +0.028 A 
ATOM      8  C   UNL     1      -2.054  -0.483   1.176  0.00  0.00    +0.012 A 
ATOM      9  C   UNL     1      -3.228  -1.211   1.221  0.00  0.00    +0.001 A 
ATOM     10  C   UNL     1      -3.459  -2.224   0.306  0.00  0.00    +0.002 A 
ATOM     11  C   UNL     1      -2.515  -2.526  -0.658  0.00  0.00    +0.024 A 
ATOM     12  C   UNL     1      -1.332  -1.812  -0.711  0.00  0.00    +0.039 A 
ATOM     13  N   UNL     1      -0.348  -2.105  -1.659  0.00  0.00    -0.305 N 
ATOM     14  C   UNL     1       0.909  -2.693  -1.206  0.00  0.00    +0.295 C 
ATOM     15  O   UNL     1       1.403  -2.049  -0.037  0.00  0.00    -0.449 OA
ATOM     16  H   UNL     1      -0.497  -1.921  -2.600  0.00  0.00    +0.150 HD
ENDROOT
BRANCH  14  17
ATOM     17  C   UNL     1       0.686  -4.153  -0.906  0.00  0.00    +0.025 A 
ATOM     18  C   UNL     1       0.450  -4.563   0.393  0.00  0.00    +0.010 A 
ATOM     19  C   UNL     1       0.245  -5.902   0.668  0.00  0.00    +0.001 A 
ATOM     20  C   UNL     1       0.276  -6.831  -0.355  0.00  0.00    +0.001 A 
ATOM     21  C   UNL     1       0.512  -6.422  -1.654  0.00  0.00    +0.016 A 
ATOM     22  C   UNL     1       0.712  -5.081  -1.931  0.00  0.00    +0.026 A 
ATOM     23 BR   UNL     1       1.028  -4.520  -3.709  0.00  0.00    -0.050 Br
ENDBRANCH  14  17
BRANCH   1  25
ATOM     24  C   UNL     1       3.244   3.951  -0.115  0.00  0.00    +0.093 C 
ATOM     25  S   UNL     1       3.924   2.277  -0.211  0.00  0.00    -0.088 S 
ENDBRANCH   1  25
TORSDOF 2
