REMARK  Name = ZINC33937218
REMARK  12 active torsions:
REMARK  status: ('A' for Active; 'I' for Inactive)
REMARK    1  A    between atoms: C_1  and  C_2
REMARK    2  A    between atoms: C_2  and  C_3
REMARK    3  A    between atoms: C_10  and  C_15
REMARK    4  A    between atoms: C_15  and  N_16
REMARK    5  A    between atoms: N_16  and  C_17
REMARK    6  A    between atoms: N_16  and  C_24
REMARK    7  A    between atoms: C_17  and  C_18
REMARK    8  A    between atoms: C_24  and  C_26
REMARK    9  A    between atoms: C_24  and  C_37
REMARK   10  A    between atoms: N_30  and  C_31
REMARK   11  A    between atoms: C_37  and  C_38
REMARK   12  A    between atoms: C_37  and  C_39
REMARK                            x       y       z     vdW  Elec       q    Type
REMARK                         _______ _______ _______ _____ _____    ______ ____
ROOT
ATOM      1  N   UNL     1      -6.091  -3.824  -3.862  0.00  0.00    +0.391 N 
ATOM      2  H   UNL     1      -5.091  -3.736  -3.965  0.00  0.00    -0.080 HD
ENDROOT
BRANCH   1   3
ATOM      3  C   UNL     1      -6.627  -2.608  -3.235  0.00  0.00    -0.036 C 
BRANCH   3  11
ATOM      4  C   UNL     1      -2.369  -0.114   0.499  0.00  0.00    -0.047 A 
ATOM      5  C   UNL     1      -2.785  -0.755   1.658  0.00  0.00    +0.005 A 
ATOM      6  C   UNL     1      -3.856  -1.622   1.638  0.00  0.00    +0.026 A 
ATOM      7  C   UNL     1      -4.529  -1.859   0.444  0.00  0.00    +0.049 A 
ATOM      8  C   UNL     1      -4.105  -1.207  -0.730  0.00  0.00    -0.001 A 
ATOM      9  C   UNL     1      -3.019  -0.327  -0.684  0.00  0.00    +0.013 A 
ATOM     10  C   UNL     1      -4.820  -1.463  -1.981  0.00  0.00    +0.017 A 
ATOM     11  C   UNL     1      -5.869  -2.322  -1.964  0.00  0.00    +0.001 A 
ATOM     12  C   UNL     1      -6.254  -2.950  -0.760  0.00  0.00    +0.251 A 
ATOM     13  O   UNL     1      -7.200  -3.719  -0.767  0.00  0.00    -0.268 OA
ATOM     14  N   UNL     1      -5.603  -2.721   0.394  0.00  0.00    -0.322 N 
ATOM     15  H   UNL     1      -5.894  -3.170   1.204  0.00  0.00    +0.169 HD
BRANCH   4  17
ATOM     16  C   UNL     1      -1.691   2.244   0.856  0.00  0.00    +0.009 C 
ATOM     17  C   UNL     1      -1.196   0.830   0.547  0.00  0.00    +0.032 C 
ENDBRANCH   4  17
ENDBRANCH   3  11
ENDBRANCH   1   3
BRANCH   1  18
ATOM     18  C   UNL     1      -6.396  -4.986  -3.016  0.00  0.00    -0.045 C 
BRANCH  18  19
ATOM     19  C   UNL     1      -5.741  -6.234  -3.609  0.00  0.00    +0.102 C 
ATOM     20  C   UNL     1      -6.049  -7.459  -2.721  0.00  0.00    +0.032 C 
ATOM     21  C   UNL     1      -4.703  -8.233  -2.749  0.00  0.00    +0.030 C 
ATOM     22  C   UNL     1      -3.691  -7.061  -2.813  0.00  0.00    +0.160 C 
ATOM     23  O   UNL     1      -4.319  -6.068  -3.642  0.00  0.00    -0.378 OA
ENDBRANCH  18  19
ENDBRANCH   1  18
BRANCH   1  24
ATOM     24  C   UNL     1      -6.707  -4.005  -5.184  0.00  0.00    +0.006 C 
BRANCH  24  25
ATOM     25  C   UNL     1      -8.124  -3.494  -5.152  0.00  0.00    +0.139 A 
ATOM     26  N   UNL     1      -8.516  -2.297  -4.789  0.00  0.00    -0.115 NA
ATOM     27  N   UNL     1      -9.799  -2.248  -4.901  0.00  0.00    -0.023 NA
ATOM     28  N   UNL     1     -10.235  -3.382  -5.326  0.00  0.00    -0.044 NA
ATOM     29  N   UNL     1      -9.232  -4.175  -5.498  0.00  0.00    -0.228 N 
BRANCH  29  30
ATOM     30  C   UNL     1      -9.289  -5.558  -5.977  0.00  0.00    +0.111 C 
ATOM     31  C   UNL     1      -9.906  -5.589  -7.376  0.00  0.00    +0.027 C 
ATOM     32  C   UNL     1      -9.966  -7.034  -7.876  0.00  0.00    +0.002 C 
ATOM     33  C   UNL     1     -10.823  -7.869  -6.922  0.00  0.00    +0.000 C 
ATOM     34  C   UNL     1     -10.205  -7.838  -5.523  0.00  0.00    +0.002 C 
ATOM     35  C   UNL     1     -10.146  -6.393  -5.023  0.00  0.00    +0.027 C 
ENDBRANCH  29  30
ENDBRANCH  24  25
BRANCH  24  36
ATOM     36  C   UNL     1      -5.906  -3.227  -6.230  0.00  0.00    -0.024 C 
ATOM     37  C   UNL     1      -6.532  -3.436  -7.610  0.00  0.00    +0.006 C 
ATOM     38  C   UNL     1      -5.925  -1.737  -5.881  0.00  0.00    +0.006 C 
ENDBRANCH  24  36
ENDBRANCH   1  24
TORSDOF 9
