REMARK  Name = ZINC12579655
REMARK  4 active torsions:
REMARK  status: ('A' for Active; 'I' for Inactive)
REMARK    1  A    between atoms: C_4  and  O_38
REMARK    2  A    between atoms: C_5  and  C_7
REMARK    3  A    between atoms: N_32  and  C_35
REMARK    4  A    between atoms: C_35  and  C_36
REMARK                            x       y       z     vdW  Elec       q    Type
REMARK                         _______ _______ _______ _____ _____    ______ ____
ROOT
ATOM      1  C   UNL     1      -0.360   0.054  -0.021  0.00  0.00    +0.066 C 
ATOM      2  C   UNL     1      -0.895   1.463  -0.045  0.00  0.00    +0.032 A 
ATOM      3  C   UNL     1      -0.227   2.638  -0.072  0.00  0.00    +0.087 A 
ATOM      4  N   UNL     1      -1.007   3.770  -0.101  0.00  0.00    -0.311 N 
ATOM      5  H   UNL     1      -0.587   4.644  -0.130  0.00  0.00    +0.170 HD
ATOM      6  C   UNL     1      -2.351   3.674  -0.090  0.00  0.00    +0.289 A 
ATOM      7  O   UNL     1      -3.182   4.565  -0.107  0.00  0.00    -0.260 OA
ATOM      8  S   UNL     1      -2.599   1.956  -0.051  0.00  0.00    -0.030 S 
ATOM      9  S   UNL     1       1.562   2.693  -0.068  0.00  0.00    -0.103 S 
ATOM     10  C   UNL     1       1.933   0.993   0.430  0.00  0.00    +0.061 C 
ATOM     11  C   UNL     1       1.056   0.090  -0.467  0.00  0.00    +0.019 C 
ATOM     12  C   UNL     1       1.897  -1.143  -0.776  0.00  0.00    +0.007 C 
ATOM     13  C   UNL     1       3.080  -1.041   0.244  0.00  0.00    +0.010 C 
ATOM     14  C   UNL     1       3.349   0.508   0.054  0.00  0.00    +0.015 C 
ATOM     15  C   UNL     1       3.506   0.564  -1.493  0.00  0.00    +0.092 C 
ATOM     16  C   UNL     1       2.674  -0.627  -2.054  0.00  0.00    +0.091 C 
ATOM     17  C   UNL     1       3.721  -1.641  -2.434  0.00  0.00    +0.226 C 
ATOM     18  O   UNL     1       3.500  -2.773  -2.807  0.00  0.00    -0.275 OA
ATOM     19  N   UNL     1       4.936  -1.095  -2.294  0.00  0.00    -0.231 N 
ATOM     20  C   UNL     1       4.937   0.172  -1.810  0.00  0.00    +0.226 C 
ATOM     21  O   UNL     1       5.909   0.880  -1.652  0.00  0.00    -0.275 OA
ENDROOT
BRANCH   1  26
ATOM     22  C   UNL     1      -0.741  -2.350   2.866  0.00  0.00    +0.001 A 
ATOM     23  C   UNL     1      -0.586  -1.508   3.952  0.00  0.00    +0.004 A 
ATOM     24  C   UNL     1      -0.356  -0.161   3.756  0.00  0.00    +0.046 A 
ATOM     25  C   UNL     1      -0.282   0.349   2.468  0.00  0.00    +0.121 A 
ATOM     26  C   UNL     1      -0.439  -0.496   1.380  0.00  0.00    +0.002 A 
ATOM     27  C   UNL     1      -0.673  -1.843   1.581  0.00  0.00    +0.008 A 
BRANCH  25  28
ATOM     28  O   UNL     1      -0.057   1.675   2.273  0.00  0.00    -0.506 OA
ATOM     29  H   UNL     1      -0.862   2.201   2.173  0.00  0.00    +0.292 HD
ENDBRANCH  25  28
ENDBRANCH   1  26
BRANCH  19  30
ATOM     30  C   UNL     1       6.169  -1.806  -2.642  0.00  0.00    +0.241 C 
BRANCH  30  31
ATOM     31  C   UNL     1       6.514  -1.537  -4.084  0.00  0.00    +0.373 C 
ATOM     32  O   UNL     1       5.802  -0.825  -4.753  0.00  0.00    -0.245 OA
ATOM     33  O   UNL     1       7.611  -2.088  -4.626  0.00  0.00    -0.245 OA
ENDBRANCH  30  31
ENDBRANCH  19  30
TORSDOF 4
