REMARK  Name = ZINC08749966
REMARK  11 active torsions:
REMARK  status: ('A' for Active; 'I' for Inactive)
REMARK    1  A    between atoms: C_1  and  C_2
REMARK    2  A    between atoms: C_2  and  C_3
REMARK    3  A    between atoms: C_6  and  N_9
REMARK    4  A    between atoms: C_12  and  C_15
REMARK    5  A    between atoms: C_15  and  N_66
REMARK    6  A    between atoms: C_16  and  C_18
REMARK    7  A    between atoms: C_16  and  C_29
REMARK    8  A    between atoms: C_16  and  N_66
REMARK    9  A    between atoms: C_29  and  C_30
REMARK   10  A    between atoms: C_29  and  C_31
REMARK   11  A    between atoms: C_32  and  C_34
REMARK                            x       y       z     vdW  Elec       q    Type
REMARK                         _______ _______ _______ _____ _____    ______ ____
ROOT
ATOM      1  C   UNL     1      -2.779   6.368   7.755  0.00  0.00    -0.025 C 
ENDROOT
BRANCH   1   5
ATOM      2  N   UNL     1      -2.913   3.429   3.832  0.00  0.00    -0.219 N 
ATOM      3  C   UNL     1      -2.510   4.536   4.572  0.00  0.00    +0.172 A 
ATOM      4  N   UNL     1      -2.856   4.885   5.796  0.00  0.00    -0.231 NA
ATOM      5  C   UNL     1      -2.377   5.978   6.356  0.00  0.00    +0.034 A 
ATOM      6  C   UNL     1      -1.513   6.744   5.645  0.00  0.00    +0.070 A 
ATOM      7  S   UNL     1      -1.417   5.809   4.125  0.00  0.00    -0.060 S 
ATOM      8  C   UNL     1      -3.850   2.595   4.323  0.00  0.00    +0.223 C 
ATOM      9  O   UNL     1      -4.416   2.863   5.362  0.00  0.00    -0.275 OA
ATOM     10  C   UNL     1      -4.197   1.330   3.581  0.00  0.00    +0.110 C 
BRANCH   2  14
ATOM     11  C   UNL     1      -1.218   2.693   0.097  0.00  0.00    -0.048 A 
ATOM     12  C   UNL     1      -2.044   3.787   0.276  0.00  0.00    +0.005 A 
ATOM     13  C   UNL     1      -2.612   4.030   1.511  0.00  0.00    +0.024 A 
ATOM     14  C   UNL     1      -2.343   3.182   2.577  0.00  0.00    +0.043 A 
ATOM     15  C   UNL     1      -1.508   2.087   2.395  0.00  0.00    +0.024 A 
ATOM     16  C   UNL     1      -0.948   1.845   1.156  0.00  0.00    +0.005 A 
BRANCH  11  18
ATOM     17  C   UNL     1      -1.536   1.527  -2.068  0.00  0.00    +0.009 C 
ATOM     18  C   UNL     1      -0.605   2.426  -1.254  0.00  0.00    +0.032 C 
ENDBRANCH  11  18
ENDBRANCH   2  14
ENDBRANCH   1   5
BRANCH   1  19
ATOM     19  N   UNL     1      -4.045   7.123   7.701  0.00  0.00    +0.387 N 
ATOM     20  H   UNL     1      -4.752   6.565   7.209  0.00  0.00    -0.084 HD
ATOM     21  H   UNL     1      -3.892   8.005   7.197  0.00  0.00    -0.084 HD
BRANCH  19  22
ATOM     22  C   UNL     1      -4.523   7.421   9.065  0.00  0.00    -0.038 C 
BRANCH  22  23
ATOM     23  C   UNL     1      -6.025   7.544   9.047  0.00  0.00    -0.057 A 
ATOM     24  C   UNL     1      -6.651   8.183   7.992  0.00  0.00    +0.006 A 
ATOM     25  C   UNL     1      -8.029   8.300   7.969  0.00  0.00    +0.049 A 
ATOM     26  C   UNL     1      -8.780   7.775   9.007  0.00  0.00    +0.162 A 
ATOM     27  C   UNL     1      -8.152   7.134  10.065  0.00  0.00    +0.162 A 
ATOM     28  C   UNL     1      -6.773   7.013  10.083  0.00  0.00    +0.051 A 
ATOM     29  O   UNL     1      -8.901   6.620  11.083  0.00  0.00    -0.488 OA
ATOM     30  C   UNL     1      -9.719   5.496  10.752  0.00  0.00    +0.232 C 
ATOM     31  C   UNL     1     -11.043   5.950  10.156  0.00  0.00    +0.082 C 
ATOM     32  C   UNL     1     -10.864   6.663   8.825  0.00  0.00    +0.232 C 
ATOM     33  O   UNL     1     -10.141   7.884   8.997  0.00  0.00    -0.488 OA
ENDBRANCH  22  23
BRANCH  22  34
ATOM     34  C   UNL     1      -3.909   8.737   9.545  0.00  0.00    -0.027 C 
ATOM     35  C   UNL     1      -4.310   9.865   8.593  0.00  0.00    +0.006 C 
ATOM     36  C   UNL     1      -4.417   9.053  10.953  0.00  0.00    +0.006 C 
ENDBRANCH  22  34
ENDBRANCH  19  22
ENDBRANCH   1  19
TORSDOF 7
