REMARK  Name = ZINC48822900
REMARK  1 active torsions:
REMARK  status: ('A' for Active; 'I' for Inactive)
REMARK    1  A    between atoms: C_10  and  C_21
REMARK                            x       y       z     vdW  Elec       q    Type
REMARK                         _______ _______ _______ _____ _____    ______ ____
ROOT
ATOM      1  C   UNL     1       0.264   2.097   0.357  0.00  0.00    +0.000 C 
ATOM      2  C   UNL     1       1.754   2.384   0.141  0.00  0.00    +0.002 C 
ATOM      3  C   UNL     1       2.176   1.768  -1.192  0.00  0.00    +0.023 C 
ATOM      4  C   UNL     1       1.936   0.275  -1.207  0.00  0.00    +0.082 C 
ATOM      5  C   UNL     1       0.490  -0.104  -0.838  0.00  0.00    +0.012 C 
ATOM      6  C   UNL     1       0.067   0.586   0.460  0.00  0.00    +0.005 C 
ATOM      7  C   UNL     1       0.669  -1.616  -0.500  0.00  0.00    +0.039 C 
ATOM      8  C   UNL     1       2.053  -1.647   0.187  0.00  0.00    +0.191 C 
ATOM      9  N   UNL     1       2.777  -0.450  -0.251  0.00  0.00    -0.269 N 
ATOM     10  C   UNL     1       4.011  -0.088   0.153  0.00  0.00    +0.306 C 
ATOM     11  O   UNL     1       4.574   0.850  -0.379  0.00  0.00    -0.252 OA
ATOM     12  N   UNL     1       4.621  -0.765   1.145  0.00  0.00    -0.289 N 
ATOM     13  C   UNL     1       4.162  -2.106   1.540  0.00  0.00    +0.090 C 
ATOM     14  C   UNL     1       5.372  -3.045   1.572  0.00  0.00    -0.063 C 
ATOM     15  N   UNL     1       6.407  -2.477   2.446  0.00  0.00    +0.381 N 
ATOM     16  C   UNL     1       6.901  -1.215   1.881  0.00  0.00    -0.063 C 
ATOM     17  C   UNL     1       5.769  -0.188   1.861  0.00  0.00    +0.090 C 
ATOM     18  H   UNL     1       6.017  -2.305   3.360  0.00  0.00    -0.086 HD
ATOM     19  H   UNL     1       7.172  -3.130   2.527  0.00  0.00    -0.086 HD
ENDROOT
BRANCH   8  20
ATOM     20  C   UNL     1       1.882  -1.618   1.684  0.00  0.00    +0.376 C 
ATOM     21  O   UNL     1       1.449  -2.597   2.268  0.00  0.00    -0.244 OA
ATOM     22  O   UNL     1       2.178  -0.615   2.311  0.00  0.00    -0.244 OA
ENDBRANCH   8  20
TORSDOF 1
