REMARK  Name = ZINC58850099
REMARK  7 active torsions:
REMARK  status: ('A' for Active; 'I' for Inactive)
REMARK    1  A    between atoms: C_1  and  O_2
REMARK    2  A    between atoms: O_2  and  C_3
REMARK    3  A    between atoms: C_3  and  C_5
REMARK    4  A    between atoms: C_8  and  C_11
REMARK    5  A    between atoms: C_22  and  S_27
REMARK    6  A    between atoms: S_27  and  N_30
REMARK    7  A    between atoms: N_30  and  C_31
REMARK                            x       y       z     vdW  Elec       q    Type
REMARK                         _______ _______ _______ _____ _____    ______ ____
ROOT
ATOM      1  C   UNL     1       0.980  -6.062  -1.786  0.00  0.00    +0.105 C 
ATOM      2  C   UNL     1       2.307  -6.505  -1.245  0.00  0.00    +0.029 C 
ATOM      3  C   UNL     1       3.475  -5.666  -1.803  0.00  0.00    +0.033 C 
ATOM      4  C   UNL     1       4.655  -6.614  -1.753  0.00  0.00    -0.030 C 
ATOM      5  C   UNL     1       4.255  -7.853  -1.637  0.00  0.00    -0.023 C 
ATOM      6  C   UNL     1       2.748  -7.916  -1.623  0.00  0.00    +0.049 C 
ATOM      7  C   UNL     1       2.288  -8.332  -2.992  0.00  0.00    -0.018 A 
ATOM      8  C   UNL     1       2.870  -9.451  -3.570  0.00  0.00    +0.034 A 
ATOM      9  C   UNL     1       2.489  -9.866  -4.830  0.00  0.00    +0.109 A 
ATOM     10  C   UNL     1       1.522  -9.166  -5.529  0.00  0.00    +0.030 A 
ATOM     11  C   UNL     1       0.935  -8.055  -4.961  0.00  0.00    +0.025 A 
ATOM     12  C   UNL     1       1.314  -7.638  -3.687  0.00  0.00    +0.031 A 
ATOM     13  N   UNL     1       0.680  -6.551  -3.116  0.00  0.00    -0.336 N 
ATOM     14  H   UNL     1       0.021  -6.078  -3.647  0.00  0.00    +0.147 HD
ENDROOT
BRANCH   1  18
ATOM     15  C   UNL     1       0.908  -1.787  -1.867  0.00  0.00    +0.059 A 
ATOM     16  C   UNL     1       0.325  -2.478  -0.803  0.00  0.00    +0.015 A 
ATOM     17  C   UNL     1       0.351  -3.857  -0.783  0.00  0.00    +0.006 A 
ATOM     18  C   UNL     1       0.954  -4.556  -1.815  0.00  0.00    -0.027 A 
ATOM     19  C   UNL     1       1.535  -3.877  -2.872  0.00  0.00    +0.006 A 
ATOM     20  C   UNL     1       1.510  -2.499  -2.907  0.00  0.00    +0.015 A 
BRANCH  15  21
ATOM     21  C   UNL     1       0.883  -0.310  -1.895  0.00  0.00    +0.339 C 
ATOM     22  O   UNL     1       1.387   0.288  -2.825  0.00  0.00    -0.245 OA
BRANCH  21  24
ATOM     23  C   UNL     1       0.314   1.799  -0.983  0.00  0.00    +0.280 C 
ATOM     24  O   UNL     1       0.302   0.373  -0.890  0.00  0.00    -0.464 OA
ENDBRANCH  21  24
ENDBRANCH  15  21
ENDBRANCH   1  18
BRANCH   9  25
ATOM     25  S   UNL     1       3.236 -11.290  -5.550  0.00  0.00    +0.072 S 
ATOM     26  O   UNL     1       3.099 -11.153  -6.958  0.00  0.00    -0.150 OA
ATOM     27  O   UNL     1       4.500 -11.447  -4.920  0.00  0.00    -0.150 OA
BRANCH  25  28
ATOM     28  N   UNL     1       2.322 -12.598  -5.111  0.00  0.00    -0.216 N 
ATOM     29  H   UNL     1       2.720 -13.317  -4.595  0.00  0.00    +0.174 HD
BRANCH  28  30
ATOM     30  C   UNL     1       0.981 -12.667  -5.481  0.00  0.00    +0.056 A 
ATOM     31  C   UNL     1       0.568 -12.167  -6.698  0.00  0.00    +0.025 A 
ATOM     32  C   UNL     1      -0.769 -12.231  -7.077  0.00  0.00    +0.002 A 
ATOM     33  C   UNL     1      -1.706 -12.787  -6.261  0.00  0.00    +0.008 A 
ATOM     34  C   UNL     1      -1.327 -13.308  -5.012  0.00  0.00    -0.016 A 
ATOM     35  C   UNL     1       0.032 -13.254  -4.616  0.00  0.00    +0.004 A 
ATOM     36  C   UNL     1       0.409 -13.780  -3.371  0.00  0.00    +0.010 A 
ATOM     37  C   UNL     1      -0.533 -14.339  -2.562  0.00  0.00    +0.001 A 
ATOM     38  C   UNL     1      -1.869 -14.398  -2.952  0.00  0.00    +0.001 A 
ATOM     39  C   UNL     1      -2.273 -13.888  -4.148  0.00  0.00    +0.008 A 
ENDBRANCH  28  30
ENDBRANCH  25  28
ENDBRANCH   9  25
TORSDOF 6
