REMARK  Name = ZINC01102425
REMARK  11 active torsions:
REMARK  status: ('A' for Active; 'I' for Inactive)
REMARK    1  A    between atoms: C_1  and  C_2
REMARK    2  A    between atoms: C_5  and  N_9
REMARK    3  A    between atoms: C_6  and  C_8
REMARK    4  A    between atoms: C_10  and  C_12
REMARK    5  A    between atoms: C_12  and  S_13
REMARK    6  A    between atoms: S_13  and  C_14
REMARK    7  A    between atoms: C_15  and  C_37
REMARK    8  A    between atoms: C_16  and  C_31
REMARK    9  A    between atoms: C_18  and  C_22
REMARK   10  A    between atoms: C_19  and  C_21
REMARK   11  A    between atoms: N_24  and  C_25
REMARK                            x       y       z     vdW  Elec       q    Type
REMARK                         _______ _______ _______ _____ _____    ______ ____
ROOT
ATOM      1  C   UNL     1       5.579   0.578   1.670  0.00  0.00    +0.080 C 
ATOM      2  C   UNL     1       4.524  -0.270   1.805  0.00  0.00    +0.069 C 
ATOM      3  C   UNL     1       3.689  -0.670   0.622  0.00  0.00    +0.098 C 
ATOM      4  C   UNL     1       4.397  -0.350  -0.663  0.00  0.00    +0.044 C 
ATOM      5  C   UNL     1       5.442   0.490  -0.704  0.00  0.00    +0.014 C 
ATOM      6  N   UNL     1       5.913   1.085   0.435  0.00  0.00    -0.312 N 
ATOM      7  C   UNL     1       6.109   0.781  -2.024  0.00  0.00    +0.061 C 
ATOM      8  H   UNL     1       6.561   1.971   0.361  0.00  0.00    +0.152 HD
ENDROOT
BRANCH   3   9
ATOM      9  C   UNL     1       2.379   0.074   0.665  0.00  0.00    -0.035 A 
ATOM     10  C   UNL     1       1.189  -0.625   0.749  0.00  0.00    +0.004 A 
ATOM     11  C   UNL     1      -0.012   0.058   0.789  0.00  0.00    +0.000 A 
ATOM     12  C   UNL     1      -0.024   1.440   0.745  0.00  0.00    +0.000 A 
ATOM     13  C   UNL     1       1.166   2.139   0.662  0.00  0.00    +0.000 A 
ATOM     14  C   UNL     1       2.367   1.456   0.621  0.00  0.00    +0.004 A 
ENDBRANCH   3   9
BRANCH   4  15
ATOM     15  C   UNL     1       3.949  -0.950  -1.864  0.00  0.00    +0.247 C 
ATOM     16  O   UNL     1       4.511  -0.701  -2.916  0.00  0.00    -0.270 OA
ATOM     17  N   UNL     1       2.900  -1.796  -1.845  0.00  0.00    -0.282 N 
ATOM     18  H   UNL     1       2.343  -1.960  -0.911  0.00  0.00    +0.155 HD
BRANCH  17  19
ATOM     19  C   UNL     1       2.520  -2.465  -3.013  0.00  0.00    +0.034 A 
ATOM     20  C   UNL     1       2.030  -3.763  -2.943  0.00  0.00    +0.023 A 
ATOM     21  C   UNL     1       1.651  -4.419  -4.098  0.00  0.00    +0.002 A 
ATOM     22  C   UNL     1       1.768  -3.789  -5.323  0.00  0.00    +0.000 A 
ATOM     23  C   UNL     1       2.261  -2.499  -5.396  0.00  0.00    +0.002 A 
ATOM     24  C   UNL     1       2.637  -1.835  -4.245  0.00  0.00    +0.023 A 
ENDBRANCH  17  19
ENDBRANCH   4  15
BRANCH   2  25
ATOM     25  C   UNL     1       4.203  -0.791   3.100  0.00  0.00    +0.098 C 
ATOM     26  N   UNL     1       3.948  -1.204   4.127  0.00  0.00    -0.191 NA
ENDBRANCH   2  25
BRANCH   1  27
ATOM     27  S   UNL     1       6.524   1.029   3.087  0.00  0.00    -0.100 S 
BRANCH  27  28
ATOM     28  C   UNL     1       7.739   2.128   2.316  0.00  0.00    +0.171 C 
BRANCH  28  30
ATOM     29  N   UNL     1       9.676   3.494   3.024  0.00  0.00    -0.285 N 
ATOM     30  C   UNL     1       8.682   2.651   3.369  0.00  0.00    +0.227 C 
ATOM     31  O   UNL     1       8.547   2.314   4.526  0.00  0.00    -0.275 OA
ATOM     32  H   UNL     1       9.856   3.728   1.964  0.00  0.00    +0.155 HD
BRANCH  29  37
ATOM     33  C   UNL     1      12.933   5.831   7.038  0.00  0.00    +0.044 C 
ATOM     34  C   UNL     1      12.068   5.210   5.972  0.00  0.00    -0.050 A 
ATOM     35  C   UNL     1      10.787   4.788   6.281  0.00  0.00    +0.005 A 
ATOM     36  C   UNL     1       9.992   4.219   5.306  0.00  0.00    +0.024 A 
ATOM     37  C   UNL     1      10.479   4.070   4.014  0.00  0.00    +0.036 A 
ATOM     38  C   UNL     1      11.767   4.490   3.708  0.00  0.00    -0.029 A 
ATOM     39  C   UNL     1      12.555   5.064   4.687  0.00  0.00    +0.008 A 
ATOM     40  C   UNL     1      12.302   4.324   2.309  0.00  0.00    +0.045 C 
ENDBRANCH  29  37
ENDBRANCH  28  30
ENDBRANCH  27  28
ENDBRANCH   1  27
TORSDOF 8
