REMARK  Name = ZINC12849988
REMARK  4 active torsions:
REMARK  status: ('A' for Active; 'I' for Inactive)
REMARK    1  A    between atoms: C_1  and  C_2
REMARK    2  A    between atoms: C_9  and  C_11
REMARK    3  A    between atoms: C_15  and  C_26
REMARK    4  A    between atoms: C_18  and  C_22
REMARK                            x       y       z     vdW  Elec       q    Type
REMARK                         _______ _______ _______ _____ _____    ______ ____
ROOT
ATOM      1  C   UNL     1       2.394  -0.144   2.961  0.00  0.00    +0.129 C 
ATOM      2  C   UNL     1       2.676  -1.452   3.187  0.00  0.00    +0.109 C 
ATOM      3  C   UNL     1       3.594  -1.506   4.325  0.00  0.00    +0.155 C 
ATOM      4  N   UNL     1       4.134  -2.535   4.915  0.00  0.00    -0.258 NA
ATOM      5  C   UNL     1       5.004  -2.317   6.076  0.00  0.00    +0.146 C 
ATOM      6  C   UNL     1       5.749  -0.987   5.947  0.00  0.00    +0.065 C 
ATOM      7  C   UNL     1       4.738   0.162   5.806  0.00  0.00    +0.202 C 
ATOM      8  N   UNL     1       3.830  -0.192   4.710  0.00  0.00    -0.224 N 
ATOM      9  N   UNL     1       3.082   0.636   3.880  0.00  0.00    -0.256 N 
ATOM     10 CL   UNL     1       2.062  -2.808   2.294  0.00  0.00    -0.078 Cl
ATOM     11  H   UNL     1       3.045   1.603   3.937  0.00  0.00    +0.170 HD
ENDROOT
BRANCH   1  19
ATOM     12  C   UNL     1       0.050   1.471  -0.075  0.00  0.00    +0.028 C 
ATOM     13  C   UNL     1      -0.538   0.207   0.556  0.00  0.00    +0.073 C 
ATOM     14  C   UNL     1      -1.937   0.509   1.103  0.00  0.00    +0.022 C 
ATOM     15  C   UNL     1      -2.462  -0.717   1.854  0.00  0.00    +0.003 C 
ATOM     16  C   UNL     1      -1.539  -1.028   3.034  0.00  0.00    +0.019 C 
ATOM     17  C   UNL     1      -0.136  -1.348   2.509  0.00  0.00    +0.108 C 
ATOM     18  N   UNL     1       0.321  -0.236   1.663  0.00  0.00    -0.294 N 
ATOM     19  C   UNL     1       1.502   0.368   1.901  0.00  0.00    +0.264 C 
ATOM     20  O   UNL     1       1.833   1.335   1.243  0.00  0.00    -0.268 OA
ENDBRANCH   1  19
BRANCH   5  21
ATOM     21  C   UNL     1       4.166  -2.297   7.328  0.00  0.00    +0.014 A 
ATOM     22  C   UNL     1       4.438  -2.826   8.546  0.00  0.00    +0.013 A 
ATOM     23  C   UNL     1       3.511  -2.684   9.561  0.00  0.00    +0.008 A 
ATOM     24  C   UNL     1       2.357  -2.019   9.309  0.00  0.00    +0.045 A 
ATOM     25  S   UNL     1       2.561  -1.563   7.595  0.00  0.00    -0.099 S 
ENDBRANCH   5  21
BRANCH   7  26
ATOM     26  C   UNL     1       5.472   1.464   5.477  0.00  0.00    +0.410 C 
ATOM     27  F   UNL     1       6.171   1.314   4.275  0.00  0.00    -0.169 F 
ATOM     28  F   UNL     1       4.544   2.503   5.351  0.00  0.00    -0.169 F 
ATOM     29  F   UNL     1       6.371   1.764   6.506  0.00  0.00    -0.169 F 
ENDBRANCH   7  26
TORSDOF 3
