REMARK  Name = ZINC05058766
REMARK  5 active torsions:
REMARK  status: ('A' for Active; 'I' for Inactive)
REMARK    1  A    between atoms: C_1  and  C_2
REMARK    2  A    between atoms: C_8  and  N_10
REMARK    3  A    between atoms: C_11  and  C_13
REMARK    4  A    between atoms: C_14  and  C_25
REMARK    5  A    between atoms: C_21  and  C_24
REMARK                            x       y       z     vdW  Elec       q    Type
REMARK                         _______ _______ _______ _____ _____    ______ ____
ROOT
ATOM      1  C   UNL     1       4.181   0.639   2.378  0.00  0.00    +0.067 C 
ATOM      2  C   UNL     1       4.979   0.818   3.444  0.00  0.00    +0.045 C 
ATOM      3  C   UNL     1       6.274   1.344   2.982  0.00  0.00    +0.336 C 
ATOM      4  O   UNL     1       7.216   1.612   3.700  0.00  0.00    -0.245 OA
ATOM      5  O   UNL     1       6.256   1.482   1.643  0.00  0.00    -0.450 OA
ATOM      6  C   UNL     1       4.978   1.056   1.167  0.00  0.00    +0.144 C 
ATOM      7  C   UNL     1       4.277   2.212   0.453  0.00  0.00    +0.053 C 
ATOM      8  C   UNL     1       5.104   2.637  -0.762  0.00  0.00    +0.007 C 
ATOM      9  C   UNL     1       5.253   1.452  -1.718  0.00  0.00    -0.014 C 
ATOM     10  C   UNL     1       5.964   0.302  -1.000  0.00  0.00    +0.007 C 
ATOM     11  C   UNL     1       5.138  -0.128   0.214  0.00  0.00    +0.053 C 
ATOM     12  C   UNL     1       3.868   0.988  -2.175  0.00  0.00    +0.007 C 
ATOM     13  C   UNL     1       4.609   0.528   4.876  0.00  0.00    +0.052 C 
ENDROOT
BRANCH   1  15
ATOM     14  N   UNL     1       2.116  -0.004   1.231  0.00  0.00    -0.308 N 
ATOM     15  C   UNL     1       2.795   0.128   2.388  0.00  0.00    +0.245 C 
ATOM     16  O   UNL     1       2.267  -0.174   3.440  0.00  0.00    -0.270 OA
ATOM     17  H   UNL     1       2.538   0.237   0.392  0.00  0.00    +0.149 HD
BRANCH  14  24
ATOM     18  C   UNL     1      -0.019   1.526   0.010  0.00  0.00    +0.009 C 
ATOM     19  C   UNL     1       0.002  -0.004   0.002  0.00  0.00    +0.006 C 
ATOM     20  C   UNL     1       0.718  -0.497  -1.257  0.00  0.00    +0.005 C 
ATOM     21  C   UNL     1       0.739  -2.027  -1.265  0.00  0.00    +0.000 C 
ATOM     22  C   UNL     1       1.479  -2.534  -0.026  0.00  0.00    +0.002 C 
ATOM     23  C   UNL     1       0.763  -2.041   1.233  0.00  0.00    +0.022 C 
ATOM     24  C   UNL     1       0.742  -0.511   1.242  0.00  0.00    +0.076 C 
ENDBRANCH  14  24
ENDBRANCH   1  15
TORSDOF 2
