REMARK  Name = ZINC40068967
REMARK  9 active torsions:
REMARK  status: ('A' for Active; 'I' for Inactive)
REMARK    1  A    between atoms: C_1  and  C_2
REMARK    2  A    between atoms: C_4  and  C_26
REMARK    3  A    between atoms: C_5  and  N_9
REMARK    4  A    between atoms: C_6  and  C_8
REMARK    5  A    between atoms: C_10  and  C_12
REMARK    6  A    between atoms: C_12  and  N_13
REMARK    7  A    between atoms: N_16  and  N_17
REMARK    8  A    between atoms: C_18  and  C_20
REMARK    9  A    between atoms: C_24  and  C_25
REMARK                            x       y       z     vdW  Elec       q    Type
REMARK                         _______ _______ _______ _____ _____    ______ ____
ROOT
ATOM      1  N   UNL     1       0.858  -6.983   2.265  0.00  0.00    -0.290 N 
ATOM      2  C   UNL     1       0.984  -8.311   2.462  0.00  0.00    +0.316 C 
ATOM      3  O   UNL     1       0.718  -9.087   1.565  0.00  0.00    -0.251 OA
ATOM      4  N   UNL     1       1.407  -8.778   3.654  0.00  0.00    -0.218 N 
ATOM      5  H   UNL     1       1.071  -6.364   2.981  0.00  0.00    +0.151 HD
ATOM      6  H   UNL     1       1.497  -9.733   3.795  0.00  0.00    +0.174 HD
ENDROOT
BRANCH   4   7
ATOM      7  N   UNL     1       1.714  -7.884   4.687  0.00  0.00    -0.229 N 
ATOM      8  C   UNL     1       2.136  -8.351   5.879  0.00  0.00    +0.263 C 
ATOM      9  O   UNL     1       2.250  -9.549   6.057  0.00  0.00    -0.269 OA
ATOM     10  H   UNL     1       1.623  -6.928   4.545  0.00  0.00    +0.173 HD
BRANCH   8  11
ATOM     11  C   UNL     1       2.460  -7.410   6.967  0.00  0.00    +0.079 A 
ATOM     12  C   UNL     1       2.373  -5.943   6.928  0.00  0.00    +0.054 A 
ATOM     13  C   UNL     1       2.765  -5.519   8.139  0.00  0.00    +0.196 A 
ATOM     14  O   UNL     1       3.076  -6.581   8.898  0.00  0.00    -0.467 OA
ATOM     15  C   UNL     1       2.896  -7.719   8.222  0.00  0.00    +0.114 A 
ATOM     16  C   UNL     1       3.138  -9.108   8.754  0.00  0.00    +0.087 C 
ENDBRANCH   8  11
ENDBRANCH   4   7
BRANCH   1  17
ATOM     17  C   UNL     1       0.399  -6.476   0.969  0.00  0.00    +0.202 C 
BRANCH  17  19
ATOM     18  N   UNL     1      -0.052  -4.280  -0.077  0.00  0.00    -0.284 N 
ATOM     19  C   UNL     1       0.345  -4.970   1.011  0.00  0.00    +0.234 C 
ATOM     20  O   UNL     1       0.659  -4.380   2.022  0.00  0.00    -0.274 OA
ATOM     21  H   UNL     1      -0.370  -4.753  -0.862  0.00  0.00    +0.155 HD
BRANCH  18  26
ATOM     22  C   UNL     1       0.136   1.390  -0.065  0.00  0.00    +0.044 C 
ATOM     23  C   UNL     1       0.086  -0.116  -0.068  0.00  0.00    -0.050 A 
ATOM     24  C   UNL     1       0.759  -0.827  -1.045  0.00  0.00    +0.008 A 
ATOM     25  C   UNL     1       0.715  -2.207  -1.051  0.00  0.00    -0.029 A 
ATOM     26  C   UNL     1      -0.005  -2.882  -0.074  0.00  0.00    +0.039 A 
ATOM     27  C   UNL     1      -0.679  -2.165   0.906  0.00  0.00    -0.029 A 
ATOM     28  C   UNL     1      -0.628  -0.785   0.909  0.00  0.00    +0.008 A 
ATOM     29  C   UNL     1      -1.463  -2.893   1.968  0.00  0.00    +0.045 C 
ATOM     30  C   UNL     1       1.448  -2.981  -2.117  0.00  0.00    +0.045 C 
ENDBRANCH  18  26
ENDBRANCH  17  19
ENDBRANCH   1  17
TORSDOF 5
