REMARK  Name = ZINC36548369
REMARK  16 active torsions:
REMARK  status: ('A' for Active; 'I' for Inactive)
REMARK    1  A    between atoms: C_1  and  C_2
REMARK    2  A    between atoms: C_2  and  C_3
REMARK    3  A    between atoms: C_2  and  C_4
REMARK    4  A    between atoms: C_2  and  C_5
REMARK    5  A    between atoms: C_5  and  C_6
REMARK    6  A    between atoms: C_6  and  C_7
REMARK    7  A    between atoms: C_6  and  C_8
REMARK    8  A    between atoms: C_6  and  N_9
REMARK    9  A    between atoms: C_10  and  C_12
REMARK   10  A    between atoms: C_12  and  C_14
REMARK   11  A    between atoms: C_12  and  N_23
REMARK   12  A    between atoms: C_15  and  O_22
REMARK   13  A    between atoms: C_17  and  O_21
REMARK   14  A    between atoms: C_19  and  O_20
REMARK   15  A    between atoms: N_23  and  C_24
REMARK   16  A    between atoms: C_31  and  C_33
REMARK                            x       y       z     vdW  Elec       q    Type
REMARK                         _______ _______ _______ _____ _____    ______ ____
ROOT
ATOM      1  C   UNL     1       5.627  -0.776  -4.000  0.00  0.00    +0.204 C 
ENDROOT
BRANCH   1   2
ATOM      2  C   UNL     1       5.203   0.032  -5.199  0.00  0.00    +0.065 A 
ATOM      3  C   UNL     1       5.784  -0.207  -6.436  0.00  0.00    +0.129 A 
ATOM      4  C   UNL     1       5.394   0.536  -7.540  0.00  0.00    +0.091 A 
ATOM      5  C   UNL     1       4.423   1.518  -7.407  0.00  0.00    +0.124 A 
ATOM      6  C   UNL     1       3.842   1.756  -6.171  0.00  0.00    +0.091 A 
ATOM      7  C   UNL     1       4.229   1.010  -5.068  0.00  0.00    +0.129 A 
BRANCH   7   8
ATOM      8  O   UNL     1       3.657   1.240  -3.857  0.00  0.00    -0.506 OA
ATOM      9  H   UNL     1       4.115   1.904  -3.325  0.00  0.00    +0.292 HD
ENDBRANCH   7   8
BRANCH   5  10
ATOM     10  O   UNL     1       4.042   2.247  -8.489  0.00  0.00    -0.507 OA
ATOM     11  H   UNL     1       3.304   1.863  -8.982  0.00  0.00    +0.292 HD
ENDBRANCH   5  10
BRANCH   3  12
ATOM     12  O   UNL     1       6.735  -1.169  -6.566  0.00  0.00    -0.506 OA
ATOM     13  H   UNL     1       6.379  -2.057  -6.708  0.00  0.00    +0.292 HD
ENDBRANCH   3  12
ENDBRANCH   1   2
BRANCH   1  15
ATOM     14  N   UNL     1       3.566  -1.931  -3.269  0.00  0.00    -0.308 N 
ATOM     15  C   UNL     1       4.456  -0.940  -3.066  0.00  0.00    +0.239 C 
ATOM     16  O   UNL     1       4.315  -0.180  -2.131  0.00  0.00    -0.273 OA
ATOM     17  H   UNL     1       3.719  -2.585  -3.969  0.00  0.00    +0.149 HD
BRANCH  14  18
ATOM     18  C   UNL     1       2.366  -2.021  -2.433  0.00  0.00    +0.030 C 
ATOM     19  C   UNL     1       1.612  -0.690  -2.478  0.00  0.00    +0.031 C 
ATOM     20  C   UNL     1       2.772  -2.327  -0.990  0.00  0.00    +0.031 C 
BRANCH  18  21
ATOM     21  C   UNL     1       1.461  -3.138  -2.956  0.00  0.00    +0.031 C 
BRANCH  21  23
ATOM     22  C   UNL     1       2.672  -3.691  -5.070  0.00  0.00    +0.010 C 
ATOM     23  C   UNL     1       1.402  -3.072  -4.484  0.00  0.00    -0.036 C 
ATOM     24  C   UNL     1       1.295  -1.612  -4.928  0.00  0.00    +0.010 C 
ATOM     25  C   UNL     1       0.180  -3.847  -4.981  0.00  0.00    +0.010 C 
ENDBRANCH  21  23
ENDBRANCH  18  21
ENDBRANCH  14  18
ENDBRANCH   1  15
BRANCH   1  26
ATOM     26  N   UNL     1       6.714  -0.083  -3.304  0.00  0.00    -0.252 N 
ATOM     27  C   UNL     1       7.936  -0.648  -3.231  0.00  0.00    +0.241 C 
ATOM     28  O   UNL     1       8.135  -1.730  -3.741  0.00  0.00    -0.273 OA
BRANCH  26  29
ATOM     29  C   UNL     1       6.484   1.165  -2.715  0.00  0.00    +0.056 A 
ATOM     30  C   UNL     1       6.144   1.249  -1.371  0.00  0.00    +0.025 A 
ATOM     31  C   UNL     1       5.918   2.483  -0.793  0.00  0.00    +0.002 A 
ATOM     32  C   UNL     1       6.029   3.635  -1.550  0.00  0.00    +0.002 A 
ATOM     33  C   UNL     1       6.367   3.556  -2.888  0.00  0.00    +0.022 A 
ATOM     34  C   UNL     1       6.601   2.325  -3.472  0.00  0.00    +0.062 A 
ATOM     35 CL   UNL     1       7.034   2.227  -5.150  0.00  0.00    -0.082 Cl
ENDBRANCH  26  29
BRANCH  27  36
ATOM     36  C   UNL     1       9.054   0.065  -2.515  0.00  0.00    +0.160 C 
ATOM     37  C   UNL     1       9.686   1.130  -3.437  0.00  0.00    +0.041 C 
ATOM     38  C   UNL     1      10.858   0.345  -4.069  0.00  0.00    +0.098 C 
ATOM     39  C   UNL     1      11.161  -0.743  -3.063  0.00  0.00    +0.214 C 
ATOM     40  O   UNL     1      12.180  -1.401  -3.037  0.00  0.00    -0.276 OA
ATOM     41  N   UNL     1      10.136  -0.875  -2.200  0.00  0.00    -0.304 N 
ATOM     42  H   UNL     1      10.115  -1.509  -1.466  0.00  0.00    +0.149 HD
ENDBRANCH  27  36
ENDBRANCH   1  26
TORSDOF 11
