REMARK  Name = ZINC52734307
REMARK  3 active torsions:
REMARK  status: ('A' for Active; 'I' for Inactive)
REMARK    1  A    between atoms: C_6  and  O_7
REMARK    2  A    between atoms: O_7  and  C_8
REMARK    3  A    between atoms: C_8  and  C_9
REMARK                            x       y       z     vdW  Elec       q    Type
REMARK                         _______ _______ _______ _____ _____    ______ ____
ROOT
ATOM      1  C   UNL     1      -0.017   1.383   0.010  0.00  0.00    +0.047 A 
ATOM      2  C   UNL     1       1.169   2.090   0.002  0.00  0.00    +0.027 A 
ATOM      3  C   UNL     1       2.381   1.413  -0.013  0.00  0.00    +0.037 A 
ATOM      4  C   UNL     1       2.399   0.024  -0.020  0.00  0.00    -0.022 A 
ATOM      5  C   UNL     1       1.213  -0.682  -0.013  0.00  0.00    +0.051 A 
ATOM      6  C   UNL     1       0.002  -0.004   0.002  0.00  0.00    +0.121 A 
ATOM      7  C   UNL     1       3.715  -0.709  -0.035  0.00  0.00    +0.046 C 
ATOM      8  C   UNL     1       4.736   0.091  -0.845  0.00  0.00    +0.101 C 
ATOM      9  C   UNL     1       4.729   1.529  -0.402  0.00  0.00    +0.218 C 
ATOM     10  O   UNL     1       5.767   2.157  -0.389  0.00  0.00    -0.275 OA
ATOM     11  N   UNL     1       3.586   2.126  -0.020  0.00  0.00    -0.285 N 
ATOM     12  H   UNL     1       3.596   3.057   0.251  0.00  0.00    +0.155 HD
ENDROOT
BRANCH   6  13
ATOM     13  O   UNL     1      -1.166  -0.700   0.010  0.00  0.00    -0.487 OA
BRANCH  13  14
ATOM     14  C   UNL     1      -2.375   0.063   0.026  0.00  0.00    +0.264 C 
BRANCH  14  15
ATOM     15  C   UNL     1      -3.558  -0.871   0.032  0.00  0.00    -0.006 A 
ATOM     16  C   UNL     1      -4.123  -1.309  -1.158  0.00  0.00    +0.027 A 
ATOM     17  C   UNL     1      -5.205  -2.165  -1.118  0.00  0.00    +0.113 A 
ATOM     18  N   UNL     1      -5.706  -2.569   0.034  0.00  0.00    -0.241 NA
ATOM     19  C   UNL     1      -5.196  -2.174   1.190  0.00  0.00    +0.116 A 
ATOM     20  C   UNL     1      -4.101  -1.316   1.224  0.00  0.00    +0.050 A 
ATOM     21  N   UNL     1      -5.755  -2.624   2.380  0.00  0.00    -0.343 N 
ATOM     22  H   UNL     1      -6.516  -3.225   2.361  0.00  0.00    +0.144 HD
ATOM     23  H   UNL     1      -5.385  -2.337   3.229  0.00  0.00    +0.144 HD
ENDBRANCH  14  15
ENDBRANCH  13  14
ENDBRANCH   6  13
TORSDOF 3
