REMARK  Name = ZINC39324931
REMARK  6 active torsions:
REMARK  status: ('A' for Active; 'I' for Inactive)
REMARK    1  A    between atoms: C_1  and  C_2
REMARK    2  A    between atoms: C_2  and  C_3
REMARK    3  A    between atoms: C_5  and  C_17
REMARK    4  A    between atoms: C_7  and  C_15
REMARK    5  A    between atoms: C_8  and  N_14
REMARK    6  A    between atoms: C_20  and  C_22
REMARK                            x       y       z     vdW  Elec       q    Type
REMARK                         _______ _______ _______ _____ _____    ______ ____
ROOT
ATOM      1  C   UNL     1       0.707  -0.490  -1.238  0.00  0.00    +0.069 C 
ATOM      2  C   UNL     1       1.976  -0.816  -1.299  0.00  0.00    +0.033 C 
ATOM      3  C   UNL     1       3.060  -0.961  -0.266  0.00  0.00    +0.134 C 
ATOM      4  C   UNL     1       3.816  -2.221  -0.645  0.00  0.00    +0.100 C 
ATOM      5  C   UNL     1       3.588  -2.862  -1.810  0.00  0.00    +0.195 C 
ATOM      6  O   UNL     1       2.690  -2.522  -2.752  0.00  0.00    -0.448 OA
ATOM      7  C   UNL     1       2.226  -1.170  -2.765  0.00  0.00    +0.343 C 
ATOM      8  N   UNL     1       0.883  -1.050  -3.341  0.00  0.00    -0.138 NA
ATOM      9  N   UNL     1       0.119  -0.659  -2.450  0.00  0.00    -0.155 NA
ENDROOT
BRANCH   3  10
ATOM     10  C   UNL     1       2.456  -1.105   1.107  0.00  0.00    +0.118 A 
ATOM     11  C   UNL     1       2.660  -0.273   2.146  0.00  0.00    +0.046 A 
ATOM     12  C   UNL     1       1.911  -0.774   3.229  0.00  0.00    +0.050 A 
ATOM     13  C   UNL     1       1.284  -1.896   2.787  0.00  0.00    +0.135 A 
ATOM     14  O   UNL     1       1.619  -2.081   1.495  0.00  0.00    -0.459 OA
BRANCH  13  15
ATOM     15  C   UNL     1       0.385  -2.758   3.582  0.00  0.00    +0.017 A 
ATOM     16  C   UNL     1       0.110  -2.445   4.914  0.00  0.00    +0.013 A 
ATOM     17  C   UNL     1      -0.729  -3.253   5.651  0.00  0.00    +0.021 A 
ATOM     18  C   UNL     1      -1.299  -4.375   5.072  0.00  0.00    +0.041 A 
ATOM     19  C   UNL     1      -1.030  -4.691   3.751  0.00  0.00    +0.021 A 
ATOM     20  C   UNL     1      -0.197  -3.887   3.002  0.00  0.00    +0.013 A 
ATOM     21 CL   UNL     1      -2.354  -5.389   6.006  0.00  0.00    -0.084 Cl
ENDBRANCH  13  15
ENDBRANCH   3  10
BRANCH   5  22
ATOM     22  N   UNL     1       4.352  -3.974  -2.061  0.00  0.00    -0.329 N 
ATOM     23  H   UNL     1       5.015  -4.263  -1.414  0.00  0.00    +0.145 HD
ATOM     24  H   UNL     1       4.228  -4.472  -2.884  0.00  0.00    +0.145 HD
ENDBRANCH   5  22
BRANCH   1  26
ATOM     25  C   UNL     1      -0.019   1.526   0.010  0.00  0.00    +0.010 C 
ATOM     26  C   UNL     1       0.002  -0.004   0.002  0.00  0.00    +0.054 C 
ENDBRANCH   1  26
BRANCH   4  27
ATOM     27  C   UNL     1       4.797  -2.744   0.258  0.00  0.00    +0.101 C 
ATOM     28  N   UNL     1       5.575  -3.158   0.975  0.00  0.00    -0.191 NA
ENDBRANCH   4  27
TORSDOF 5
