REMARK  Name = ZINC21033725
REMARK  10 active torsions:
REMARK  status: ('A' for Active; 'I' for Inactive)
REMARK    1  A    between atoms: C_1  and  C_2
REMARK    2  A    between atoms: C_4  and  C_11
REMARK    3  A    between atoms: C_4  and  N_15
REMARK    4  A    between atoms: N_7  and  C_8
REMARK    5  A    between atoms: C_8  and  C_9
REMARK    6  A    between atoms: C_8  and  C_10
REMARK    7  A    between atoms: C_16  and  C_18
REMARK    8  A    between atoms: C_18  and  C_19
REMARK    9  A    between atoms: C_18  and  C_20
REMARK   10  A    between atoms: C_18  and  C_21
REMARK                            x       y       z     vdW  Elec       q    Type
REMARK                         _______ _______ _______ _____ _____    ______ ____
ROOT
ATOM      1  C   UNL     1       1.253   2.464   4.399  0.00  0.00    +0.083 C 
ATOM      2  C   UNL     1       0.438   2.486   3.131  0.00  0.00    +0.099 C 
ATOM      3  N   UNL     1       0.061   1.423   2.512  0.00  0.00    -0.230 NA
ATOM      4  C   UNL     1      -0.706   1.844   1.329  0.00  0.00    +0.301 C 
ATOM      5  C   UNL     1      -0.685   3.359   1.407  0.00  0.00    +0.276 C 
ATOM      6  O   UNL     1      -1.193   4.146   0.637  0.00  0.00    -0.270 OA
ATOM      7  N   UNL     1       0.025   3.638   2.521  0.00  0.00    -0.254 N 
ENDROOT
BRANCH   4   8
ATOM      8  C   UNL     1      -0.025   1.362   0.047  0.00  0.00    +0.440 C 
ATOM      9  F   UNL     1       0.029  -0.036   0.044  0.00  0.00    -0.166 F 
ATOM     10  F   UNL     1       1.274   1.879  -0.014  0.00  0.00    -0.166 F 
ATOM     11  F   UNL     1      -0.754   1.803  -1.063  0.00  0.00    -0.166 F 
ENDBRANCH   4   8
BRANCH   4  12
ATOM     12  N   UNL     1      -2.080   1.341   1.401  0.00  0.00    -0.276 N 
ATOM     13  C   UNL     1      -2.970   1.675   0.446  0.00  0.00    +0.221 C 
ATOM     14  O   UNL     1      -2.634   2.392  -0.473  0.00  0.00    -0.275 OA
ATOM     15  H   UNL     1      -2.385   0.691   2.234  0.00  0.00    +0.152 HD
BRANCH  13  16
ATOM     16  C   UNL     1      -4.384   1.157   0.519  0.00  0.00    +0.039 C 
ATOM     17  C   UNL     1      -5.182   1.681  -0.677  0.00  0.00    +0.020 C 
ATOM     18  C   UNL     1      -4.369  -0.372   0.492  0.00  0.00    +0.020 C 
ATOM     19  C   UNL     1      -5.036   1.639   1.817  0.00  0.00    +0.020 C 
ENDBRANCH  13  16
ENDBRANCH   4  12
BRANCH   7  20
ATOM     20  C   UNL     1       0.313   4.990   3.008  0.00  0.00    +0.077 C 
ATOM     21  C   UNL     1       1.054   5.776   1.925  0.00  0.00    +0.028 C 
ATOM     22  C   UNL     1      -0.999   5.700   3.346  0.00  0.00    +0.028 C 
ENDBRANCH   7  20
TORSDOF 4
