REMARK  Name = ZINC39469745
REMARK  4 active torsions:
REMARK  status: ('A' for Active; 'I' for Inactive)
REMARK    1  A    between atoms: C_4  and  O_7
REMARK    2  A    between atoms: O_7  and  S_8
REMARK    3  A    between atoms: S_8  and  P_11
REMARK    4  A    between atoms: C_19  and  O_30
REMARK                            x       y       z     vdW  Elec       q    Type
REMARK                         _______ _______ _______ _____ _____    ______ ____
ROOT
ATOM      1  P   UNL     1       3.000  -2.544   2.135  0.00  0.00    +0.431 P 
ATOM      2  O   UNL     1       3.152  -3.748   1.288  0.00  0.00    -0.246 OA
ATOM      3  N   UNL     1       3.464  -2.869   3.686  0.00  0.00    -0.271 NA
ATOM      4  N   UNL     1       2.583  -3.560   4.490  0.00  0.00    +0.398 N 
ATOM      5  C   UNL     1       3.199  -3.604   5.825  0.00  0.00    -0.046 C 
ATOM      6  C   UNL     1       2.319  -4.365   6.807  0.00  0.00    +0.008 C 
ATOM      7  C   UNL     1       2.118  -5.784   6.345  0.00  0.00    +0.022 C 
ATOM      8  C   UNL     1       1.060  -6.473   6.783  0.00  0.00    +0.131 C 
ATOM      9  C   UNL     1       0.117  -5.833   7.722  0.00  0.00    +0.078 C 
ATOM     10  C   UNL     1       0.055  -4.506   7.793  0.00  0.00    +0.000 C 
ATOM     11  C   UNL     1       0.954  -3.677   6.908  0.00  0.00    +0.017 C 
ATOM     12  C   UNL     1       0.344  -3.599   5.508  0.00  0.00    -0.003 C 
ATOM     13  C   UNL     1       1.292  -2.870   4.547  0.00  0.00    -0.020 C 
ATOM     14  C   UNL     1       0.607  -2.843   3.174  0.00  0.00    +0.158 C 
ATOM     15  O   UNL     1       1.431  -2.123   2.240  0.00  0.00    -0.301 OA
ATOM     16 CL   UNL     1      -0.908  -6.808   8.728  0.00  0.00    -0.080 Cl
ATOM     17  H   UNL     1       4.329  -2.583   4.020  0.00  0.00    +0.113 HD
ATOM     18  H   UNL     1       2.454  -4.493   4.130  0.00  0.00    -0.055 HD
ENDROOT
BRANCH   1  19
ATOM     19  S   UNL     1       4.140  -0.941   1.346  0.00  0.00    +0.209 S 
ATOM     20  O   UNL     1       5.458  -1.436   1.154  0.00  0.00    -0.126 OA
ATOM     21  O   UNL     1       3.863   0.192   2.158  0.00  0.00    -0.126 OA
BRANCH  19  22
ATOM     22  O   UNL     1       3.586  -0.632  -0.037  0.00  0.00    -0.339 OA
BRANCH  22  26
ATOM     23  C   UNL     1      -0.017   1.378   0.010  0.00  0.00    +0.000 A 
ATOM     24  C   UNL     1       1.170   2.088   0.002  0.00  0.00    +0.004 A 
ATOM     25  C   UNL     1       2.377   1.417  -0.013  0.00  0.00    +0.048 A 
ATOM     26  C   UNL     1       2.399   0.030  -0.021  0.00  0.00    +0.157 A 
ATOM     27  C   UNL     1       1.207  -0.680  -0.013  0.00  0.00    +0.048 A 
ATOM     28  C   UNL     1       0.002  -0.004   0.002  0.00  0.00    +0.004 A 
ENDBRANCH  22  26
ENDBRANCH  19  22
ENDBRANCH   1  19
BRANCH   8  29
ATOM     29  O   UNL     1       0.854  -7.751   6.369  0.00  0.00    -0.506 OA
ATOM     30  H   UNL     1       0.063  -8.162   6.742  0.00  0.00    +0.292 HD
ENDBRANCH   8  29
TORSDOF 4
