REMARK  Name = ZINC23244223
REMARK  7 active torsions:
REMARK  status: ('A' for Active; 'I' for Inactive)
REMARK    1  A    between atoms: C_4  and  C_7
REMARK    2  A    between atoms: C_10  and  S_13
REMARK    3  A    between atoms: S_13  and  N_16
REMARK    4  A    between atoms: N_19  and  C_22
REMARK    5  A    between atoms: C_22  and  C_23
REMARK    6  A    between atoms: C_23  and  N_24
REMARK    7  A    between atoms: C_29  and  C_31
REMARK                            x       y       z     vdW  Elec       q    Type
REMARK                         _______ _______ _______ _____ _____    ______ ____
ROOT
ATOM      1  N   UNL     1       1.020   9.814   2.071  0.00  0.00    -0.180 NA
ATOM      2  C   UNL     1      -0.155   9.277   2.773  0.00  0.00    +0.091 C 
ATOM      3  C   UNL     1      -0.029   7.751   2.836  0.00  0.00    -0.061 C 
ATOM      4  N   UNL     1       0.179   7.224   1.480  0.00  0.00    +0.383 N 
ATOM      5  C   UNL     1       1.439   7.714   0.906  0.00  0.00    -0.061 C 
ATOM      6  C   UNL     1       1.373   9.239   0.765  0.00  0.00    +0.091 C 
ATOM      7  H   UNL     1      -0.642   7.593   0.848  0.00  0.00    -0.082 HD
ENDROOT
BRANCH   1   8
ATOM      8  S   UNL     1       1.921  11.036   2.734  0.00  0.00    +0.061 S 
ATOM      9  O   UNL     1       2.576  11.688   1.655  0.00  0.00    -0.153 OA
ATOM     10  O   UNL     1       1.068  11.726   3.636  0.00  0.00    -0.153 OA
BRANCH   8  14
ATOM     11  C   UNL     1       5.163   9.102   5.239  0.00  0.00    -0.018 A 
ATOM     12  C   UNL     1       5.392   9.382   3.893  0.00  0.00    +0.010 A 
ATOM     13  C   UNL     1       4.401   9.971   3.135  0.00  0.00    +0.029 A 
ATOM     14  C   UNL     1       3.182  10.283   3.708  0.00  0.00    +0.106 A 
ATOM     15  C   UNL     1       2.950  10.013   5.045  0.00  0.00    +0.029 A 
ATOM     16  C   UNL     1       3.933   9.419   5.811  0.00  0.00    +0.010 A 
BRANCH  11  20
ATOM     17  C   UNL     1       8.206   7.288   7.590  0.00  0.00    +0.000 A 
ATOM     18  C   UNL     1       6.987   7.601   8.164  0.00  0.00    +0.001 A 
ATOM     19  C   UNL     1       5.996   8.190   7.405  0.00  0.00    +0.008 A 
ATOM     20  C   UNL     1       6.225   8.470   6.060  0.00  0.00    -0.018 A 
ATOM     21  C   UNL     1       7.454   8.148   5.486  0.00  0.00    +0.008 A 
ATOM     22  C   UNL     1       8.440   7.564   6.255  0.00  0.00    +0.001 A 
ENDBRANCH  11  20
ENDBRANCH   8  14
ENDBRANCH   1   8
BRANCH   4  23
ATOM     23  C   UNL     1       0.133   5.756   1.473  0.00  0.00    -0.055 C 
BRANCH  23  24
ATOM     24  C   UNL     1       0.103   5.253   0.029  0.00  0.00    +0.129 C 
BRANCH  24  25
ATOM     25  N   UNL     1       0.058   3.789   0.021  0.00  0.00    -0.231 N 
ATOM     26  C   UNL     1      -1.138   3.171   0.030  0.00  0.00    +0.267 A 
ATOM     27  O   UNL     1      -2.168   3.826   0.044  0.00  0.00    -0.266 OA
ATOM     28  C   UNL     1      -1.192   1.760   0.017  0.00  0.00    +0.074 A 
ATOM     29  C   UNL     1      -0.013   1.076   0.008  0.00  0.00    +0.035 A 
ATOM     30  C   UNL     1       1.191   1.818   0.000  0.00  0.00    +0.092 A 
ATOM     31  N   UNL     1       1.159   3.130   0.007  0.00  0.00    -0.168 NA
BRANCH  30  32
ATOM     32  C   UNL     1       2.495   1.111  -0.016  0.00  0.00    +0.002 A 
ATOM     33  C   UNL     1       2.536  -0.282  -0.018  0.00  0.00    +0.010 A 
ATOM     34  C   UNL     1       3.752  -0.935  -0.038  0.00  0.00    +0.001 A 
ATOM     35  C   UNL     1       4.929  -0.209  -0.045  0.00  0.00    +0.000 A 
ATOM     36  C   UNL     1       4.895   1.174  -0.038  0.00  0.00    +0.001 A 
ATOM     37  C   UNL     1       3.685   1.837  -0.023  0.00  0.00    +0.010 A 
ENDBRANCH  30  32
ENDBRANCH  24  25
ENDBRANCH  23  24
ENDBRANCH   4  23
TORSDOF 7
