REMARK  Name = ZINC35842649
REMARK  23 active torsions:
REMARK  status: ('A' for Active; 'I' for Inactive)
REMARK    1  A    between atoms: C_1  and  C_2
REMARK    2  A    between atoms: C_2  and  C_3
REMARK    3  A    between atoms: C_2  and  C_4
REMARK    4  A    between atoms: C_4  and  O_5
REMARK    5  A    between atoms: O_5  and  C_6
REMARK    6  A    between atoms: C_6  and  C_7
REMARK    7  A    between atoms: C_7  and  C_9
REMARK    8  A    between atoms: C_7  and  O_41
REMARK    9  A    between atoms: C_9  and  N_10
REMARK   10  A    between atoms: N_10  and  C_11
REMARK   11  A    between atoms: N_10  and  C_38
REMARK   12  A    between atoms: C_11  and  C_12
REMARK   13  A    between atoms: N_14  and  C_15
REMARK   14  A    between atoms: N_14  and  C_27
REMARK   15  A    between atoms: C_15  and  C_16
REMARK   16  A    between atoms: C_16  and  C_17
REMARK   17  A    between atoms: C_27  and  C_28
REMARK   18  A    between atoms: C_31  and  C_34
REMARK   19  A    between atoms: C_34  and  C_35
REMARK   20  A    between atoms: C_34  and  C_36
REMARK   21  A    between atoms: C_34  and  C_37
REMARK   22  A    between atoms: C_38  and  C_39
REMARK   23  A    between atoms: C_38  and  C_40
REMARK                            x       y       z     vdW  Elec       q    Type
REMARK                         _______ _______ _______ _____ _____    ______ ____
ROOT
ATOM      1  C   UNL     1      -5.109  -8.265  -0.285  0.00  0.00    +0.199 C 
ATOM      2  O   UNL     1      -4.018  -8.790  -0.359  0.00  0.00    -0.278 OA
ATOM      3  N   UNL     1      -6.225  -9.020  -0.334  0.00  0.00    -0.298 N 
ENDROOT
BRANCH   1   4
ATOM      4  C   UNL     1      -5.216  -6.769  -0.139  0.00  0.00    +0.019 C 
BRANCH   4   5
ATOM      5  N   UNL     1      -3.885  -6.166  -0.282  0.00  0.00    +0.389 N 
ATOM      6  H   UNL     1      -3.197  -6.761   0.156  0.00  0.00    -0.081 HD
BRANCH   5   7
ATOM      7  C   UNL     1      -3.565  -6.016  -1.708  0.00  0.00    -0.074 C 
ATOM      8  C   UNL     1      -3.664  -7.378  -2.399  0.00  0.00    -0.014 C 
ATOM      9  C   UNL     1      -4.556  -5.044  -2.353  0.00  0.00    -0.014 C 
ENDBRANCH   5   7
BRANCH   5  10
ATOM     10  C   UNL     1      -3.873  -4.847   0.364  0.00  0.00    -0.044 C 
BRANCH  10  11
ATOM     11  C   UNL     1      -2.443  -4.302   0.384  0.00  0.00    +0.124 C 
BRANCH  11  12
ATOM     12  O   UNL     1      -2.026  -4.012  -0.952  0.00  0.00    -0.391 OA
ATOM     13  H   UNL     1      -2.524  -3.298  -1.373  0.00  0.00    +0.210 HD
ENDBRANCH  11  12
BRANCH  11  14
ATOM     14  C   UNL     1      -2.397  -3.022   1.222  0.00  0.00    +0.189 C 
BRANCH  14  15
ATOM     15  O   UNL     1      -1.044  -2.577   1.337  0.00  0.00    -0.377 OA
BRANCH  15  16
ATOM     16  C   UNL     1      -0.889  -1.382   2.105  0.00  0.00    +0.163 C 
BRANCH  16  18
ATOM     17  C   UNL     1       0.746   0.343   2.876  0.00  0.00    +0.009 C 
ATOM     18  C   UNL     1       0.592  -1.001   2.161  0.00  0.00    +0.009 C 
ATOM     19  C   UNL     1       1.367  -2.076   2.925  0.00  0.00    +0.009 C 
ENDBRANCH  16  18
ENDBRANCH  15  16
ENDBRANCH  14  15
ENDBRANCH  11  14
ENDBRANCH  10  11
ENDBRANCH   5  10
ENDBRANCH   4   5
ENDBRANCH   1   4
BRANCH   3  20
ATOM     20  C   UNL     1      -7.542  -8.385  -0.245  0.00  0.00    +0.113 C 
BRANCH  20  21
ATOM     21  C   UNL     1      -8.031  -8.026  -1.650  0.00  0.00    +0.056 C 
BRANCH  21  22
ATOM     22  C   UNL     1      -9.387  -7.374  -1.558  0.00  0.00    -0.021 A 
ATOM     23  C   UNL     1     -10.576  -7.984  -1.680  0.00  0.00    +0.087 A 
ATOM     24  N   UNL     1     -11.585  -7.070  -1.539  0.00  0.00    -0.360 N 
ATOM     25  H   UNL     1     -12.533  -7.274  -1.588  0.00  0.00    +0.165 HD
ATOM     26  C   UNL     1     -11.056  -5.819  -1.317  0.00  0.00    +0.047 A 
ATOM     27  C   UNL     1      -9.656  -5.955  -1.313  0.00  0.00    +0.003 A 
ATOM     28  C   UNL     1      -8.848  -4.836  -1.102  0.00  0.00    +0.010 A 
ATOM     29  C   UNL     1      -9.422  -3.613  -0.897  0.00  0.00    +0.001 A 
ATOM     30  C   UNL     1     -10.803  -3.474  -0.895  0.00  0.00    +0.002 A 
ATOM     31  C   UNL     1     -11.619  -4.564  -1.111  0.00  0.00    +0.026 A 
ENDBRANCH  21  22
ENDBRANCH  20  21
ENDBRANCH   3  20
BRANCH   3  32
ATOM     32  C   UNL     1      -6.120 -10.474  -0.477  0.00  0.00    +0.142 C 
BRANCH  32  33
ATOM     33  C   UNL     1      -6.054 -11.109   0.889  0.00  0.00    -0.030 A 
ATOM     34  C   UNL     1      -4.830 -11.307   1.500  0.00  0.00    +0.005 A 
ATOM     35  C   UNL     1      -4.770 -11.889   2.752  0.00  0.00    +0.004 A 
ATOM     36  C   UNL     1      -5.933 -12.273   3.393  0.00  0.00    -0.042 A 
ATOM     37  C   UNL     1      -7.157 -12.074   2.782  0.00  0.00    +0.004 A 
ATOM     38  C   UNL     1      -7.218 -11.488   1.532  0.00  0.00    +0.005 A 
BRANCH  36  39
ATOM     39  C   UNL     1      -5.867 -12.909   4.758  0.00  0.00    -0.013 C 
ATOM     40  C   UNL     1      -5.206 -11.940   5.740  0.00  0.00    +0.015 C 
ATOM     41  C   UNL     1      -7.283 -13.235   5.238  0.00  0.00    +0.015 C 
ATOM     42  C   UNL     1      -5.045 -14.197   4.681  0.00  0.00    +0.015 C 
ENDBRANCH  36  39
ENDBRANCH  32  33
ENDBRANCH   3  32
TORSDOF 16
