REMARK  Name = ZINC06409898
REMARK  8 active torsions:
REMARK  status: ('A' for Active; 'I' for Inactive)
REMARK    1  A    between atoms: C_1  and  C_2
REMARK    2  A    between atoms: C_7  and  C_14
REMARK    3  A    between atoms: C_14  and  C_16
REMARK    4  A    between atoms: C_14  and  N_71
REMARK    5  A    between atoms: N_20  and  C_21
REMARK    6  A    between atoms: C_21  and  C_22
REMARK    7  A    between atoms: C_30  and  C_33
REMARK    8  A    between atoms: C_33  and  C_34
REMARK                            x       y       z     vdW  Elec       q    Type
REMARK                         _______ _______ _______ _____ _____    ______ ____
ROOT
ATOM      1  C   UNL     1       3.512   0.638  -0.029  0.00  0.00    +0.039 C 
ENDROOT
BRANCH   1   8
ATOM      2  C   UNL     1       4.983  -0.861  -7.723  0.00  0.00    +0.044 C 
ATOM      3  C   UNL     1       4.479  -0.595  -6.328  0.00  0.00    -0.048 A 
ATOM      4  C   UNL     1       3.113  -0.574  -6.083  0.00  0.00    +0.004 A 
ATOM      5  C   UNL     1       2.636  -0.334  -4.826  0.00  0.00    +0.010 A 
ATOM      6  C   UNL     1       3.531  -0.106  -3.776  0.00  0.00    -0.001 A 
ATOM      7  C   UNL     1       3.054   0.148  -2.415  0.00  0.00    +0.017 A 
ATOM      8  C   UNL     1       3.969   0.367  -1.438  0.00  0.00    +0.011 A 
ATOM      9  C   UNL     1       5.348   0.336  -1.736  0.00  0.00    +0.251 A 
ATOM     10  O   UNL     1       6.154   0.530  -0.843  0.00  0.00    -0.268 OA
ATOM     11  N   UNL     1       5.796   0.098  -2.982  0.00  0.00    -0.322 N 
ATOM     12  H   UNL     1       6.751   0.083  -3.152  0.00  0.00    +0.169 HD
ATOM     13  C   UNL     1       4.917  -0.126  -4.020  0.00  0.00    +0.049 A 
ATOM     14  C   UNL     1       5.380  -0.373  -5.309  0.00  0.00    +0.029 A 
ENDBRANCH   1   8
BRANCH   1  20
ATOM     15  C   UNL     1       3.674  -1.734   0.426  0.00  0.00    -0.077 C 
ATOM     16  C   UNL     1       4.377  -2.779   1.295  0.00  0.00    -0.015 C 
ATOM     17  C   UNL     1       3.979  -2.570   2.759  0.00  0.00    -0.010 C 
ATOM     18  C   UNL     1       4.346  -1.145   3.181  0.00  0.00    -0.015 C 
ATOM     19  C   UNL     1       3.644  -0.147   2.258  0.00  0.00    -0.077 C 
ATOM     20  N   UNL     1       4.088  -0.385   0.868  0.00  0.00    +0.389 N 
ATOM     21  H   UNL     1       5.112  -0.323   0.830  0.00  0.00    -0.080 HD
BRANCH  17  22
ATOM     22  C   UNL     1       4.725  -3.573   3.641  0.00  0.00    +0.038 C 
BRANCH  22  23
ATOM     23  C   UNL     1       4.271  -4.971   3.308  0.00  0.00    -0.047 A 
ATOM     24  C   UNL     1       3.203  -5.530   3.984  0.00  0.00    +0.003 A 
ATOM     25  C   UNL     1       2.783  -6.811   3.675  0.00  0.00    +0.000 A 
ATOM     26  C   UNL     1       3.438  -7.535   2.696  0.00  0.00    +0.000 A 
ATOM     27  C   UNL     1       4.509  -6.978   2.023  0.00  0.00    +0.000 A 
ATOM     28  C   UNL     1       4.926  -5.696   2.329  0.00  0.00    +0.003 A 
ENDBRANCH  22  23
ENDBRANCH  17  22
ENDBRANCH   1  20
BRANCH   1  29
ATOM     29  C   UNL     1       2.006   0.603   0.027  0.00  0.00    +0.143 A 
ATOM     30  N   UNL     1       1.246  -0.464  -0.011  0.00  0.00    -0.115 NA
ATOM     31  N   UNL     1       0.018  -0.081   0.059  0.00  0.00    -0.023 NA
ATOM     32  N   UNL     1      -0.025   1.204   0.140  0.00  0.00    -0.044 NA
ATOM     33  N   UNL     1       1.181   1.662   0.123  0.00  0.00    -0.228 N 
BRANCH  33  34
ATOM     34  C   UNL     1       1.577   3.071   0.195  0.00  0.00    +0.178 C 
BRANCH  34  35
ATOM     35  C   UNL     1       1.770   3.473   1.659  0.00  0.00    +0.140 C 
ATOM     36  C   UNL     1       2.242   4.945   1.754  0.00  0.00    +0.035 C 
ATOM     37  C   UNL     1       1.756   5.318   3.182  0.00  0.00    +0.031 C 
ATOM     38  C   UNL     1       0.451   4.505   3.306  0.00  0.00    +0.160 C 
ATOM     39  O   UNL     1       0.514   3.436   2.355  0.00  0.00    -0.375 OA
ENDBRANCH  34  35
ENDBRANCH  33  34
ENDBRANCH   1  29
TORSDOF 7
