REMARK  Name = ZINC15953955
REMARK  6 active torsions:
REMARK  status: ('A' for Active; 'I' for Inactive)
REMARK    1  A    between atoms: C_1  and  C_2
REMARK    2  A    between atoms: C_2  and  O_3
REMARK    3  A    between atoms: O_3  and  C_4
REMARK    4  A    between atoms: C_9  and  C_10
REMARK    5  A    between atoms: N_29  and  C_32
REMARK    6  A    between atoms: C_32  and  C_33
REMARK                            x       y       z     vdW  Elec       q    Type
REMARK                         _______ _______ _______ _____ _____    ______ ____
ROOT
ATOM      1  C   UNL     1       1.258  -3.819  -5.529  0.00  0.00    +0.157 C 
ATOM      2  C   UNL     1       2.156  -5.006  -5.262  0.00  0.00    +0.046 A 
ATOM      3  C   UNL     1       2.902  -5.140  -4.144  0.00  0.00    -0.015 A 
ATOM      4  C   UNL     1       3.619  -6.393  -4.261  0.00  0.00    +0.003 A 
ATOM      5  C   UNL     1       4.527  -7.048  -3.422  0.00  0.00    +0.010 A 
ATOM      6  C   UNL     1       5.022  -8.250  -3.862  0.00  0.00    +0.001 A 
ATOM      7  C   UNL     1       4.649  -8.799  -5.078  0.00  0.00    +0.002 A 
ATOM      8  C   UNL     1       3.752  -8.174  -5.927  0.00  0.00    +0.026 A 
ATOM      9  C   UNL     1       3.232  -6.952  -5.506  0.00  0.00    +0.047 A 
ATOM     10  N   UNL     1       2.346  -6.087  -6.081  0.00  0.00    -0.356 N 
ATOM     11  H   UNL     1       1.916  -6.218  -6.941  0.00  0.00    +0.166 HD
ATOM     12  C   UNL     1       2.941  -4.143  -3.014  0.00  0.00    +0.069 C 
ATOM     13  C   UNL     1       2.383  -2.804  -3.518  0.00  0.00    +0.167 C 
ATOM     14  N   UNL     1       1.154  -3.049  -4.271  0.00  0.00    -0.276 N 
ATOM     15  C   UNL     1      -0.042  -2.607  -3.880  0.00  0.00    +0.234 C 
ATOM     16  O   UNL     1      -1.008  -2.925  -4.542  0.00  0.00    -0.274 OA
ATOM     17  C   UNL     1      -0.274  -1.751  -2.677  0.00  0.00    +0.204 C 
ATOM     18  N   UNL     1       0.966  -1.420  -1.995  0.00  0.00    -0.287 N 
ATOM     19  C   UNL     1       2.159  -1.885  -2.361  0.00  0.00    +0.237 C 
ATOM     20  O   UNL     1       3.125  -1.542  -1.713  0.00  0.00    -0.274 OA
ENDROOT
BRANCH   1  26
ATOM     21  C   UNL     1      -0.849  -3.557  -6.863  0.00  0.00    +0.126 A 
ATOM     22  C   UNL     1      -2.106  -3.998  -7.250  0.00  0.00    +0.046 A 
ATOM     23  C   UNL     1      -2.616  -5.171  -6.730  0.00  0.00    +0.004 A 
ATOM     24  C   UNL     1      -1.874  -5.906  -5.823  0.00  0.00    +0.001 A 
ATOM     25  C   UNL     1      -0.620  -5.471  -5.439  0.00  0.00    +0.009 A 
ATOM     26  C   UNL     1      -0.108  -4.295  -5.952  0.00  0.00    +0.020 A 
BRANCH  21  27
ATOM     27  O   UNL     1      -0.345  -2.403  -7.374  0.00  0.00    -0.492 OA
BRANCH  27  29
ATOM     28  C   UNL     1      -0.435  -0.431  -8.768  0.00  0.00    +0.048 C 
ATOM     29  C   UNL     1      -1.165  -1.694  -8.306  0.00  0.00    +0.225 C 
ENDBRANCH  27  29
ENDBRANCH  21  27
ENDBRANCH   1  26
BRANCH  18  30
ATOM     30  C   UNL     1       0.899  -0.528  -0.835  0.00  0.00    +0.143 C 
BRANCH  30  31
ATOM     31  C   UNL     1       1.053   0.901  -1.290  0.00  0.00    -0.026 A 
ATOM     32  C   UNL     1       2.311   1.469  -1.365  0.00  0.00    +0.009 A 
ATOM     33  C   UNL     1       2.456   2.779  -1.783  0.00  0.00    +0.050 A 
ATOM     34  C   UNL     1       1.341   3.525  -2.127  0.00  0.00    +0.166 A 
ATOM     35  C   UNL     1       0.074   2.952  -2.052  0.00  0.00    +0.167 A 
ATOM     36  C   UNL     1      -0.065   1.639  -1.633  0.00  0.00    +0.054 A 
ATOM     37  O   UNL     1      -0.848   3.879  -2.444  0.00  0.00    -0.453 OA
ATOM     38  C   UNL     1      -0.173   5.150  -2.361  0.00  0.00    +0.466 C 
ATOM     39  O   UNL     1       1.212   4.813  -2.562  0.00  0.00    -0.453 OA
ENDBRANCH  30  31
ENDBRANCH  18  30
TORSDOF 5
