REMARK  Name = ZINC15813397
REMARK  10 active torsions:
REMARK  status: ('A' for Active; 'I' for Inactive)
REMARK    1  A    between atoms: C_1  and  C_2
REMARK    2  A    between atoms: C_5  and  N_9
REMARK    3  A    between atoms: C_7  and  C_8
REMARK    4  A    between atoms: C_10  and  C_29
REMARK    5  A    between atoms: C_13  and  S_14
REMARK    6  A    between atoms: S_14  and  C_15
REMARK    7  A    between atoms: C_15  and  C_17
REMARK    8  A    between atoms: C_15  and  C_18
REMARK    9  A    between atoms: N_20  and  C_21
REMARK   10  A    between atoms: C_22  and  C_26
REMARK                            x       y       z     vdW  Elec       q    Type
REMARK                         _______ _______ _______ _____ _____    ______ ____
ROOT
ATOM      1  N   UNL     1       2.423   1.137  -0.037  0.00  0.00    -0.270 N 
ATOM      2  C   UNL     1       2.856   0.226  -0.975  0.00  0.00    +0.169 A 
ATOM      3  N   UNL     1       4.029  -0.210  -0.577  0.00  0.00    -0.128 NA
ATOM      4  N   UNL     1       4.356   0.357   0.529  0.00  0.00    -0.122 NA
ATOM      5  C   UNL     1       3.415   1.195   0.904  0.00  0.00    +0.197 A 
ENDROOT
BRANCH   1  10
ATOM      6  C   UNL     1      -2.443   4.059  -0.082  0.00  0.00    +0.044 C 
ATOM      7  C   UNL     1      -1.151   3.283  -0.070  0.00  0.00    -0.047 A 
ATOM      8  C   UNL     1      -1.170   1.912   0.112  0.00  0.00    +0.005 A 
ATOM      9  C   UNL     1       0.012   1.199   0.129  0.00  0.00    +0.026 A 
ATOM     10  C   UNL     1       1.221   1.859  -0.048  0.00  0.00    +0.051 A 
ATOM     11  C   UNL     1       1.238   3.234  -0.236  0.00  0.00    +0.030 A 
ATOM     12  C   UNL     1       0.052   3.942  -0.246  0.00  0.00    -0.046 A 
ATOM     13  C   UNL     1       0.068   5.436  -0.450  0.00  0.00    +0.044 C 
ENDBRANCH   1  10
BRANCH   2  14
ATOM     14  C   UNL     1       2.136  -0.184  -2.200  0.00  0.00    +0.020 A 
ATOM     15  C   UNL     1       2.497  -1.357  -2.865  0.00  0.00    +0.011 A 
ATOM     16  C   UNL     1       1.818  -1.737  -4.005  0.00  0.00    +0.001 A 
ATOM     17  C   UNL     1       0.788  -0.952  -4.494  0.00  0.00    +0.000 A 
ATOM     18  C   UNL     1       0.429   0.214  -3.841  0.00  0.00    +0.001 A 
ATOM     19  C   UNL     1       1.097   0.602  -2.698  0.00  0.00    +0.011 A 
ENDBRANCH   2  14
BRANCH   5  20
ATOM     20  S   UNL     1       3.426   2.202   2.350  0.00  0.00    -0.073 S 
BRANCH  20  21
ATOM     21  C   UNL     1       5.024   1.725   3.052  0.00  0.00    +0.137 C 
ATOM     22  C   UNL     1       6.147   2.167   2.112  0.00  0.00    +0.029 C 
BRANCH  21  23
ATOM     23  C   UNL     1       5.202   2.389   4.394  0.00  0.00    +0.231 C 
ATOM     24  O   UNL     1       4.544   3.367   4.678  0.00  0.00    -0.274 OA
ATOM     25  N   UNL     1       6.091   1.894   5.278  0.00  0.00    -0.278 N 
ATOM     26  H   UNL     1       6.617   1.112   5.051  0.00  0.00    +0.155 HD
BRANCH  25  27
ATOM     27  C   UNL     1       6.254   2.505   6.512  0.00  0.00    +0.084 A 
ATOM     28  C   UNL     1       7.108   2.144   7.548  0.00  0.00    +0.065 A 
ATOM     29  C   UNL     1       7.075   2.967   8.733  0.00  0.00    +0.022 A 
ATOM     30  C   UNL     1       6.218   4.004   8.737  0.00  0.00    +0.048 A 
ATOM     31  S   UNL     1       5.439   3.898   7.139  0.00  0.00    -0.081 S 
BRANCH  28  32
ATOM     32  C   UNL     1       8.000   0.985   7.441  0.00  0.00    +0.244 C 
ATOM     33  O   UNL     1       8.005   0.313   6.426  0.00  0.00    -0.270 OA
ATOM     34  N   UNL     1       8.814   0.665   8.466  0.00  0.00    -0.325 N 
ATOM     35  H   UNL     1       8.810   1.201   9.274  0.00  0.00    +0.145 HD
ATOM     36  H   UNL     1       9.404  -0.102   8.395  0.00  0.00    +0.145 HD
ENDBRANCH  28  32
ENDBRANCH  25  27
ENDBRANCH  21  23
ENDBRANCH  20  21
ENDBRANCH   5  20
TORSDOF 7
