REMARK  Name = ZINC05312216
REMARK  10 active torsions:
REMARK  status: ('A' for Active; 'I' for Inactive)
REMARK    1  A    between atoms: C_1  and  C_2
REMARK    2  A    between atoms: C_2  and  O_3
REMARK    3  A    between atoms: O_3  and  C_4
REMARK    4  A    between atoms: C_4  and  N_24
REMARK    5  A    between atoms: C_5  and  C_6
REMARK    6  A    between atoms: C_5  and  C_7
REMARK    7  A    between atoms: C_7  and  C_9
REMARK    8  A    between atoms: C_7  and  C_15
REMARK    9  A    between atoms: C_15  and  C_17
REMARK   10  A    between atoms: C_15  and  O_23
REMARK                            x       y       z     vdW  Elec       q    Type
REMARK                         _______ _______ _______ _____ _____    ______ ____
ROOT
ATOM      1  C   UNL     1       4.977  -1.416  -0.052  0.00  0.00    +0.083 C 
ENDROOT
BRANCH   1   2
ATOM      2  C   UNL     1       5.753  -1.631   1.222  0.00  0.00    -0.037 A 
ATOM      3  C   UNL     1       6.790  -0.778   1.551  0.00  0.00    +0.004 A 
ATOM      4  C   UNL     1       7.498  -0.972   2.722  0.00  0.00    +0.000 A 
ATOM      5  C   UNL     1       7.176  -2.025   3.558  0.00  0.00    +0.000 A 
ATOM      6  C   UNL     1       6.143  -2.880   3.226  0.00  0.00    +0.000 A 
ATOM      7  C   UNL     1       5.431  -2.683   2.058  0.00  0.00    +0.004 A 
ENDBRANCH   1   2
BRANCH   1   9
ATOM      8  C   UNL     1       3.007   0.047   0.026  0.00  0.00    +0.217 C 
ATOM      9  C   UNL     1       4.328  -0.056  -0.023  0.00  0.00    -0.001 C 
ATOM     10  C   UNL     1       5.181   1.186  -0.048  0.00  0.00    +0.045 C 
BRANCH   8  11
ATOM     11  N   UNL     1       2.402   1.302  -0.048  0.00  0.00    -0.180 N 
ATOM     12  C   UNL     1       1.560   1.754  -1.041  0.00  0.00    +0.098 A 
ATOM     13  C   UNL     1       1.055   1.193  -2.208  0.00  0.00    +0.030 A 
ATOM     14  C   UNL     1       0.215   1.931  -3.012  0.00  0.00    +0.002 A 
ATOM     15  C   UNL     1      -0.139   3.226  -2.658  0.00  0.00    +0.002 A 
ATOM     16  C   UNL     1       0.346   3.795  -1.517  0.00  0.00    +0.032 A 
ATOM     17  C   UNL     1       1.207   3.067  -0.685  0.00  0.00    +0.113 A 
ATOM     18  N   UNL     1       1.831   3.357   0.481  0.00  0.00    -0.129 NA
ATOM     19  N   UNL     1       2.531   2.352   0.874  0.00  0.00    -0.057 NA
ENDBRANCH   8  11
BRANCH   8  20
ATOM     20  O   UNL     1       2.243  -1.068   0.148  0.00  0.00    -0.477 OA
BRANCH  20  22
ATOM     21  C   UNL     1       0.606  -2.455   1.260  0.00  0.00    +0.048 C 
ATOM     22  C   UNL     1       1.491  -1.211   1.355  0.00  0.00    +0.227 C 
ENDBRANCH  20  22
ENDBRANCH   8  20
ENDBRANCH   1   9
BRANCH   1  23
ATOM     23  C   UNL     1       5.927  -1.502  -1.249  0.00  0.00    +0.156 C 
BRANCH  23  24
ATOM     24  C   UNL     1       6.576  -2.861  -1.279  0.00  0.00    -0.018 A 
ATOM     25  C   UNL     1       5.927  -3.924  -1.880  0.00  0.00    +0.006 A 
ATOM     26  C   UNL     1       6.524  -5.170  -1.911  0.00  0.00    +0.000 A 
ATOM     27  C   UNL     1       7.766  -5.356  -1.333  0.00  0.00    +0.000 A 
ATOM     28  C   UNL     1       8.412  -4.295  -0.727  0.00  0.00    +0.000 A 
ATOM     29  C   UNL     1       7.817  -3.048  -0.700  0.00  0.00    +0.006 A 
ENDBRANCH  23  24
BRANCH  23  30
ATOM     30  O   UNL     1       5.191  -1.298  -2.457  0.00  0.00    -0.386 OA
ATOM     31  H   UNL     1       4.489  -1.946  -2.603  0.00  0.00    +0.210 HD
ENDBRANCH  23  30
ENDBRANCH   1  23
TORSDOF 8
