REMARK  Name = ZINC04237230
REMARK  9 active torsions:
REMARK  status: ('A' for Active; 'I' for Inactive)
REMARK    1  A    between atoms: C_1  and  C_2
REMARK    2  A    between atoms: N_4  and  C_5
REMARK    3  A    between atoms: C_8  and  S_11
REMARK    4  A    between atoms: S_11  and  N_14
REMARK    5  A    between atoms: C_25  and  C_30
REMARK    6  A    between atoms: C_35  and  C_36
REMARK    7  A    between atoms: C_36  and  N_69
REMARK    8  A    between atoms: C_37  and  N_69
REMARK    9  A    between atoms: C_38  and  N_69
REMARK                            x       y       z     vdW  Elec       q    Type
REMARK                         _______ _______ _______ _____ _____    ______ ____
ROOT
ATOM      1  N   UNL     1      -4.478  -4.139   1.467  0.00  0.00    -0.176 NA
ATOM      2  C   UNL     1      -5.042  -3.632   2.723  0.00  0.00    +0.114 C 
ATOM      3  C   UNL     1      -5.505  -2.192   2.549  0.00  0.00    +0.025 C 
ATOM      4  C   UNL     1      -6.391  -2.046   1.312  0.00  0.00    +0.017 C 
ATOM      5  C   UNL     1      -5.588  -2.483   0.085  0.00  0.00    +0.052 C 
ATOM      6  C   UNL     1      -5.259  -3.979   0.230  0.00  0.00    +0.119 C 
ATOM      7  C   UNL     1      -4.279  -1.729   0.036  0.00  0.00    +0.026 A 
ATOM      8  C   UNL     1      -3.698  -1.571  -1.184  0.00  0.00    +0.022 A 
ATOM      9  C   UNL     1      -2.427  -1.004  -1.301  0.00  0.00    +0.015 A 
ATOM     10  C   UNL     1      -1.761  -0.622  -0.147  0.00  0.00    +0.047 A 
ATOM     11  C   UNL     1      -2.402  -0.802   1.099  0.00  0.00    +0.259 A 
ATOM     12  O   UNL     1      -1.810  -0.528   2.129  0.00  0.00    -0.267 OA
ATOM     13  N   UNL     1      -3.673  -1.272   1.157  0.00  0.00    -0.311 N 
ATOM     14  C   UNL     1      -4.336  -1.227   2.461  0.00  0.00    +0.130 C 
ENDROOT
BRANCH  10  15
ATOM     15  C   UNL     1      -0.401  -0.040  -0.219  0.00  0.00    -0.011 A 
ATOM     16  C   UNL     1      -0.211   1.327  -0.012  0.00  0.00    +0.009 A 
ATOM     17  C   UNL     1       1.058   1.863  -0.080  0.00  0.00    +0.001 A 
ATOM     18  C   UNL     1       2.142   1.048  -0.353  0.00  0.00    +0.000 A 
ATOM     19  C   UNL     1       1.961  -0.308  -0.559  0.00  0.00    +0.002 A 
ATOM     20  C   UNL     1       0.696  -0.856  -0.493  0.00  0.00    -0.056 A 
BRANCH  20  21
ATOM     21  C   UNL     1       0.501  -2.333  -0.717  0.00  0.00    -0.043 C 
BRANCH  21  24
ATOM     22  C   UNL     1       1.148  -2.326  -3.050  0.00  0.00    -0.096 C 
ATOM     23  C   UNL     1      -0.494  -3.918  -2.254  0.00  0.00    -0.096 C 
ATOM     24  N   UNL     1       0.034  -2.546  -2.103  0.00  0.00    +0.379 N 
ATOM     25  H   UNL     1      -0.716  -1.876  -2.309  0.00  0.00    -0.082 HD
ENDBRANCH  21  24
ENDBRANCH  20  21
ENDBRANCH  10  15
BRANCH   1  26
ATOM     26  S   UNL     1      -2.995  -4.876   1.442  0.00  0.00    +0.061 S 
ATOM     27  O   UNL     1      -2.460  -4.668   0.142  0.00  0.00    -0.153 OA
ATOM     28  O   UNL     1      -2.316  -4.463   2.620  0.00  0.00    -0.153 OA
BRANCH  26  32
ATOM     29  C   UNL     1      -3.705  -9.330   1.852  0.00  0.00    +0.033 A 
ATOM     30  C   UNL     1      -3.561  -8.761   0.593  0.00  0.00    +0.025 A 
ATOM     31  C   UNL     1      -3.345  -7.403   0.472  0.00  0.00    +0.030 A 
ATOM     32  C   UNL     1      -3.272  -6.609   1.601  0.00  0.00    +0.106 A 
ATOM     33  C   UNL     1      -3.409  -7.173   2.857  0.00  0.00    +0.030 A 
ATOM     34  C   UNL     1      -3.631  -8.530   2.985  0.00  0.00    +0.025 A 
BRANCH  29  38
ATOM     35  C   UNL     1      -3.697 -13.030   1.162  0.00  0.00    +0.109 C 
ATOM     36  C   UNL     1      -3.367 -11.561   1.098  0.00  0.00    +0.214 C 
ATOM     37  O   UNL     1      -2.602 -11.148   0.253  0.00  0.00    -0.276 OA
ATOM     38  N   UNL     1      -3.923 -10.706   1.979  0.00  0.00    -0.286 N 
ATOM     39  H   UNL     1      -4.475 -11.045   2.701  0.00  0.00    +0.155 HD
ENDBRANCH  29  38
ENDBRANCH  26  32
ENDBRANCH   1  26
TORSDOF 6
