REMARK  Name = ZINC12552587
REMARK  9 active torsions:
REMARK  status: ('A' for Active; 'I' for Inactive)
REMARK    1  A    between atoms: C_1  and  C_2
REMARK    2  A    between atoms: C_2  and  C_4
REMARK    3  A    between atoms: C_2  and  O_16
REMARK    4  A    between atoms: N_6  and  C_7
REMARK    5  A    between atoms: O_16  and  C_17
REMARK    6  A    between atoms: C_17  and  C_19
REMARK    7  A    between atoms: C_24  and  N_25
REMARK    8  A    between atoms: N_25  and  S_26
REMARK    9  A    between atoms: S_26  and  C_29
REMARK                            x       y       z     vdW  Elec       q    Type
REMARK                         _______ _______ _______ _____ _____    ______ ____
ROOT
ATOM      1  C   UNL     1       8.246  -3.575   4.269  0.00  0.00    +0.342 C 
ATOM      2  O   UNL     1       9.144  -2.833   3.924  0.00  0.00    -0.245 OA
ENDROOT
BRANCH   1   3
ATOM      3  C   UNL     1       8.548  -4.960   4.669  0.00  0.00    +0.081 A 
ATOM      4  C   UNL     1       7.518  -5.818   5.066  0.00  0.00    +0.017 A 
ATOM      5  C   UNL     1       7.807  -7.112   5.439  0.00  0.00    +0.001 A 
ATOM      6  C   UNL     1       9.116  -7.570   5.422  0.00  0.00    +0.002 A 
ATOM      7  C   UNL     1      10.143  -6.736   5.032  0.00  0.00    +0.025 A 
ATOM      8  C   UNL     1       9.871  -5.429   4.648  0.00  0.00    +0.062 A 
BRANCH   8   9
ATOM      9  N   UNL     1      10.903  -4.590   4.249  0.00  0.00    -0.215 N 
ATOM     10  H   UNL     1      10.872  -3.645   4.469  0.00  0.00    +0.174 HD
BRANCH   9  11
ATOM     11  S   UNL     1      12.186  -5.200   3.399  0.00  0.00    +0.072 S 
ATOM     12  O   UNL     1      12.992  -4.091   3.028  0.00  0.00    -0.150 OA
ATOM     13  O   UNL     1      12.692  -6.291   4.156  0.00  0.00    -0.150 OA
BRANCH  11  14
ATOM     14  C   UNL     1      11.544  -5.879   1.904  0.00  0.00    +0.109 A 
ATOM     15  C   UNL     1      11.154  -7.204   1.859  0.00  0.00    +0.031 A 
ATOM     16  C   UNL     1      10.647  -7.736   0.689  0.00  0.00    +0.040 A 
ATOM     17  C   UNL     1      10.539  -6.944  -0.441  0.00  0.00    +0.124 A 
ATOM     18  C   UNL     1      10.935  -5.618  -0.396  0.00  0.00    +0.040 A 
ATOM     19  C   UNL     1      11.437  -5.087   0.776  0.00  0.00    +0.031 A 
ATOM     20  F   UNL     1      10.047  -7.464  -1.587  0.00  0.00    -0.205 F 
ENDBRANCH  11  14
ENDBRANCH   9  11
ENDBRANCH   8   9
ENDBRANCH   1   3
BRANCH   1  21
ATOM     21  O   UNL     1       6.973  -3.131   4.285  0.00  0.00    -0.449 OA
BRANCH  21  23
ATOM     22  C   UNL     1       6.839  -0.841   5.102  0.00  0.00    +0.062 C 
ATOM     23  C   UNL     1       6.750  -1.756   3.879  0.00  0.00    +0.259 C 
BRANCH  23  24
ATOM     24  C   UNL     1       5.382  -1.631   3.258  0.00  0.00    +0.258 C 
ATOM     25  O   UNL     1       4.631  -2.584   3.249  0.00  0.00    -0.271 OA
ATOM     26  N   UNL     1       4.993  -0.462   2.713  0.00  0.00    -0.282 N 
ATOM     27  H   UNL     1       5.620   0.277   2.651  0.00  0.00    +0.155 HD
BRANCH  26  28
ATOM     28  C   UNL     1       3.685  -0.312   2.235  0.00  0.00    +0.037 A 
ATOM     29  C   UNL     1       3.436   0.494   1.132  0.00  0.00    +0.027 A 
ATOM     30  C   UNL     1       2.146   0.642   0.660  0.00  0.00    +0.051 A 
ATOM     31  C   UNL     1       1.097  -0.012   1.286  0.00  0.00    +0.166 A 
ATOM     32  C   UNL     1       1.343  -0.821   2.393  0.00  0.00    +0.168 A 
ATOM     33  C   UNL     1       2.637  -0.969   2.865  0.00  0.00    +0.072 A 
ATOM     34  O   UNL     1       0.159  -1.346   2.822  0.00  0.00    -0.453 OA
ATOM     35  C   UNL     1      -0.756  -1.180   1.723  0.00  0.00    +0.466 C 
ATOM     36  O   UNL     1      -0.243  -0.032   1.021  0.00  0.00    -0.453 OA
ENDBRANCH  26  28
ENDBRANCH  23  24
ENDBRANCH  21  23
ENDBRANCH   1  21
TORSDOF 8
