REMARK  Name = ZINC00623053
REMARK  7 active torsions:
REMARK  status: ('A' for Active; 'I' for Inactive)
REMARK    1  A    between atoms: C_6  and  C_11
REMARK    2  A    between atoms: C_18  and  N_39
REMARK    3  A    between atoms: C_19  and  C_37
REMARK    4  A    between atoms: C_20  and  C_22
REMARK    5  A    between atoms: C_26  and  O_28
REMARK    6  A    between atoms: O_28  and  C_29
REMARK    7  A    between atoms: C_29  and  C_30
REMARK                            x       y       z     vdW  Elec       q    Type
REMARK                         _______ _______ _______ _____ _____    ______ ____
ROOT
ATOM      1  C   UNL     1       5.276  -2.965  -0.208  0.00  0.00    +0.100 A 
ATOM      2  C   UNL     1       5.423  -4.059   0.649  0.00  0.00    +0.054 A 
ATOM      3  C   UNL     1       6.696  -4.534   0.513  0.00  0.00    +0.223 A 
ATOM      4  N   UNL     1       7.325  -3.765  -0.399  0.00  0.00    -0.246 N 
ATOM      5  H   UNL     1       8.242  -3.870  -0.698  0.00  0.00    +0.192 HD
ATOM      6  N   UNL     1       6.419  -2.790  -0.844  0.00  0.00    -0.171 NA
ATOM      7  O   UNL     1       7.159  -5.597   1.216  0.00  0.00    -0.423 OA
ATOM      8  C   UNL     1       6.425  -6.022   2.264  0.00  0.00    +0.200 C 
ATOM      9  C   UNL     1       5.151  -5.633   2.496  0.00  0.00    +0.098 C 
ATOM     10  C   UNL     1       4.419  -4.677   1.588  0.00  0.00    +0.102 C 
ENDROOT
BRANCH   1  16
ATOM     11  C   UNL     1       0.191   0.539  -2.060  0.00  0.00    +0.001 A 
ATOM     12  C   UNL     1       0.927   0.175  -3.186  0.00  0.00    +0.001 A 
ATOM     13  C   UNL     1       2.058  -0.573  -3.071  0.00  0.00    +0.008 A 
ATOM     14  C   UNL     1       2.492  -0.987  -1.799  0.00  0.00    -0.017 A 
ATOM     15  C   UNL     1       3.654  -1.760  -1.644  0.00  0.00    +0.018 A 
ATOM     16  C   UNL     1       4.049  -2.147  -0.378  0.00  0.00    +0.003 A 
ATOM     17  C   UNL     1       3.299  -1.775   0.749  0.00  0.00    +0.011 A 
ATOM     18  C   UNL     1       2.172  -1.028   0.621  0.00  0.00    +0.009 A 
ATOM     19  C   UNL     1       1.743  -0.617  -0.654  0.00  0.00    -0.018 A 
ATOM     20  C   UNL     1       0.581   0.156  -0.813  0.00  0.00    +0.008 A 
ENDBRANCH   1  16
BRANCH  10  21
ATOM     21  C   UNL     1       3.376  -5.424   0.797  0.00  0.00    -0.031 A 
ATOM     22  C   UNL     1       3.758  -6.418  -0.084  0.00  0.00    +0.005 A 
ATOM     23  C   UNL     1       2.804  -7.106  -0.811  0.00  0.00    +0.004 A 
ATOM     24  C   UNL     1       1.465  -6.800  -0.658  0.00  0.00    +0.045 A 
ATOM     25  C   UNL     1       1.079  -5.803   0.226  0.00  0.00    +0.121 A 
ATOM     26  C   UNL     1       2.039  -5.119   0.958  0.00  0.00    +0.050 A 
BRANCH  25  27
ATOM     27  O   UNL     1      -0.237  -5.500   0.378  0.00  0.00    -0.487 OA
BRANCH  27  28
ATOM     28  C   UNL     1      -1.169  -6.249  -0.404  0.00  0.00    +0.267 C 
BRANCH  28  29
ATOM     29  C   UNL     1      -2.569  -5.778  -0.104  0.00  0.00    +0.025 A 
ATOM     30  C   UNL     1      -2.775  -4.760   0.808  0.00  0.00    +0.010 A 
ATOM     31  C   UNL     1      -4.059  -4.328   1.083  0.00  0.00    +0.001 A 
ATOM     32  C   UNL     1      -5.138  -4.912   0.446  0.00  0.00    +0.003 A 
ATOM     33  C   UNL     1      -4.934  -5.930  -0.466  0.00  0.00    +0.039 A 
ATOM     34  C   UNL     1      -3.648  -6.360  -0.747  0.00  0.00    +0.130 A 
ATOM     35  F   UNL     1      -3.447  -7.352  -1.642  0.00  0.00    -0.205 F 
ENDBRANCH  28  29
ENDBRANCH  27  28
ENDBRANCH  25  27
ENDBRANCH  10  21
BRANCH   8  36
ATOM     36  N   UNL     1       7.004  -6.899   3.147  0.00  0.00    -0.328 N 
ATOM     37  H   UNL     1       7.917  -7.196   3.007  0.00  0.00    +0.145 HD
ATOM     38  H   UNL     1       6.501  -7.222   3.911  0.00  0.00    +0.145 HD
ENDBRANCH   8  36
BRANCH   9  39
ATOM     39  C   UNL     1       4.471  -6.149   3.647  0.00  0.00    +0.101 C 
ATOM     40  N   UNL     1       3.932  -6.557   4.559  0.00  0.00    -0.191 NA
ENDBRANCH   9  39
TORSDOF 7
