REMARK  Name = ZINC06193696
REMARK  10 active torsions:
REMARK  status: ('A' for Active; 'I' for Inactive)
REMARK    1  A    between atoms: C_1  and  C_2
REMARK    2  A    between atoms: C_2  and  N_69
REMARK    3  A    between atoms: C_3  and  C_4
REMARK    4  A    between atoms: C_3  and  N_69
REMARK    5  A    between atoms: C_10  and  C_12
REMARK    6  A    between atoms: C_10  and  C_26
REMARK    7  A    between atoms: C_10  and  N_69
REMARK    8  A    between atoms: C_15  and  C_25
REMARK    9  A    between atoms: C_18  and  C_24
REMARK   10  A    between atoms: N_30  and  C_31
REMARK                            x       y       z     vdW  Elec       q    Type
REMARK                         _______ _______ _______ _____ _____    ______ ____
ROOT
ATOM      1  C   UNL     1       2.475   1.185  -0.008  0.00  0.00    +0.039 C 
ENDROOT
BRANCH   1   2
ATOM      2  C   UNL     1       1.287   2.111   0.040  0.00  0.00    +0.011 A 
ATOM      3  C   UNL     1       0.041   1.603   0.209  0.00  0.00    +0.018 A 
ATOM      4  C   UNL     1      -1.093   2.528   0.246  0.00  0.00    +0.002 A 
ATOM      5  C   UNL     1      -2.400   2.064   0.423  0.00  0.00    -0.041 A 
ATOM      6  C   UNL     1      -3.436   2.954   0.458  0.00  0.00    +0.004 A 
ATOM      7  C   UNL     1      -3.202   4.316   0.325  0.00  0.00    +0.005 A 
ATOM      8  C   UNL     1      -1.921   4.796   0.155  0.00  0.00    -0.026 A 
ATOM      9  C   UNL     1      -0.851   3.909   0.116  0.00  0.00    +0.052 A 
ATOM     10  N   UNL     1       0.440   4.362  -0.053  0.00  0.00    -0.322 N 
ATOM     11  H   UNL     1       0.610   5.342  -0.149  0.00  0.00    +0.169 HD
ATOM     12  C   UNL     1       1.475   3.503  -0.091  0.00  0.00    +0.251 A 
ATOM     13  O   UNL     1       2.603   3.939  -0.241  0.00  0.00    -0.268 OA
ATOM     14  C   UNL     1      -1.682   6.277   0.012  0.00  0.00    +0.046 C 
ATOM     15  C   UNL     1      -2.666   0.588   0.567  0.00  0.00    +0.044 C 
ENDBRANCH   1   2
BRANCH   1  16
ATOM     16  C   UNL     1       3.354   1.433   1.191  0.00  0.00    +0.143 A 
ATOM     17  N   UNL     1       4.164   2.448   1.371  0.00  0.00    -0.115 NA
ATOM     18  N   UNL     1       4.736   2.302   2.517  0.00  0.00    -0.023 NA
ATOM     19  N   UNL     1       4.317   1.217   3.068  0.00  0.00    -0.044 NA
ATOM     20  N   UNL     1       3.464   0.652   2.282  0.00  0.00    -0.227 N 
BRANCH  20  21
ATOM     21  C   UNL     1       2.749  -0.602   2.530  0.00  0.00    +0.111 C 
ATOM     22  C   UNL     1       1.908  -0.467   3.801  0.00  0.00    +0.027 C 
ATOM     23  C   UNL     1       1.162  -1.777   4.061  0.00  0.00    +0.002 C 
ATOM     24  C   UNL     1       2.171  -2.913   4.235  0.00  0.00    +0.000 C 
ATOM     25  C   UNL     1       3.012  -3.048   2.964  0.00  0.00    +0.002 C 
ATOM     26  C   UNL     1       3.759  -1.738   2.705  0.00  0.00    +0.027 C 
ENDBRANCH  20  21
ENDBRANCH   1  16
BRANCH   1  27
ATOM     27  N   UNL     1       3.250   1.462  -1.236  0.00  0.00    +0.392 N 
ATOM     28  H   UNL     1       3.587   2.431  -1.206  0.00  0.00    -0.080 HD
BRANCH  27  30
ATOM     29  C   UNL     1       1.851  -0.142  -2.493  0.00  0.00    -0.017 C 
ATOM     30  C   UNL     1       2.391   1.288  -2.425  0.00  0.00    -0.080 C 
ENDBRANCH  27  30
BRANCH  27  31
ATOM     31  C   UNL     1       4.412   0.552  -1.315  0.00  0.00    -0.042 C 
BRANCH  31  32
ATOM     32  C   UNL     1       5.301   0.997  -2.448  0.00  0.00    -0.064 A 
ATOM     33  C   UNL     1       5.119   0.475  -3.715  0.00  0.00    +0.002 A 
ATOM     34  C   UNL     1       5.930   0.886  -4.755  0.00  0.00    +0.000 A 
ATOM     35  C   UNL     1       6.931   1.812  -4.527  0.00  0.00    +0.000 A 
ATOM     36  C   UNL     1       7.117   2.329  -3.258  0.00  0.00    +0.000 A 
ATOM     37  C   UNL     1       6.302   1.922  -2.219  0.00  0.00    +0.002 A 
ENDBRANCH  31  32
ENDBRANCH  27  31
ENDBRANCH   1  27
TORSDOF 7
