REMARK  Name = ZINC12130150
REMARK  6 active torsions:
REMARK  status: ('A' for Active; 'I' for Inactive)
REMARK    1  A    between atoms: C_1  and  C_2
REMARK    2  A    between atoms: C_2  and  C_3
REMARK    3  A    between atoms: C_2  and  C_4
REMARK    4  A    between atoms: C_2  and  C_5
REMARK    5  A    between atoms: N_7  and  C_8
REMARK    6  A    between atoms: C_10  and  C_25
REMARK                            x       y       z     vdW  Elec       q    Type
REMARK                         _______ _______ _______ _____ _____    ______ ____
ROOT
ATOM      1  C   UNL     1      -1.232   2.023   0.019  0.00  0.00    +0.132 A 
ATOM      2  C   UNL     1      -2.470   1.460   0.022  0.00  0.00    +0.069 A 
ATOM      3  C   UNL     1      -3.412   2.494   0.033  0.00  0.00    +0.068 A 
ATOM      4  N   UNL     1      -2.777   3.637   0.036  0.00  0.00    -0.167 NA
ATOM      5  N   UNL     1      -1.400   3.378   0.033  0.00  0.00    -0.185 N 
ATOM      6  C   UNL     1      -0.393   4.325   0.039  0.00  0.00    +0.234 A 
ATOM      7  N   UNL     1      -0.715   5.645   0.053  0.00  0.00    -0.291 N 
ATOM      8  H   UNL     1      -1.645   5.920   0.061  0.00  0.00    +0.172 HD
ATOM      9  C   UNL     1       0.267   6.569   0.056  0.00  0.00    +0.256 A 
ATOM     10  O   UNL     1      -0.003   7.758   0.070  0.00  0.00    -0.267 OA
ATOM     11  C   UNL     1       1.613   6.139   0.043  0.00  0.00    +0.038 A 
ATOM     12  C   UNL     1       1.875   4.809   0.037  0.00  0.00    +0.053 A 
ATOM     13  N   UNL     1       0.860   3.934   0.038  0.00  0.00    -0.217 NA
ATOM     14  C   UNL     1       3.277   4.257   0.036  0.00  0.00    +0.056 C 
ATOM     15  C   UNL     1       4.275   5.327  -0.401  0.00  0.00    +0.006 C 
ATOM     16  C   UNL     1       4.033   6.586   0.440  0.00  0.00    +0.005 C 
ATOM     17  C   UNL     1       2.691   7.188   0.028  0.00  0.00    +0.042 C 
ENDROOT
BRANCH   1  20
ATOM     18  C   UNL     1       0.002  -0.004   0.002  0.00  0.00    +0.224 C 
ATOM     19  O   UNL     1      -1.040  -0.625   0.009  0.00  0.00    -0.275 OA
ATOM     20  N   UNL     1      -0.016   1.344   0.009  0.00  0.00    -0.270 N 
ATOM     21  H   UNL     1       0.817   1.840   0.004  0.00  0.00    +0.156 HD
BRANCH  18  23
ATOM     22  C   UNL     1       1.058  -2.248  -0.020  0.00  0.00    +0.020 C 
ATOM     23  C   UNL     1       1.317  -0.740  -0.015  0.00  0.00    +0.039 C 
ATOM     24  C   UNL     1       2.103  -0.352  -1.269  0.00  0.00    +0.020 C 
ATOM     25  C   UNL     1       2.126  -0.366   1.229  0.00  0.00    +0.020 C 
ENDBRANCH  18  23
ENDBRANCH   1  20
BRANCH   3  26
ATOM     26  C   UNL     1      -4.909   2.320   0.040  0.00  0.00    +0.040 C 
ATOM     27  C   UNL     1      -5.462   0.946  -0.345  0.00  0.00    +0.010 C 
ATOM     28  C   UNL     1      -5.604   2.126  -1.310  0.00  0.00    +0.010 C 
ENDBRANCH   3  26
TORSDOF 3
