REMARK  Name = ZINC04810851
REMARK  7 active torsions:
REMARK  status: ('A' for Active; 'I' for Inactive)
REMARK    1  A    between atoms: C_1  and  C_2
REMARK    2  A    between atoms: C_2  and  C_3
REMARK    3  A    between atoms: C_3  and  S_4
REMARK    4  A    between atoms: S_4  and  C_5
REMARK    5  A    between atoms: C_16  and  C_19
REMARK    6  A    between atoms: C_21  and  N_27
REMARK    7  A    between atoms: C_22  and  C_25
REMARK                            x       y       z     vdW  Elec       q    Type
REMARK                         _______ _______ _______ _____ _____    ______ ____
ROOT
ATOM      1  C   UNL     1      -3.121  -2.795   0.171  0.00  0.00    +0.191 A 
ATOM      2  N   UNL     1      -3.455  -4.080   0.167  0.00  0.00    -0.202 NA
ATOM      3  C   UNL     1      -4.707  -4.480   0.030  0.00  0.00    +0.169 A 
ATOM      4  C   UNL     1      -5.734  -3.509  -0.119  0.00  0.00    +0.055 A 
ATOM      5  C   UNL     1      -7.175  -3.718  -0.282  0.00  0.00    -0.024 A 
ATOM      6  C   UNL     1      -7.942  -2.618  -0.406  0.00  0.00    -0.004 A 
ATOM      7  S   UNL     1      -6.814  -1.253  -0.316  0.00  0.00    -0.073 S 
ATOM      8  C   UNL     1      -5.307  -2.165  -0.108  0.00  0.00    +0.115 A 
ATOM      9  N   UNL     1      -4.037  -1.845   0.040  0.00  0.00    -0.214 NA
ATOM     10  C   UNL     1      -9.430  -2.563  -0.582  0.00  0.00    +0.043 C 
ATOM     11  C   UNL     1     -10.010  -3.940  -0.227  0.00  0.00    +0.009 C 
ATOM     12  C   UNL     1      -9.188  -5.017  -0.941  0.00  0.00    -0.009 C 
ATOM     13  C   UNL     1      -7.798  -5.111  -0.312  0.00  0.00    +0.040 C 
ATOM     14  C   UNL     1      -9.896  -6.367  -0.810  0.00  0.00    +0.008 C 
ATOM     15  N   UNL     1      -5.016  -5.838   0.030  0.00  0.00    -0.199 N 
ATOM     16  C   UNL     1      -4.505  -6.771  -0.817  0.00  0.00    +0.139 A 
ATOM     17  C   UNL     1      -5.078  -7.991  -0.469  0.00  0.00    +0.111 A 
ATOM     18  C   UNL     1      -5.949  -7.746   0.618  0.00  0.00    +0.155 A 
ATOM     19  N   UNL     1      -5.900  -6.476   0.906  0.00  0.00    -0.170 NA
ENDROOT
BRANCH  16  20
ATOM     20  N   UNL     1      -3.593  -6.550  -1.829  0.00  0.00    -0.342 N 
ATOM     21  H   UNL     1      -3.253  -5.655  -1.989  0.00  0.00    +0.144 HD
ATOM     22  H   UNL     1      -3.291  -7.289  -2.379  0.00  0.00    +0.144 HD
ENDBRANCH  16  20
BRANCH  17  23
ATOM     23  C   UNL     1      -4.832  -9.255  -1.095  0.00  0.00    +0.104 C 
ATOM     24  N   UNL     1      -4.637 -10.258  -1.592  0.00  0.00    -0.191 NA
ENDBRANCH  17  23
BRANCH   1  25
ATOM     25  S   UNL     1      -1.428  -2.343   0.361  0.00  0.00    -0.086 S 
BRANCH  25  26
ATOM     26  C   UNL     1      -1.451  -0.530   0.315  0.00  0.00    +0.077 C 
BRANCH  26  28
ATOM     27  C   UNL     1      -0.043   1.532   0.433  0.00  0.00    +0.004 C 
ATOM     28  C   UNL     1      -0.025   0.002   0.471  0.00  0.00    +0.008 C 
ENDBRANCH  26  28
ENDBRANCH  25  26
ENDBRANCH   1  25
TORSDOF 5
