REMARK  Name = ZINC12358828
REMARK  6 active torsions:
REMARK  status: ('A' for Active; 'I' for Inactive)
REMARK    1  A    between atoms: C_4  and  N_7
REMARK    2  A    between atoms: N_8  and  C_9
REMARK    3  A    between atoms: C_10  and  S_24
REMARK    4  A    between atoms: C_14  and  S_21
REMARK    5  A    between atoms: C_16  and  O_20
REMARK    6  A    between atoms: C_18  and  O_19
REMARK                            x       y       z     vdW  Elec       q    Type
REMARK                         _______ _______ _______ _____ _____    ______ ____
ROOT
ATOM      1  C   UNL     1       2.401   1.417  -0.014  0.00  0.00    +0.155 A 
ATOM      2  C   UNL     1       2.399   0.009  -0.022  0.00  0.00    +0.151 A 
ATOM      3  C   UNL     1       1.235  -0.686  -0.014  0.00  0.00    +0.040 A 
ATOM      4  C   UNL     1       0.002  -0.004   0.002  0.00  0.00    -0.007 A 
ATOM      5  C   UNL     1      -1.212  -0.710   0.011  0.00  0.00    +0.038 A 
ATOM      6  C   UNL     1      -2.394  -0.032   0.027  0.00  0.00    +0.124 A 
ATOM      7  C   UNL     1      -2.424   1.359   0.035  0.00  0.00    +0.075 A 
ATOM      8  C   UNL     1      -1.254   2.088   0.031  0.00  0.00    +0.130 A 
ATOM      9  C   UNL     1      -0.017   1.413   0.010  0.00  0.00    +0.067 A 
ATOM     10  C   UNL     1       1.197   2.123   0.002  0.00  0.00    +0.157 A 
ENDROOT
BRANCH   6  11
ATOM     11  S   UNL     1      -3.909  -0.932   0.037  0.00  0.00    +0.140 S 
ATOM     12  O   UNL     1      -4.899  -0.066  -0.498  0.00  0.00    -0.140 OA
ATOM     13  O   UNL     1      -3.627  -2.207  -0.523  0.00  0.00    -0.140 OA
ATOM     14  O   UNL     1      -4.280  -1.169   1.494  0.00  0.00    -0.043 OA
ENDBRANCH   6  11
BRANCH   2  15
ATOM     15  S   UNL     1       3.931  -0.862  -0.042  0.00  0.00    +0.142 S 
ATOM     16  O   UNL     1       4.199  -1.182  -1.400  0.00  0.00    -0.140 OA
ATOM     17  O   UNL     1       4.836  -0.111   0.756  0.00  0.00    -0.140 OA
ATOM     18  O   UNL     1       3.707  -2.183   0.680  0.00  0.00    -0.043 OA
ENDBRANCH   2  15
BRANCH   1  20
ATOM     19  N   UNL     1       3.588   3.383  -0.014  0.00  0.00    -0.149 NA
ATOM     20  N   UNL     1       3.583   2.093  -0.021  0.00  0.00    -0.144 NA
BRANCH  19  24
ATOM     21  C   UNL     1       7.179   5.438  -0.036  0.00  0.00    +0.000 A 
ATOM     22  C   UNL     1       5.985   6.138  -0.021  0.00  0.00    +0.002 A 
ATOM     23  C   UNL     1       4.784   5.460  -0.014  0.00  0.00    +0.029 A 
ATOM     24  C   UNL     1       4.775   4.062  -0.022  0.00  0.00    +0.086 A 
ATOM     25  C   UNL     1       5.984   3.362  -0.032  0.00  0.00    +0.029 A 
ATOM     26  C   UNL     1       7.177   4.054  -0.044  0.00  0.00    +0.002 A 
ENDBRANCH  19  24
ENDBRANCH   1  20
BRANCH  10  27
ATOM     27  O   UNL     1       1.198   3.478   0.009  0.00  0.00    -0.504 OA
ATOM     28  H   UNL     1       1.206   3.867   0.894  0.00  0.00    +0.292 HD
ENDBRANCH  10  27
BRANCH   8  29
ATOM     29  O   UNL     1      -1.294   3.445   0.039  0.00  0.00    -0.506 OA
ATOM     30  H   UNL     1      -1.318   3.842  -0.842  0.00  0.00    +0.292 HD
ENDBRANCH   8  29
TORSDOF 6
