REMARK  Name = ZINC39604334
REMARK  8 active torsions:
REMARK  status: ('A' for Active; 'I' for Inactive)
REMARK    1  A    between atoms: C_1  and  C_2
REMARK    2  A    between atoms: C_2  and  O_3
REMARK    3  A    between atoms: O_3  and  C_4
REMARK    4  A    between atoms: C_4  and  C_5
REMARK    5  A    between atoms: C_5  and  C_6
REMARK    6  A    between atoms: C_6  and  N_7
REMARK    7  A    between atoms: C_8  and  C_10
REMARK    8  A    between atoms: C_21  and  C_23
REMARK                            x       y       z     vdW  Elec       q    Type
REMARK                         _______ _______ _______ _____ _____    ______ ____
ROOT
ATOM      1  C   UNL     1       3.284  -5.743  -5.738  0.00  0.00    +0.100 C 
ATOM      2  C   UNL     1       4.714  -5.162  -5.664  0.00  0.00    +0.121 C 
ATOM      3  N   UNL     1       5.528  -6.247  -5.067  0.00  0.00    -0.296 N 
ATOM      4  C   UNL     1       5.002  -7.486  -5.687  0.00  0.00    +0.115 C 
ATOM      5  C   UNL     1       3.478  -7.268  -5.757  0.00  0.00    -0.004 C 
ATOM      6  C   UNL     1       2.800  -7.902  -4.546  0.00  0.00    -0.010 C 
ATOM      7  C   UNL     1       2.958  -9.423  -4.616  0.00  0.00    -0.082 C 
ATOM      8  N   UNL     1       2.353  -9.923  -5.857  0.00  0.00    +0.379 N 
ATOM      9  C   UNL     1       3.071  -9.381  -7.017  0.00  0.00    -0.082 C 
ATOM     10  C   UNL     1       2.918  -7.857  -7.048  0.00  0.00    -0.010 C 
ATOM     11  C   UNL     1       6.522  -6.132  -4.164  0.00  0.00    +0.247 C 
ATOM     12  O   UNL     1       7.159  -7.113  -3.834  0.00  0.00    -0.270 OA
ATOM     13  H   UNL     1       2.405 -10.930  -5.873  0.00  0.00    -0.086 HD
ATOM     14  H   UNL     1       1.387  -9.637  -5.898  0.00  0.00    -0.086 HD
ENDROOT
BRANCH  11  15
ATOM     15  C   UNL     1       6.838  -4.814  -3.577  0.00  0.00    +0.045 A 
ATOM     16  C   UNL     1       7.034  -3.703  -4.406  0.00  0.00    +0.014 A 
ATOM     17  C   UNL     1       7.327  -2.473  -3.861  0.00  0.00    +0.001 A 
ATOM     18  C   UNL     1       7.433  -2.320  -2.487  0.00  0.00    +0.012 A 
ATOM     19  C   UNL     1       7.242  -3.410  -1.646  0.00  0.00    +0.031 A 
ATOM     20  C   UNL     1       6.936  -4.669  -2.187  0.00  0.00    +0.006 A 
ATOM     21  C   UNL     1       6.779  -5.640  -1.076  0.00  0.00    -0.006 A 
ATOM     22  C   UNL     1       6.485  -6.997  -1.066  0.00  0.00    +0.009 A 
ATOM     23  C   UNL     1       6.395  -7.678   0.138  0.00  0.00    +0.001 A 
ATOM     24  C   UNL     1       6.596  -7.016   1.334  0.00  0.00    +0.001 A 
ATOM     25  C   UNL     1       6.891  -5.662   1.341  0.00  0.00    +0.012 A 
ATOM     26  C   UNL     1       6.984  -4.968   0.141  0.00  0.00    +0.030 A 
ATOM     27  C   UNL     1       7.291  -3.551  -0.171  0.00  0.00    +0.194 C 
ATOM     28  O   UNL     1       7.524  -2.669   0.631  0.00  0.00    -0.287 OA
ENDBRANCH  11  15
BRANCH   1  30
ATOM     29  N   UNL     1       1.150  -5.182  -4.620  0.00  0.00    -0.315 N 
ATOM     30  C   UNL     1       2.486  -5.330  -4.528  0.00  0.00    +0.218 C 
ATOM     31  O   UNL     1       3.047  -5.131  -3.471  0.00  0.00    -0.275 OA
ATOM     32  H   UNL     1       0.701  -5.341  -5.465  0.00  0.00    +0.149 HD
BRANCH  29  33
ATOM     33  C   UNL     1       0.375  -4.780  -3.444  0.00  0.00    +0.106 C 
BRANCH  33  34
ATOM     34  C   UNL     1      -1.106  -4.686  -3.817  0.00  0.00    +0.047 C 
BRANCH  34  35
ATOM     35  C   UNL     1      -1.916  -4.267  -2.588  0.00  0.00    +0.161 C 
BRANCH  35  36
ATOM     36  O   UNL     1      -3.299  -4.178  -2.936  0.00  0.00    -0.380 OA
BRANCH  36  38
ATOM     37  C   UNL     1      -5.597  -3.730  -2.339  0.00  0.00    +0.034 C 
ATOM     38  C   UNL     1      -4.147  -3.791  -1.854  0.00  0.00    +0.156 C 
ENDBRANCH  36  38
ENDBRANCH  35  36
ENDBRANCH  34  35
ENDBRANCH  33  34
ENDBRANCH  29  33
ENDBRANCH   1  30
TORSDOF 7
