REMARK  Name = ZINC49162357
REMARK  5 active torsions:
REMARK  status: ('A' for Active; 'I' for Inactive)
REMARK    1  A    between atoms: C_1  and  C_2
REMARK    2  A    between atoms: C_5  and  C_7
REMARK    3  A    between atoms: C_7  and  C_9
REMARK    4  A    between atoms: C_7  and  N_10
REMARK    5  A    between atoms: N_10  and  C_11
REMARK                            x       y       z     vdW  Elec       q    Type
REMARK                         _______ _______ _______ _____ _____    ______ ____
ROOT
ATOM      1  C   UNL     1       2.663  -5.544   0.941  0.00  0.00    +0.050 C 
ATOM      2  C   UNL     1       3.912  -5.648   1.785  0.00  0.00    -0.030 A 
ATOM      3  C   UNL     1       5.176  -5.117   1.656  0.00  0.00    +0.022 A 
ATOM      4  C   UNL     1       6.141  -5.392   2.608  0.00  0.00    +0.053 A 
ATOM      5  C   UNL     1       5.831  -6.202   3.689  0.00  0.00    +0.139 A 
ATOM      6  C   UNL     1       4.564  -6.736   3.819  0.00  0.00    +0.063 A 
ATOM      7  C   UNL     1       3.588  -6.462   2.863  0.00  0.00    +0.038 A 
ATOM      8  N   UNL     1       2.258  -6.875   2.773  0.00  0.00    -0.286 N 
ATOM      9  C   UNL     1       1.644  -6.386   1.679  0.00  0.00    +0.208 C 
ATOM     10  O   UNL     1       0.493  -6.580   1.347  0.00  0.00    -0.277 OA
ATOM     11  F   UNL     1       6.773  -6.473   4.619  0.00  0.00    -0.204 F 
ATOM     12 BR   UNL     1       7.878  -4.665   2.436  0.00  0.00    -0.047 Br
ATOM     13  H   UNL     1       1.825  -7.450   3.423  0.00  0.00    +0.155 HD
ENDROOT
BRANCH   1  14
ATOM     14  N   UNL     1       2.213  -4.147   0.857  0.00  0.00    +0.394 N 
ATOM     15  H   UNL     1       2.957  -3.576   0.487  0.00  0.00    -0.083 HD
ATOM     16  H   UNL     1       1.963  -3.819   1.778  0.00  0.00    -0.083 HD
BRANCH  14  17
ATOM     17  C   UNL     1       1.043  -4.062  -0.027  0.00  0.00    -0.036 C 
ATOM     18  C   UNL     1       1.452  -4.441  -1.452  0.00  0.00    -0.008 C 
BRANCH  17  23
ATOM     19  C   UNL     1      -0.018   1.503   0.010  0.00  0.00    +0.051 C 
ATOM     20  C   UNL     1       0.002  -0.004   0.002  0.00  0.00    -0.013 A 
ATOM     21  C   UNL     1      -1.039  -0.872   0.002  0.00  0.00    +0.011 A 
ATOM     22  C   UNL     1      -0.780  -2.230  -0.007  0.00  0.00    +0.010 A 
ATOM     23  C   UNL     1       0.507  -2.653  -0.016  0.00  0.00    -0.024 A 
ATOM     24  S   UNL     1       1.404  -1.109  -0.018  0.00  0.00    -0.100 S 
ENDBRANCH  17  23
ENDBRANCH  14  17
ENDBRANCH   1  14
TORSDOF 3
