REMARK  Name = ZINC04324737
REMARK  11 active torsions:
REMARK  status: ('A' for Active; 'I' for Inactive)
REMARK    1  A    between atoms: C_4  and  C_7
REMARK    2  A    between atoms: C_7  and  C_9
REMARK    3  A    between atoms: C_7  and  O_28
REMARK    4  A    between atoms: C_9  and  N_54
REMARK    5  A    between atoms: C_10  and  C_11
REMARK    6  A    between atoms: C_10  and  N_54
REMARK    7  A    between atoms: C_11  and  N_12
REMARK    8  A    between atoms: C_18  and  C_19
REMARK    9  A    between atoms: C_18  and  N_54
REMARK   10  A    between atoms: C_19  and  C_21
REMARK   11  A    between atoms: C_19  and  O_27
REMARK                            x       y       z     vdW  Elec       q    Type
REMARK                         _______ _______ _______ _____ _____    ______ ____
ROOT
ATOM      1  N   UNL     1       1.192   5.625   1.224  0.00  0.00    +0.384 N 
ATOM      2  H   UNL     1       0.278   5.684   0.761  0.00  0.00    -0.082 HD
ENDROOT
BRANCH   1   3
ATOM      3  C   UNL     1       1.468   4.213   1.562  0.00  0.00    -0.042 C 
BRANCH   3   4
ATOM      4  C   UNL     1       0.183   3.575   2.092  0.00  0.00    +0.128 C 
BRANCH   4   8
ATOM      5  C   UNL     1       0.942  -0.491   3.157  0.00  0.00    +0.000 A 
ATOM      6  C   UNL     1       0.904   0.484   4.136  0.00  0.00    +0.000 A 
ATOM      7  C   UNL     1       0.658   1.800   3.791  0.00  0.00    +0.006 A 
ATOM      8  C   UNL     1       0.451   2.140   2.467  0.00  0.00    -0.021 A 
ATOM      9  C   UNL     1       0.489   1.165   1.488  0.00  0.00    +0.006 A 
ATOM     10  C   UNL     1       0.735  -0.151   1.833  0.00  0.00    +0.000 A 
ENDBRANCH   4   8
BRANCH   4  11
ATOM     11  O   UNL     1      -0.825   3.622   1.079  0.00  0.00    -0.389 OA
ATOM     12  H   UNL     1      -0.611   3.110   0.288  0.00  0.00    +0.210 HD
ENDBRANCH   4  11
ENDBRANCH   3   4
ENDBRANCH   1   3
BRANCH   1  13
ATOM     13  C   UNL     1       2.230   6.136   0.304  0.00  0.00    -0.059 C 
BRANCH  13  14
ATOM     14  C   UNL     1       1.935   5.617  -1.105  0.00  0.00    +0.091 C 
BRANCH  14  15
ATOM     15  N   UNL     1       2.970   6.091  -2.027  0.00  0.00    -0.286 N 
ATOM     16  C   UNL     1       2.919   7.345  -2.793  0.00  0.00    +0.128 C 
ATOM     17  C   UNL     1       4.241   7.348  -3.584  0.00  0.00    +0.124 C 
ATOM     18  N   UNL     1       4.893   6.091  -3.187  0.00  0.00    -0.298 N 
ATOM     19  C   UNL     1       4.110   5.448  -2.310  0.00  0.00    +0.302 C 
ATOM     20  O   UNL     1       4.409   4.378  -1.816  0.00  0.00    -0.253 OA
ATOM     21  H   UNL     1       5.753   5.778  -3.508  0.00  0.00    +0.150 HD
ENDBRANCH  14  15
ENDBRANCH  13  14
ENDBRANCH   1  13
BRANCH   1  22
ATOM     22  C   UNL     1       1.162   6.442   2.455  0.00  0.00    -0.042 C 
BRANCH  22  23
ATOM     23  C   UNL     1       0.657   7.843   2.105  0.00  0.00    +0.128 C 
BRANCH  23  24
ATOM     24  C   UNL     1       0.716   8.719   3.330  0.00  0.00    -0.021 A 
ATOM     25  C   UNL     1      -0.282   8.641   4.284  0.00  0.00    +0.006 A 
ATOM     26  C   UNL     1      -0.226   9.441   5.410  0.00  0.00    +0.000 A 
ATOM     27  C   UNL     1       0.823  10.326   5.577  0.00  0.00    +0.000 A 
ATOM     28  C   UNL     1       1.818  10.407   4.621  0.00  0.00    +0.000 A 
ATOM     29  C   UNL     1       1.764   9.604   3.497  0.00  0.00    +0.006 A 
ENDBRANCH  23  24
BRANCH  23  30
ATOM     30  O   UNL     1      -0.693   7.761   1.642  0.00  0.00    -0.389 OA
ATOM     31  H   UNL     1      -1.308   7.389   2.289  0.00  0.00    +0.210 HD
ENDBRANCH  23  30
ENDBRANCH  22  23
ENDBRANCH   1  22
TORSDOF 11
