REMARK  Name = ZINC02781961
REMARK  8 active torsions:
REMARK  status: ('A' for Active; 'I' for Inactive)
REMARK    1  A    between atoms: C_1  and  C_2
REMARK    2  A    between atoms: C_2  and  C_3
REMARK    3  A    between atoms: C_2  and  C_4
REMARK    4  A    between atoms: C_2  and  C_5
REMARK    5  A    between atoms: C_12  and  N_17
REMARK    6  A    between atoms: C_13  and  C_14
REMARK    7  A    between atoms: C_18  and  C_20
REMARK    8  A    between atoms: N_24  and  C_25
REMARK                            x       y       z     vdW  Elec       q    Type
REMARK                         _______ _______ _______ _____ _____    ______ ____
ROOT
ATOM      1  C   UNL     1      -9.640   0.623  -0.332  0.00  0.00    -0.000 C 
ATOM      2  C   UNL     1      -9.694   1.900   0.511  0.00  0.00    +0.009 C 
ATOM      3  C   UNL     1      -8.603   2.871   0.054  0.00  0.00    +0.037 C 
ATOM      4  C   UNL     1      -7.267   2.139   0.045  0.00  0.00    -0.023 A 
ATOM      5  C   UNL     1      -7.214   0.789   0.038  0.00  0.00    -0.004 A 
ATOM      6  S   UNL     1      -5.486   0.404   0.029  0.00  0.00    -0.077 S 
ATOM      7  C   UNL     1      -4.841   2.012   0.033  0.00  0.00    +0.085 A 
ATOM      8  C   UNL     1      -5.978   2.809   0.047  0.00  0.00    +0.068 A 
ATOM      9  C   UNL     1      -8.372  -0.161   0.038  0.00  0.00    +0.046 C 
ENDROOT
BRANCH   8  10
ATOM     10  C   UNL     1      -5.881   4.271   0.061  0.00  0.00    +0.244 C 
ATOM     11  O   UNL     1      -5.848   4.889  -0.988  0.00  0.00    -0.270 OA
ATOM     12  N   UNL     1      -5.830   4.933   1.234  0.00  0.00    -0.325 N 
ATOM     13  H   UNL     1      -5.856   4.441   2.070  0.00  0.00    +0.145 HD
ATOM     14  H   UNL     1      -5.766   5.901   1.243  0.00  0.00    +0.145 HD
ENDBRANCH   8  10
BRANCH   1  16
ATOM     15  C   UNL     1     -12.137   0.556  -0.398  0.00  0.00    +0.011 C 
ATOM     16  C   UNL     1     -10.874  -0.234  -0.045  0.00  0.00    -0.035 C 
ATOM     17  C   UNL     1     -10.818  -1.509  -0.888  0.00  0.00    +0.011 C 
ATOM     18  C   UNL     1     -10.903  -0.604   1.440  0.00  0.00    +0.011 C 
ENDBRANCH   1  16
BRANCH   7  19
ATOM     19  N   UNL     1      -3.513   2.407   0.029  0.00  0.00    -0.274 N 
ATOM     20  C   UNL     1      -2.535   1.481   0.021  0.00  0.00    +0.267 C 
ATOM     21  O   UNL     1      -2.817   0.298   0.017  0.00  0.00    -0.268 OA
ATOM     22  H   UNL     1      -3.288   3.351   0.033  0.00  0.00    +0.156 HD
BRANCH  20  23
ATOM     23  C   UNL     1      -1.125   1.900   0.017  0.00  0.00    +0.129 A 
ATOM     24  C   UNL     1      -0.013   1.076   0.008  0.00  0.00    +0.054 A 
ATOM     25  C   UNL     1       1.086   1.938   0.002  0.00  0.00    +0.135 A 
ATOM     26  N   UNL     1       0.634   3.166   0.012  0.00  0.00    -0.174 NA
ATOM     27  N   UNL     1      -0.650   3.181   0.024  0.00  0.00    -0.199 N 
BRANCH  27  28
ATOM     28  C   UNL     1      -1.480   4.389   0.037  0.00  0.00    +0.464 C 
ATOM     29  F   UNL     1      -2.298   4.405  -1.097  0.00  0.00    -0.183 F 
ATOM     30  F   UNL     1      -2.277   4.394   1.188  0.00  0.00    -0.183 F 
ENDBRANCH  27  28
ENDBRANCH  20  23
ENDBRANCH   7  19
TORSDOF 5
