REMARK  Name = ZINC12112959
REMARK  4 active torsions:
REMARK  status: ('A' for Active; 'I' for Inactive)
REMARK    1  A    between atoms: C_1  and  C_2
REMARK    2  A    between atoms: C_5  and  N_8
REMARK    3  A    between atoms: N_8  and  C_9
REMARK    4  A    between atoms: N_13  and  C_17
REMARK                            x       y       z     vdW  Elec       q    Type
REMARK                         _______ _______ _______ _____ _____    ______ ____
ROOT
ATOM      1  C   UNL     1      -1.228   7.702  -0.089  0.00  0.00    +0.226 C 
ATOM      2  C   UNL     1      -1.445   6.206  -0.265  0.00  0.00    +0.258 C 
ATOM      3  O   UNL     1      -2.547   5.724  -0.419  0.00  0.00    -0.272 OA
ATOM      4  N   UNL     1      -0.349   5.467  -0.237  0.00  0.00    -0.199 N 
ATOM      5  C   UNL     1       0.884   5.979  -0.062  0.00  0.00    +0.287 C 
ATOM      6  O   UNL     1       1.943   5.384  -0.019  0.00  0.00    -0.262 OA
ATOM      7  S   UNL     1       0.600   7.736   0.087  0.00  0.00    -0.035 S 
ENDROOT
BRANCH   4   8
ATOM      8  C   UNL     1      -0.477   4.079  -0.393  0.00  0.00    +0.045 A 
ATOM      9  C   UNL     1      -0.156   3.482  -1.604  0.00  0.00    +0.027 A 
ATOM     10  C   UNL     1      -0.283   2.115  -1.755  0.00  0.00    +0.040 A 
ATOM     11  C   UNL     1      -0.730   1.340  -0.699  0.00  0.00    +0.124 A 
ATOM     12  C   UNL     1      -1.056   1.933   0.509  0.00  0.00    +0.040 A 
ATOM     13  C   UNL     1      -0.925   3.300   0.665  0.00  0.00    +0.027 A 
ATOM     14  F   UNL     1      -0.854   0.003  -0.848  0.00  0.00    -0.205 F 
ENDBRANCH   4   8
BRANCH   1  15
ATOM     15  N   UNL     1      -1.891   8.198   1.119  0.00  0.00    -0.325 N 
ATOM     16  H   UNL     1      -2.699   7.769   1.440  0.00  0.00    +0.148 HD
BRANCH  15  21
ATOM     17  C   UNL     1       0.270  12.629   3.922  0.00  0.00    +0.044 C 
ATOM     18  C   UNL     1      -0.304  11.451   3.177  0.00  0.00    -0.050 A 
ATOM     19  C   UNL     1      -0.148  11.360   1.806  0.00  0.00    +0.005 A 
ATOM     20  C   UNL     1      -0.673  10.282   1.121  0.00  0.00    +0.023 A 
ATOM     21  C   UNL     1      -1.358   9.289   1.810  0.00  0.00    +0.028 A 
ATOM     22  C   UNL     1      -1.518   9.387   3.186  0.00  0.00    +0.023 A 
ATOM     23  C   UNL     1      -0.985  10.465   3.866  0.00  0.00    +0.005 A 
ENDBRANCH  15  21
ENDBRANCH   1  15
TORSDOF 3
