REMARK  Name = ZINC61712605
REMARK  3 active torsions:
REMARK  status: ('A' for Active; 'I' for Inactive)
REMARK    1  A    between atoms: C_6  and  C_7
REMARK    2  A    between atoms: C_7  and  N_9
REMARK    3  A    between atoms: C_13  and  O_16
REMARK                            x       y       z     vdW  Elec       q    Type
REMARK                         _______ _______ _______ _____ _____    ______ ____
ROOT
ATOM      1  C   UNL     1       0.004   1.427   0.069  0.00  0.00    +0.019 A 
ATOM      2  C   UNL     1       1.230   2.080   0.036  0.00  0.00    -0.025 A 
ATOM      3  C   UNL     1       2.391   1.340  -0.035  0.00  0.00    +0.047 A 
ATOM      4  N   UNL     1       2.343   0.014  -0.080  0.00  0.00    -0.236 NA
ATOM      5  C   UNL     1       1.206  -0.657  -0.053  0.00  0.00    +0.131 A 
ATOM      6  C   UNL     1      -0.018   0.030   0.026  0.00  0.00    +0.043 A 
ATOM      7  N   UNL     1       1.220  -2.039  -0.103  0.00  0.00    -0.312 N 
ATOM      8  C   UNL     1       1.115  -2.856  -1.326  0.00  0.00    +0.109 C 
ATOM      9  C   UNL     1       1.784  -4.205  -0.960  0.00  0.00    +0.052 C 
ATOM     10  C   UNL     1       1.339  -4.383   0.516  0.00  0.00    +0.133 C 
ATOM     11  C   UNL     1       1.348  -2.937   1.054  0.00  0.00    +0.137 C 
ATOM     12  C   UNL     1       3.755   1.984  -0.057  0.00  0.00    +0.056 C 
ATOM     13  C   UNL     1       3.648   3.458  -0.437  0.00  0.00    +0.006 C 
ATOM     14  C   UNL     1       2.600   4.118   0.467  0.00  0.00    +0.005 C 
ATOM     15  C   UNL     1       1.223   3.585   0.076  0.00  0.00    +0.037 C 
ENDROOT
BRANCH   6  16
ATOM     16  C   UNL     1      -1.294  -0.705   0.062  0.00  0.00    +0.080 C 
ATOM     17  S   UNL     1      -1.294  -2.413   0.170  0.00  0.00    -0.035 S 
BRANCH  16  18
ATOM     18  N   UNL     1      -2.460  -0.032   0.011  0.00  0.00    -0.352 N 
ATOM     19  H   UNL     1      -2.460   0.936  -0.050  0.00  0.00    +0.143 HD
ATOM     20  H   UNL     1      -3.301  -0.516   0.035  0.00  0.00    +0.143 HD
ENDBRANCH  16  18
ENDBRANCH   6  16
BRANCH  10  21
ATOM     21  O   UNL     1       0.028  -4.948   0.584  0.00  0.00    -0.390 OA
ATOM     22  H   UNL     1      -0.042  -5.828   0.188  0.00  0.00    +0.210 HD
ENDBRANCH  10  21
TORSDOF 3
