REMARK  Name = ZINC48116140
REMARK  10 active torsions:
REMARK  status: ('A' for Active; 'I' for Inactive)
REMARK    1  A    between atoms: C_1  and  C_2
REMARK    2  A    between atoms: C_4  and  C_24
REMARK    3  A    between atoms: C_7  and  N_8
REMARK    4  A    between atoms: N_11  and  C_12
REMARK    5  A    between atoms: C_12  and  C_14
REMARK    6  A    between atoms: C_12  and  C_15
REMARK    7  A    between atoms: C_18  and  O_22
REMARK    8  A    between atoms: O_22  and  C_23
REMARK    9  A    between atoms: C_24  and  O_26
REMARK   10  A    between atoms: O_26  and  C_27
REMARK                            x       y       z     vdW  Elec       q    Type
REMARK                         _______ _______ _______ _____ _____    ______ ____
ROOT
ATOM      1  N   UNL     1       0.025  -0.012   2.413  0.00  0.00    -0.269 N 
ATOM      2  C   UNL     1      -0.056  -0.688   3.577  0.00  0.00    +0.304 C 
ATOM      3  O   UNL     1      -0.040  -1.903   3.577  0.00  0.00    -0.252 OA
ATOM      4  N   UNL     1      -0.155  -0.015   4.740  0.00  0.00    -0.293 N 
ATOM      5  H   UNL     1       0.079   0.956   2.417  0.00  0.00    +0.156 HD
ATOM      6  H   UNL     1      -0.168   0.955   4.741  0.00  0.00    +0.151 HD
ENDROOT
BRANCH   1  13
ATOM      7  C   UNL     1      -1.270   1.183   0.185  0.00  0.00    +0.046 C 
ATOM      8  C   UNL     1      -0.589  -0.158   0.086  0.00  0.00    -0.028 A 
ATOM      9  C   UNL     1      -0.579  -0.838  -1.111  0.00  0.00    +0.020 A 
ATOM     10  C   UNL     1       0.052  -2.082  -1.202  0.00  0.00    +0.059 A 
ATOM     11  C   UNL     1       0.671  -2.631  -0.075  0.00  0.00    +0.017 A 
ATOM     12  C   UNL     1       0.657  -1.947   1.119  0.00  0.00    +0.024 A 
ATOM     13  C   UNL     1       0.033  -0.706   1.204  0.00  0.00    +0.038 A 
BRANCH  10  14
ATOM     14  C   UNL     1       0.065  -2.812  -2.482  0.00  0.00    +0.339 C 
ATOM     15  O   UNL     1      -0.473  -2.333  -3.460  0.00  0.00    -0.245 OA
BRANCH  14  16
ATOM     16  O   UNL     1       0.674  -4.011  -2.568  0.00  0.00    -0.464 OA
ATOM     17  C   UNL     1       0.648  -4.663  -3.839  0.00  0.00    +0.280 C 
ENDBRANCH  14  16
ENDBRANCH  10  14
ENDBRANCH   1  13
BRANCH   4  18
ATOM     18  C   UNL     1      -0.244  -0.749   6.005  0.00  0.00    +0.102 C 
ATOM     19  C   UNL     1       1.164  -1.094   6.494  0.00  0.00    +0.033 C 
BRANCH  18  20
ATOM     20  C   UNL     1      -0.937   0.106   7.035  0.00  0.00    -0.024 A 
ATOM     21  C   UNL     1      -0.670   1.461   7.100  0.00  0.00    +0.009 A 
ATOM     22  C   UNL     1      -1.304   2.248   8.042  0.00  0.00    +0.049 A 
ATOM     23  C   UNL     1      -2.209   1.678   8.924  0.00  0.00    +0.155 A 
ATOM     24  C   UNL     1      -2.477   0.317   8.857  0.00  0.00    +0.165 A 
ATOM     25  C   UNL     1      -1.844  -0.465   7.908  0.00  0.00    +0.047 A 
ATOM     26  F   UNL     1      -3.359  -0.242   9.715  0.00  0.00    -0.202 F 
BRANCH  23  27
ATOM     27  O   UNL     1      -2.834   2.450   9.853  0.00  0.00    -0.492 OA
ATOM     28  C   UNL     1      -2.509   3.842   9.864  0.00  0.00    +0.277 C 
ENDBRANCH  23  27
ENDBRANCH  18  20
ENDBRANCH   4  18
TORSDOF 6
