REMARK  Name = ZINC03406101
REMARK  7 active torsions:
REMARK  status: ('A' for Active; 'I' for Inactive)
REMARK    1  A    between atoms: C_1  and  C_2
REMARK    2  A    between atoms: C_2  and  C_4
REMARK    3  A    between atoms: C_2  and  N_59
REMARK    4  A    between atoms: N_6  and  C_7
REMARK    5  A    between atoms: C_12  and  C_13
REMARK    6  A    between atoms: N_21  and  S_24
REMARK    7  A    between atoms: S_24  and  C_27
REMARK                            x       y       z     vdW  Elec       q    Type
REMARK                         _______ _______ _______ _____ _____    ______ ____
ROOT
ATOM      1  C   UNL     1      -2.458  -0.148  -1.104  0.00  0.00    -0.004 C 
ATOM      2  C   UNL     1      -2.621   0.903  -0.004  0.00  0.00    +0.017 C 
ENDROOT
BRANCH   2   8
ATOM      3  C   UNL     1      -5.041   0.976   0.061  0.00  0.00    -0.060 C 
ATOM      4  C   UNL     1      -6.247   1.912  -0.063  0.00  0.00    +0.091 C 
ATOM      5  N   UNL     1      -6.234   2.518  -1.403  0.00  0.00    -0.180 NA
ATOM      6  C   UNL     1      -4.993   3.158  -1.865  0.00  0.00    +0.091 C 
ATOM      7  C   UNL     1      -3.835   2.173  -1.671  0.00  0.00    -0.060 C 
ATOM      8  N   UNL     1      -3.814   1.739  -0.257  0.00  0.00    +0.389 N 
ATOM      9  H   UNL     1      -3.773   2.569   0.346  0.00  0.00    -0.081 HD
BRANCH   5  10
ATOM     10  S   UNL     1      -7.580   2.480  -2.366  0.00  0.00    +0.063 S 
ATOM     11  O   UNL     1      -8.697   2.335  -1.499  0.00  0.00    -0.153 OA
ATOM     12  O   UNL     1      -7.459   3.565  -3.276  0.00  0.00    -0.153 OA
BRANCH  10  13
ATOM     13  C   UNL     1      -7.494   1.005  -3.326  0.00  0.00    +0.140 A 
ATOM     14  C   UNL     1      -8.433   0.008  -3.147  0.00  0.00    +0.031 A 
ATOM     15  C   UNL     1      -8.369  -1.147  -3.904  0.00  0.00    +0.002 A 
ATOM     16  C   UNL     1      -7.357  -1.311  -4.833  0.00  0.00    +0.003 A 
ATOM     17  C   UNL     1      -6.413  -0.317  -5.009  0.00  0.00    +0.040 A 
ATOM     18  C   UNL     1      -6.481   0.843  -4.255  0.00  0.00    +0.150 A 
ATOM     19  F   UNL     1      -5.558   1.814  -4.427  0.00  0.00    -0.203 F 
ENDBRANCH  10  13
ENDBRANCH   5  10
ENDBRANCH   2   8
BRANCH   2  20
ATOM     20  C   UNL     1      -1.406   1.794   0.024  0.00  0.00    +0.203 C 
ATOM     21  O   UNL     1      -1.474   2.926  -0.403  0.00  0.00    -0.277 OA
ATOM     22  N   UNL     1      -0.243   1.331   0.525  0.00  0.00    -0.286 N 
ATOM     23  H   UNL     1      -0.172   0.407   0.811  0.00  0.00    +0.155 HD
BRANCH  22  24
ATOM     24  C   UNL     1       0.861   2.181   0.628  0.00  0.00    +0.041 A 
ATOM     25  C   UNL     1       1.011   3.238  -0.259  0.00  0.00    +0.024 A 
ATOM     26  C   UNL     1       2.101   4.080  -0.153  0.00  0.00    +0.002 A 
ATOM     27  C   UNL     1       3.054   3.870   0.830  0.00  0.00    +0.001 A 
ATOM     28  C   UNL     1       2.920   2.820   1.715  0.00  0.00    +0.010 A 
ATOM     29  C   UNL     1       1.823   1.967   1.621  0.00  0.00    +0.003 A 
BRANCH  29  30
ATOM     30  C   UNL     1       1.674   0.837   2.571  0.00  0.00    -0.016 A 
ATOM     31  C   UNL     1       0.472   0.648   3.250  0.00  0.00    +0.008 A 
ATOM     32  C   UNL     1       0.337  -0.409   4.128  0.00  0.00    +0.001 A 
ATOM     33  C   UNL     1       1.397  -1.272   4.343  0.00  0.00    +0.000 A 
ATOM     34  C   UNL     1       2.594  -1.085   3.676  0.00  0.00    +0.001 A 
ATOM     35  C   UNL     1       2.738  -0.036   2.792  0.00  0.00    +0.008 A 
ENDBRANCH  29  30
ENDBRANCH  22  24
ENDBRANCH   2  20
TORSDOF 6
