REMARK  Name = ZINC08779723
REMARK  9 active torsions:
REMARK  status: ('A' for Active; 'I' for Inactive)
REMARK    1  A    between atoms: C_1  and  C_2
REMARK    2  A    between atoms: C_5  and  N_9
REMARK    3  A    between atoms: C_10  and  C_37
REMARK    4  A    between atoms: C_12  and  C_15
REMARK    5  A    between atoms: C_13  and  C_14
REMARK    6  A    between atoms: C_15  and  C_17
REMARK    7  A    between atoms: C_17  and  N_18
REMARK    8  A    between atoms: C_21  and  C_26
REMARK    9  A    between atoms: C_26  and  C_27
REMARK                            x       y       z     vdW  Elec       q    Type
REMARK                         _______ _______ _______ _____ _____    ______ ____
ROOT
ATOM      1  N   UNL     1      -1.799   5.928  -1.915  0.00  0.00    -0.217 N 
ATOM      2  C   UNL     1      -2.723   5.086  -1.413  0.00  0.00    +0.244 C 
ATOM      3  O   UNL     1      -3.849   5.361  -1.057  0.00  0.00    -0.273 OA
ATOM      4  C   UNL     1      -2.063   3.721  -1.387  0.00  0.00    +0.165 C 
ATOM      5  N   UNL     1      -0.717   3.978  -1.928  0.00  0.00    -0.287 N 
ATOM      6  C   UNL     1      -0.658   5.292  -2.206  0.00  0.00    +0.310 C 
ATOM      7  O   UNL     1       0.322   5.841  -2.670  0.00  0.00    -0.252 OA
ATOM      8  H   UNL     1      -0.011   3.325  -2.058  0.00  0.00    +0.151 HD
ENDROOT
BRANCH   1   9
ATOM      9  C   UNL     1      -2.016   7.363  -2.115  0.00  0.00    +0.197 C 
BRANCH   9  10
ATOM     10  C   UNL     1      -1.611   8.111  -0.871  0.00  0.00    +0.183 C 
ATOM     11  O   UNL     1      -1.183   7.505   0.089  0.00  0.00    -0.290 OA
BRANCH  10  15
ATOM     12  N   UNL     1      -1.671  11.666  -0.126  0.00  0.00    -0.317 N 
ATOM     13  C   UNL     1      -2.164  11.704  -1.401  0.00  0.00    +0.022 A 
ATOM     14  C   UNL     1      -2.223  10.454  -1.888  0.00  0.00    +0.034 A 
ATOM     15  C   UNL     1      -1.734   9.569  -0.821  0.00  0.00    +0.040 A 
ATOM     16  C   UNL     1      -1.408  10.396   0.238  0.00  0.00    +0.031 A 
ATOM     17  C   UNL     1      -0.854   9.954   1.567  0.00  0.00    +0.064 C 
ATOM     18  C   UNL     1      -2.571  12.951  -2.143  0.00  0.00    +0.064 C 
BRANCH  12  23
ATOM     19  C   UNL     1      -0.847  16.220   3.163  0.00  0.00    +0.047 C 
ATOM     20  C   UNL     1      -1.066  15.011   2.290  0.00  0.00    -0.015 A 
ATOM     21  C   UNL     1      -0.329  14.853   1.131  0.00  0.00    +0.008 A 
ATOM     22  C   UNL     1      -0.527  13.746   0.330  0.00  0.00    +0.026 A 
ATOM     23  C   UNL     1      -1.468  12.790   0.687  0.00  0.00    +0.049 A 
ATOM     24  C   UNL     1      -2.212  12.951   1.847  0.00  0.00    +0.064 A 
ATOM     25  C   UNL     1      -2.006  14.059   2.650  0.00  0.00    +0.128 A 
ATOM     26  F   UNL     1      -2.726  14.216   3.783  0.00  0.00    -0.205 F 
ENDBRANCH  12  23
ENDBRANCH  10  15
ENDBRANCH   9  10
ENDBRANCH   1   9
BRANCH   4  27
ATOM     27  C   UNL     1      -1.976   3.193   0.046  0.00  0.00    +0.069 C 
BRANCH  27  28
ATOM     28  C   UNL     1      -1.430   1.788   0.031  0.00  0.00    -0.020 A 
ATOM     29  C   UNL     1      -2.147   0.653   0.026  0.00  0.00    +0.087 A 
ATOM     30  N   UNL     1      -1.308  -0.428   0.012  0.00  0.00    -0.360 N 
ATOM     31  H   UNL     1      -1.594  -1.355   0.010  0.00  0.00    +0.165 HD
ATOM     32  C   UNL     1       0.002  -0.004   0.002  0.00  0.00    +0.047 A 
ATOM     33  C   UNL     1      -0.017   1.403   0.010  0.00  0.00    +0.003 A 
ATOM     34  C   UNL     1       1.183   2.116   0.002  0.00  0.00    +0.010 A 
ATOM     35  C   UNL     1       2.372   1.442  -0.012  0.00  0.00    +0.001 A 
ATOM     36  C   UNL     1       2.396   0.055  -0.020  0.00  0.00    +0.002 A 
ATOM     37  C   UNL     1       1.224  -0.669  -0.013  0.00  0.00    +0.026 A 
ENDBRANCH  27  28
ENDBRANCH   4  27
TORSDOF 6
