REMARK  Name = ZINC43527872
REMARK  11 active torsions:
REMARK  status: ('A' for Active; 'I' for Inactive)
REMARK    1  A    between atoms: C_1  and  C_2
REMARK    2  A    between atoms: C_2  and  C_3
REMARK    3  A    between atoms: C_3  and  C_4
REMARK    4  A    between atoms: C_3  and  C_6
REMARK    5  A    between atoms: C_4  and  C_5
REMARK    6  A    between atoms: C_8  and  C_18
REMARK    7  A    between atoms: C_10  and  C_12
REMARK    8  A    between atoms: C_27  and  C_29
REMARK    9  A    between atoms: C_29  and  N_30
REMARK   10  A    between atoms: N_33  and  C_34
REMARK   11  A    between atoms: C_34  and  C_35
REMARK                            x       y       z     vdW  Elec       q    Type
REMARK                         _______ _______ _______ _____ _____    ______ ____
ROOT
ATOM      1  C   UNL     1      -1.097  -5.123   2.005  0.00  0.00    +0.024 C 
ATOM      2  C   UNL     1      -1.802  -4.508   3.216  0.00  0.00    -0.068 C 
ATOM      3  N   UNL     1      -3.222  -4.303   2.920  0.00  0.00    +0.383 N 
ATOM      4  C   UNL     1      -3.386  -3.375   1.798  0.00  0.00    -0.078 C 
ATOM      5  C   UNL     1      -2.734  -3.953   0.540  0.00  0.00    -0.015 C 
ATOM      6  C   UNL     1      -2.122  -5.322   0.880  0.00  0.00    -0.007 C 
ATOM      7  C   UNL     1      -3.241  -6.234   1.400  0.00  0.00    -0.010 C 
ATOM      8  C   UNL     1      -3.878  -5.581   2.632  0.00  0.00    -0.051 C 
ATOM      9  H   UNL     1      -3.661  -3.894   3.730  0.00  0.00    -0.081 HD
ENDROOT
BRANCH   1  12
ATOM     10  C   UNL     1       0.870  -2.011   1.172  0.00  0.00    +0.048 A 
ATOM     11  C   UNL     1      -0.162  -2.825   1.616  0.00  0.00    +0.047 A 
ATOM     12  C   UNL     1      -0.003  -4.200   1.534  0.00  0.00    +0.047 A 
ATOM     13  N   UNL     1       1.119  -4.691   1.038  0.00  0.00    -0.232 NA
ATOM     14  C   UNL     1       2.086  -3.886   0.623  0.00  0.00    +0.160 A 
ATOM     15  N   UNL     1       1.964  -2.567   0.682  0.00  0.00    -0.232 NA
BRANCH  14  16
ATOM     16  C   UNL     1       3.333  -4.474   0.072  0.00  0.00    +0.022 A 
ATOM     17  C   UNL     1       3.494  -5.859  -0.018  0.00  0.00    +0.031 A 
ATOM     18  C   UNL     1       4.670  -6.364  -0.536  0.00  0.00    +0.111 A 
ATOM     19  N   UNL     1       5.631  -5.558  -0.944  0.00  0.00    -0.263 NA
ATOM     20  C   UNL     1       5.519  -4.246  -0.876  0.00  0.00    +0.111 A 
ATOM     21  C   UNL     1       4.375  -3.657  -0.376  0.00  0.00    +0.031 A 
ENDBRANCH  14  16
BRANCH  10  22
ATOM     22  C   UNL     1       0.742  -0.511   1.242  0.00  0.00    +0.037 C 
BRANCH  22  24
ATOM     23  C   UNL     1      -0.019   1.526   0.010  0.00  0.00    +0.004 C 
ATOM     24  C   UNL     1       0.002  -0.004   0.002  0.00  0.00    +0.006 C 
ENDBRANCH  22  24
BRANCH  22  25
ATOM     25  C   UNL     1      -0.042  -0.124   2.497  0.00  0.00    +0.006 C 
ATOM     26  C   UNL     1       0.758  -0.520   3.740  0.00  0.00    +0.004 C 
ENDBRANCH  22  25
ENDBRANCH  10  22
ENDBRANCH   1  12
BRANCH   8  27
ATOM     27  C   UNL     1      -5.365  -5.340   2.368  0.00  0.00    +0.090 C 
BRANCH  27  28
ATOM     28  N   UNL     1      -5.953  -4.622   3.502  0.00  0.00    -0.301 N 
ATOM     29  C   UNL     1      -7.261  -4.299   3.490  0.00  0.00    +0.300 C 
ATOM     30  O   UNL     1      -7.954  -4.603   2.538  0.00  0.00    -0.253 OA
ATOM     31  N   UNL     1      -7.802  -3.638   4.533  0.00  0.00    -0.295 N 
ATOM     32  H   UNL     1      -5.400  -4.379   4.261  0.00  0.00    +0.150 HD
ATOM     33  H   UNL     1      -7.249  -3.396   5.292  0.00  0.00    +0.151 HD
BRANCH  31  34
ATOM     34  C   UNL     1      -9.224  -3.287   4.520  0.00  0.00    +0.141 C 
BRANCH  34  35
ATOM     35  C   UNL     1      -9.573  -2.559   5.793  0.00  0.00    -0.030 A 
ATOM     36  C   UNL     1      -9.991  -3.270   6.902  0.00  0.00    +0.005 A 
ATOM     37  C   UNL     1     -10.311  -2.602   8.070  0.00  0.00    +0.000 A 
ATOM     38  C   UNL     1     -10.214  -1.225   8.127  0.00  0.00    +0.000 A 
ATOM     39  C   UNL     1      -9.795  -0.514   7.018  0.00  0.00    +0.000 A 
ATOM     40  C   UNL     1      -9.471  -1.182   5.852  0.00  0.00    +0.005 A 
ENDBRANCH  34  35
ENDBRANCH  31  34
ENDBRANCH  27  28
ENDBRANCH   8  27
TORSDOF 9
