REMARK  Name = ZINC20735471
REMARK  5 active torsions:
REMARK  status: ('A' for Active; 'I' for Inactive)
REMARK    1  A    between atoms: C_1  and  C_2
REMARK    2  A    between atoms: C_14  and  O_31
REMARK    3  A    between atoms: C_17  and  C_19
REMARK    4  A    between atoms: C_23  and  O_25
REMARK    5  A    between atoms: O_25  and  C_26
REMARK                            x       y       z     vdW  Elec       q    Type
REMARK                         _______ _______ _______ _____ _____    ______ ____
ROOT
ATOM      1  C   UNL     1      -0.350   1.220  -0.263  0.00  0.00    +0.068 C 
ATOM      2  C   UNL     1      -0.241  -0.277  -0.401  0.00  0.00    +0.067 A 
ATOM      3  C   UNL     1      -0.010  -0.971  -1.603  0.00  0.00    +0.037 A 
ATOM      4  C   UNL     1       0.025  -2.308  -1.312  0.00  0.00    +0.167 A 
ATOM      5  N   UNL     1      -0.190  -2.420   0.051  0.00  0.00    -0.179 N 
ATOM      6  N   UNL     1      -0.341  -1.136   0.573  0.00  0.00    -0.167 NA
ATOM      7  C   UNL     1      -0.243  -3.609   0.775  0.00  0.00    +0.253 A 
ATOM      8  N   UNL     1      -0.071  -4.759   0.142  0.00  0.00    -0.219 NA
ATOM      9  C   UNL     1      -0.114  -5.906   0.799  0.00  0.00    +0.116 A 
ATOM     10  C   UNL     1      -0.343  -5.893   2.166  0.00  0.00    +0.039 A 
ATOM     11  C   UNL     1      -0.519  -4.671   2.797  0.00  0.00    +0.116 A 
ATOM     12  N   UNL     1      -0.458  -3.561   2.080  0.00  0.00    -0.219 NA
ATOM     13  N   UNL     1       0.227  -3.389  -2.081  0.00  0.00    -0.197 NA
ATOM     14  C   UNL     1       0.445  -3.615  -3.294  0.00  0.00    +0.199 C 
ATOM     15  C   UNL     1       0.513  -2.678  -4.435  0.00  0.00    +0.165 C 
ATOM     16  S   UNL     1       1.295  -1.113  -4.019  0.00  0.00    -0.138 S 
ATOM     17  C   UNL     1       0.151  -0.272  -2.919  0.00  0.00    +0.112 C 
ENDROOT
BRANCH  17  18
ATOM     18  C   UNL     1       0.657   1.125  -2.668  0.00  0.00    -0.026 A 
ATOM     19  C   UNL     1       1.870   1.317  -2.031  0.00  0.00    +0.005 A 
ATOM     20  C   UNL     1       2.337   2.597  -1.800  0.00  0.00    +0.004 A 
ATOM     21  C   UNL     1       1.593   3.689  -2.204  0.00  0.00    +0.045 A 
ATOM     22  C   UNL     1       0.376   3.500  -2.842  0.00  0.00    +0.121 A 
ATOM     23  C   UNL     1      -0.087   2.213  -3.079  0.00  0.00    +0.050 A 
BRANCH  22  24
ATOM     24  O   UNL     1      -0.357   4.572  -3.241  0.00  0.00    -0.489 OA
BRANCH  24  25
ATOM     25  C   UNL     1       0.237   5.861  -3.080  0.00  0.00    +0.173 C 
ATOM     26  C   UNL     1      -0.053   6.405  -1.666  0.00  0.00    +0.044 C 
ATOM     27  C   UNL     1      -0.271   7.923  -1.880  0.00  0.00    +0.004 C 
ATOM     28  C   UNL     1      -1.038   7.972  -3.225  0.00  0.00    +0.004 C 
ATOM     29  C   UNL     1      -0.388   6.858  -4.071  0.00  0.00    +0.044 C 
ENDBRANCH  24  25
ENDBRANCH  22  24
ENDBRANCH  17  18
BRANCH  14  30
ATOM     30  O   UNL     1       0.650  -4.911  -3.606  0.00  0.00    -0.495 OA
ATOM     31  H   UNL     1       0.602  -5.510  -2.849  0.00  0.00    +0.293 HD
ENDBRANCH  14  30
TORSDOF 4
