REMARK  Name = ZINC27994422
REMARK  7 active torsions:
REMARK  status: ('A' for Active; 'I' for Inactive)
REMARK    1  A    between atoms: C_3  and  C_6
REMARK    2  A    between atoms: C_6  and  C_8
REMARK    3  A    between atoms: C_6  and  N_24
REMARK    4  A    between atoms: C_8  and  N_9
REMARK    5  A    between atoms: N_9  and  C_10
REMARK    6  A    between atoms: C_11  and  C_22
REMARK    7  A    between atoms: C_13  and  C_15
REMARK                            x       y       z     vdW  Elec       q    Type
REMARK                         _______ _______ _______ _____ _____    ______ ____
ROOT
ATOM      1  N   UNL     1       4.549   1.315   1.311  0.00  0.00    -0.314 N 
ATOM      2  H   UNL     1       5.002   0.996   0.360  0.00  0.00    +0.149 HD
ENDROOT
BRANCH   1   3
ATOM      3  C   UNL     1       5.325   1.408   2.445  0.00  0.00    +0.225 A 
ATOM      4  C   UNL     1       6.680   1.130   2.547  0.00  0.00    +0.201 A 
ATOM      5  N   UNL     1       7.034   1.357   3.840  0.00  0.00    -0.196 NA
ATOM      6  C   UNL     1       5.973   1.742   4.502  0.00  0.00    +0.231 A 
ATOM      7  O   UNL     1       4.914   1.781   3.671  0.00  0.00    -0.421 OA
BRANCH   6   8
ATOM      8  C   UNL     1       5.942   2.081   5.940  0.00  0.00    +0.037 A 
ATOM      9  C   UNL     1       4.748   2.486   6.539  0.00  0.00    +0.014 A 
ATOM     10  C   UNL     1       4.724   2.796   7.882  0.00  0.00    +0.021 A 
ATOM     11  C   UNL     1       5.884   2.717   8.635  0.00  0.00    +0.041 A 
ATOM     12  C   UNL     1       7.073   2.320   8.045  0.00  0.00    +0.021 A 
ATOM     13  C   UNL     1       7.108   2.003   6.704  0.00  0.00    +0.014 A 
ATOM     14 CL   UNL     1       5.848   3.115  10.324  0.00  0.00    -0.084 Cl
ENDBRANCH   6   8
BRANCH   4  15
ATOM     15  C   UNL     1       7.542   0.691   1.492  0.00  0.00    +0.124 C 
ATOM     16  N   UNL     1       8.226   0.342   0.654  0.00  0.00    -0.189 NA
ENDBRANCH   4  15
ENDBRANCH   1   3
BRANCH   1  17
ATOM     17  C   UNL     1       3.122   1.640   1.370  0.00  0.00    +0.097 C 
BRANCH  17  18
ATOM     18  C   UNL     1       2.499   1.455  -0.015  0.00  0.00    +0.016 C 
BRANCH  18  19
ATOM     19  N   UNL     1       3.242   2.256  -0.997  0.00  0.00    +0.387 N 
ATOM     20  C   UNL     1       3.271   3.672  -0.607  0.00  0.00    -0.078 C 
ATOM     21  C   UNL     1       4.171   4.449  -1.570  0.00  0.00    -0.019 C 
ATOM     22  C   UNL     1       3.631   4.303  -2.996  0.00  0.00    -0.004 C 
ATOM     23  C   UNL     1       3.566   2.817  -3.359  0.00  0.00    -0.019 C 
ATOM     24  C   UNL     1       2.683   2.088  -2.344  0.00  0.00    -0.078 C 
ATOM     25  H   UNL     1       4.280   1.893  -1.016  0.00  0.00    -0.081 HD
ENDBRANCH  18  19
BRANCH  18  28
ATOM     26  C   UNL     1      -1.154   1.940   0.021  0.00  0.00    +0.041 A 
ATOM     27  C   UNL     1      -0.017   1.102  -0.025  0.00  0.00    +0.043 A 
ATOM     28  C   UNL     1       1.061   1.906   0.017  0.00  0.00    +0.093 A 
ATOM     29  O   UNL     1       0.639   3.179   0.092  0.00  0.00    -0.469 OA
ATOM     30  C   UNL     1      -0.704   3.205   0.099  0.00  0.00    +0.195 A 
ENDBRANCH  18  28
ENDBRANCH  17  18
ENDBRANCH   1  17
TORSDOF 7
