REMARK  Name = ZINC36302051
REMARK  19 active torsions:
REMARK  status: ('A' for Active; 'I' for Inactive)
REMARK    1  A    between atoms: C_1  and  C_2
REMARK    2  A    between atoms: C_2  and  C_3
REMARK    3  A    between atoms: C_3  and  C_5
REMARK    4  A    between atoms: C_3  and  N_6
REMARK    5  A    between atoms: N_6  and  C_7
REMARK    6  A    between atoms: N_6  and  C_29
REMARK    7  A    between atoms: C_7  and  C_8
REMARK    8  A    between atoms: C_9  and  C_28
REMARK    9  A    between atoms: N_11  and  C_22
REMARK   10  A    between atoms: C_12  and  O_13
REMARK   11  A    between atoms: O_13  and  C_14
REMARK   12  A    between atoms: C_19  and  O_20
REMARK   13  A    between atoms: O_20  and  C_21
REMARK   14  A    between atoms: C_29  and  C_30
REMARK   15  A    between atoms: C_30  and  C_32
REMARK   16  A    between atoms: C_30  and  O_41
REMARK   17  A    between atoms: C_32  and  O_33
REMARK   18  A    between atoms: O_33  and  C_34
REMARK   19  A    between atoms: C_34  and  C_35
REMARK                            x       y       z     vdW  Elec       q    Type
REMARK                         _______ _______ _______ _____ _____    ______ ____
ROOT
ATOM      1  C   UNL     1      -3.664  -1.493   1.958  0.00  0.00    +0.021 A 
ATOM      2  C   UNL     1      -3.695  -2.439   0.929  0.00  0.00    +0.065 A 
ATOM      3  N   UNL     1      -3.730  -3.633   1.465  0.00  0.00    -0.168 NA
ATOM      4  N   UNL     1      -3.723  -3.492   2.859  0.00  0.00    -0.200 N 
ATOM      5  C   UNL     1      -3.676  -2.162   3.142  0.00  0.00    +0.225 A 
ATOM      6  C   UNL     1      -3.689  -2.136  -0.547  0.00  0.00    +0.068 C 
ENDROOT
BRANCH   4   7
ATOM      7  C   UNL     1      -3.752  -4.535   3.795  0.00  0.00    +0.069 A 
ATOM      8  C   UNL     1      -2.963  -4.469   4.935  0.00  0.00    +0.028 A 
ATOM      9  C   UNL     1      -2.994  -5.498   5.856  0.00  0.00    +0.002 A 
ATOM     10  C   UNL     1      -3.810  -6.594   5.642  0.00  0.00    +0.000 A 
ATOM     11  C   UNL     1      -4.597  -6.663   4.507  0.00  0.00    +0.002 A 
ATOM     12  C   UNL     1      -4.575  -5.634   3.586  0.00  0.00    +0.028 A 
ENDBRANCH   4   7
BRANCH   1  13
ATOM     13  C   UNL     1      -3.619   0.003   1.786  0.00  0.00    -0.035 C 
BRANCH  13  14
ATOM     14  N   UNL     1      -2.349   0.519   2.314  0.00  0.00    +0.386 N 
ATOM     15  H   UNL     1      -2.131   0.051   3.181  0.00  0.00    -0.081 HD
BRANCH  14  16
ATOM     16  C   UNL     1      -1.278   0.272   1.340  0.00  0.00    -0.071 C 
ATOM     17  C   UNL     1      -1.708   0.789  -0.034  0.00  0.00    -0.013 C 
BRANCH  16  19
ATOM     18  C   UNL     1      -0.563  -1.746   2.628  0.00  0.00    +0.002 C 
ATOM     19  C   UNL     1      -1.002  -1.230   1.256  0.00  0.00    -0.019 C 
ENDBRANCH  16  19
ENDBRANCH  14  16
BRANCH  14  20
ATOM     20  C   UNL     1      -2.470   1.964   2.554  0.00  0.00    -0.044 C 
BRANCH  20  21
ATOM     21  C   UNL     1      -1.197   2.476   3.231  0.00  0.00    +0.124 C 
BRANCH  21  22
ATOM     22  O   UNL     1      -1.052   1.851   4.508  0.00  0.00    -0.391 OA
ATOM     23  H   UNL     1      -1.786   2.021   5.114  0.00  0.00    +0.210 HD
ENDBRANCH  21  22
BRANCH  21  24
ATOM     24  C   UNL     1      -1.290   3.992   3.413  0.00  0.00    +0.189 C 
BRANCH  24  25
ATOM     25  O   UNL     1      -0.057   4.486   3.938  0.00  0.00    -0.373 OA
BRANCH  25  26
ATOM     26  C   UNL     1      -0.038   5.900   4.146  0.00  0.00    +0.195 C 
BRANCH  26  27
ATOM     27  C   UNL     1       1.303   6.308   4.699  0.00  0.00    -0.022 A 
ATOM     28  C   UNL     1       1.510   6.332   6.065  0.00  0.00    +0.006 A 
ATOM     29  C   UNL     1       2.740   6.707   6.572  0.00  0.00    +0.000 A 
ATOM     30  C   UNL     1       3.764   7.058   5.712  0.00  0.00    +0.000 A 
ATOM     31  C   UNL     1       3.558   7.034   4.346  0.00  0.00    +0.000 A 
ATOM     32  C   UNL     1       2.329   6.655   3.839  0.00  0.00    +0.006 A 
ENDBRANCH  26  27
ENDBRANCH  25  26
ENDBRANCH  24  25
ENDBRANCH  21  24
ENDBRANCH  20  21
ENDBRANCH  14  20
ENDBRANCH  13  14
ENDBRANCH   1  13
BRANCH   5  33
ATOM     33  O   UNL     1      -3.649  -1.605   4.379  0.00  0.00    -0.434 OA
BRANCH  33  34
ATOM     34  C   UNL     1      -4.837  -1.360   4.994  0.00  0.00    +0.172 A 
ATOM     35  C   UNL     1      -6.022  -1.772   4.407  0.00  0.00    +0.050 A 
ATOM     36  C   UNL     1      -7.228  -1.522   5.034  0.00  0.00    +0.004 A 
ATOM     37  C   UNL     1      -7.256  -0.860   6.247  0.00  0.00    +0.004 A 
ATOM     38  C   UNL     1      -6.077  -0.446   6.839  0.00  0.00    +0.049 A 
ATOM     39  C   UNL     1      -4.864  -0.698   6.219  0.00  0.00    +0.162 A 
BRANCH  39  40
ATOM     40  O   UNL     1      -3.704  -0.296   6.802  0.00  0.00    -0.491 OA
ATOM     41  C   UNL     1      -3.808   0.377   8.058  0.00  0.00    +0.277 C 
ENDBRANCH  39  40
ENDBRANCH  33  34
ENDBRANCH   5  33
TORSDOF 15
