REMARK  Name = ZINC15705579
REMARK  6 active torsions:
REMARK  status: ('A' for Active; 'I' for Inactive)
REMARK    1  A    between atoms: C_1  and  C_2
REMARK    2  A    between atoms: C_2  and  C_4
REMARK    3  A    between atoms: C_2  and  O_15
REMARK    4  A    between atoms: N_9  and  C_10
REMARK    5  A    between atoms: O_15  and  C_16
REMARK    6  A    between atoms: C_16  and  C_18
REMARK                            x       y       z     vdW  Elec       q    Type
REMARK                         _______ _______ _______ _____ _____    ______ ____
ROOT
ATOM      1  O   UNL     1       0.693  -0.477   1.160  0.00  0.00    -0.452 OA
ENDROOT
BRANCH   1   3
ATOM      2  C   UNL     1      -0.019   1.526   0.010  0.00  0.00    +0.062 C 
ATOM      3  C   UNL     1       0.002  -0.004   0.002  0.00  0.00    +0.259 C 
BRANCH   3   4
ATOM      4  C   UNL     1      -1.412  -0.526   0.013  0.00  0.00    +0.261 C 
ATOM      5  O   UNL     1      -1.818  -1.157   0.965  0.00  0.00    -0.271 OA
ATOM      6  N   UNL     1      -2.225  -0.290  -1.036  0.00  0.00    -0.237 N 
ATOM      7  C   UNL     1      -3.489  -0.757  -1.027  0.00  0.00    +0.306 C 
ATOM      8  O   UNL     1      -3.896  -1.390  -0.072  0.00  0.00    -0.252 OA
ATOM      9  N   UNL     1      -4.302  -0.522  -2.075  0.00  0.00    -0.296 N 
ATOM     10  H   UNL     1      -1.900   0.215  -1.798  0.00  0.00    +0.159 HD
ATOM     11  H   UNL     1      -3.977  -0.017  -2.837  0.00  0.00    +0.151 HD
BRANCH   9  12
ATOM     12  C   UNL     1      -5.677  -1.029  -2.065  0.00  0.00    +0.074 C 
ATOM     13  C   UNL     1      -5.715  -2.462  -2.635  0.00  0.00    +0.022 C 
ATOM     14  C   UNL     1      -7.040  -2.516  -3.437  0.00  0.00    +0.002 C 
ATOM     15  C   UNL     1      -7.110  -1.107  -4.076  0.00  0.00    +0.002 C 
ATOM     16  C   UNL     1      -6.563  -0.167  -2.981  0.00  0.00    +0.022 C 
ENDBRANCH   9  12
ENDBRANCH   3   4
ENDBRANCH   1   3
BRANCH   1  17
ATOM     17  C   UNL     1       2.018  -0.662   1.046  0.00  0.00    +0.320 C 
ATOM     18  O   UNL     1       2.572  -0.429  -0.002  0.00  0.00    -0.250 OA
BRANCH  17  19
ATOM     19  C   UNL     1       2.814  -1.159   2.225  0.00  0.00    +0.165 C 
ATOM     20  C   UNL     1       2.656  -0.199   3.372  0.00  0.00    +0.013 A 
ATOM     21  C   UNL     1       1.496  -0.227   4.125  0.00  0.00    +0.008 A 
ATOM     22  C   UNL     1       1.332   0.647   5.183  0.00  0.00    +0.001 A 
ATOM     23  C   UNL     1       2.329   1.554   5.493  0.00  0.00    +0.004 A 
ATOM     24  C   UNL     1       3.489   1.586   4.745  0.00  0.00    +0.046 A 
ATOM     25  C   UNL     1       3.657   0.708   3.680  0.00  0.00    +0.133 A 
ATOM     26  O   UNL     1       4.802   0.754   2.958  0.00  0.00    -0.455 OA
ATOM     27  C   UNL     1       5.181  -0.317   2.219  0.00  0.00    +0.133 A 
ATOM     28  C   UNL     1       4.261  -1.278   1.833  0.00  0.00    +0.013 A 
ATOM     29  C   UNL     1       4.673  -2.362   1.079  0.00  0.00    +0.008 A 
ATOM     30  C   UNL     1       5.999  -2.490   0.709  0.00  0.00    +0.001 A 
ATOM     31  C   UNL     1       6.919  -1.532   1.094  0.00  0.00    +0.004 A 
ATOM     32  C   UNL     1       6.514  -0.447   1.846  0.00  0.00    +0.046 A 
ENDBRANCH  17  19
ENDBRANCH   1  17
TORSDOF 5
