REMARK  Name = ZINC09303549
REMARK  5 active torsions:
REMARK  status: ('A' for Active; 'I' for Inactive)
REMARK    1  A    between atoms: C_3  and  C_16
REMARK    2  A    between atoms: C_5  and  S_7
REMARK    3  A    between atoms: S_7  and  N_10
REMARK    4  A    between atoms: N_21  and  N_22
REMARK    5  A    between atoms: C_23  and  C_24
REMARK                            x       y       z     vdW  Elec       q    Type
REMARK                         _______ _______ _______ _____ _____    ______ ____
ROOT
ATOM      1  C   UNL     1       3.660   2.164  -0.022  0.00  0.00    +0.080 A 
ATOM      2  C   UNL     1       3.655   3.526   0.093  0.00  0.00    +0.077 A 
ATOM      3  S   UNL     1       5.408   3.871   0.023  0.00  0.00    -0.059 S 
ATOM      4  C   UNL     1       5.962   2.180  -0.151  0.00  0.00    +0.178 A 
ATOM      5  N   UNL     1       4.815   1.525  -0.135  0.00  0.00    -0.224 NA
ATOM      6  N   UNL     1       7.251   1.688  -0.265  0.00  0.00    -0.215 N 
ATOM      7  H   UNL     1       7.399   0.733  -0.354  0.00  0.00    +0.176 HD
ENDROOT
BRANCH   1  10
ATOM      8  C   UNL     1      -0.017   1.379   0.010  0.00  0.00    +0.003 A 
ATOM      9  C   UNL     1       1.168   2.088   0.002  0.00  0.00    +0.010 A 
ATOM     10  C   UNL     1       2.384   1.407  -0.013  0.00  0.00    +0.003 A 
ATOM     11  C   UNL     1       2.397   0.013  -0.021  0.00  0.00    +0.038 A 
ATOM     12  C   UNL     1       1.206  -0.685  -0.013  0.00  0.00    +0.106 A 
ATOM     13  C   UNL     1       0.002  -0.004   0.002  0.00  0.00    +0.028 A 
BRANCH  12  14
ATOM     14  S   UNL     1       1.221  -2.447  -0.023  0.00  0.00    +0.061 S 
ATOM     15  O   UNL     1      -0.027  -2.860  -0.564  0.00  0.00    -0.153 OA
ATOM     16  O   UNL     1       2.464  -2.840  -0.588  0.00  0.00    -0.153 OA
BRANCH  14  17
ATOM     17  N   UNL     1       1.240  -2.945   1.556  0.00  0.00    -0.172 NA
ATOM     18  C   UNL     1       2.510  -3.157   2.268  0.00  0.00    +0.137 C 
ATOM     19  C   UNL     1       2.450  -2.400   3.599  0.00  0.00    +0.177 C 
ATOM     20  O   UNL     1       1.260  -2.772   4.299  0.00  0.00    -0.377 OA
ATOM     21  C   UNL     1       0.050  -2.430   3.619  0.00  0.00    +0.177 C 
ATOM     22  C   UNL     1      -0.013  -3.183   2.290  0.00  0.00    +0.137 C 
ENDBRANCH  14  17
ENDBRANCH  12  14
ENDBRANCH   1  10
BRANCH   6  23
ATOM     23  N   UNL     1       8.341   2.568  -0.252  0.00  0.00    -0.188 NA
ATOM     24  C   UNL     1       9.549   2.106  -0.360  0.00  0.00    +0.139 C 
BRANCH  24  25
ATOM     25  C   UNL     1      10.696   3.032  -0.346  0.00  0.00    +0.013 A 
ATOM     26  C   UNL     1      11.998   2.539  -0.467  0.00  0.00    +0.012 A 
ATOM     27  C   UNL     1      13.066   3.411  -0.454  0.00  0.00    +0.021 A 
ATOM     28  C   UNL     1      12.852   4.773  -0.320  0.00  0.00    +0.042 A 
ATOM     29  C   UNL     1      11.565   5.269  -0.199  0.00  0.00    +0.040 A 
ATOM     30  C   UNL     1      10.486   4.409  -0.218  0.00  0.00    +0.051 A 
ATOM     31 CL   UNL     1       8.872   5.033  -0.074  0.00  0.00    -0.083 Cl
ATOM     32 CL   UNL     1      14.203   5.863  -0.304  0.00  0.00    -0.083 Cl
ENDBRANCH  24  25
ENDBRANCH   6  23
TORSDOF 5
