REMARK  Name = ZINC63362267
REMARK  11 active torsions:
REMARK  status: ('A' for Active; 'I' for Inactive)
REMARK    1  A    between atoms: C_1  and  C_2
REMARK    2  A    between atoms: C_2  and  C_3
REMARK    3  A    between atoms: C_3  and  C_4
REMARK    4  A    between atoms: C_4  and  C_5
REMARK    5  A    between atoms: C_5  and  C_7
REMARK    6  A    between atoms: C_5  and  C_9
REMARK    7  A    between atoms: C_7  and  C_8
REMARK    8  A    between atoms: C_9  and  N_10
REMARK    9  A    between atoms: C_11  and  C_13
REMARK   10  A    between atoms: C_17  and  N_19
REMARK   11  A    between atoms: C_22  and  C_38
REMARK                            x       y       z     vdW  Elec       q    Type
REMARK                         _______ _______ _______ _____ _____    ______ ____
ROOT
ATOM      1  N   UNL     1       5.549  -9.284  -5.869  0.00  0.00    -0.192 N 
ATOM      2  C   UNL     1       5.196 -10.248  -4.993  0.00  0.00    +0.253 C 
ATOM      3  O   UNL     1       4.487 -10.127  -4.017  0.00  0.00    -0.272 OA
ATOM      4  C   UNL     1       5.869 -11.510  -5.484  0.00  0.00    +0.137 C 
ATOM      5  C   UNL     1       6.806 -12.073  -4.416  0.00  0.00    +0.139 C 
ATOM      6  C   UNL     1       8.230 -11.889  -4.918  0.00  0.00    -0.034 C 
ATOM      7  C   UNL     1       8.870 -11.200  -3.977  0.00  0.00    -0.001 A 
ATOM      8  C   UNL     1      10.274 -10.776  -3.862  0.00  0.00    +0.010 A 
ATOM      9  C   UNL     1      10.595 -10.061  -2.751  0.00  0.00    +0.001 A 
ATOM     10  C   UNL     1       9.670  -9.730  -1.756  0.00  0.00    +0.002 A 
ATOM     11  C   UNL     1       8.360 -10.082  -1.778  0.00  0.00    +0.026 A 
ATOM     12  C   UNL     1       7.904 -10.841  -2.895  0.00  0.00    +0.043 A 
ATOM     13  N   UNL     1       6.711 -11.327  -3.159  0.00  0.00    -0.375 N 
ATOM     14  C   UNL     1       8.709 -12.366  -6.267  0.00  0.00    +0.052 C 
ATOM     15  C   UNL     1       7.709 -11.834  -7.314  0.00  0.00    +0.115 C 
ATOM     16  N   UNL     1       6.701 -11.037  -6.610  0.00  0.00    -0.268 N 
ATOM     17  C   UNL     1       6.377  -9.752  -6.813  0.00  0.00    +0.316 C 
ATOM     18  O   UNL     1       6.789  -9.088  -7.744  0.00  0.00    -0.252 OA
ATOM     19  C   UNL     1       4.842 -12.545  -5.946  0.00  0.00    +0.044 C 
ATOM     20  H   UNL     1       5.909 -11.213  -2.626  0.00  0.00    +0.160 HD
ENDROOT
BRANCH   1  25
ATOM     21  C   UNL     1       3.893  -6.216  -4.664  0.00  0.00    +0.038 A 
ATOM     22  C   UNL     1       4.220  -5.326  -5.689  0.00  0.00    +0.013 A 
ATOM     23  C   UNL     1       4.981  -5.754  -6.757  0.00  0.00    +0.003 A 
ATOM     24  C   UNL     1       5.421  -7.064  -6.817  0.00  0.00    +0.024 A 
ATOM     25  C   UNL     1       5.100  -7.957  -5.803  0.00  0.00    +0.046 A 
ATOM     26  C   UNL     1       4.342  -7.535  -4.722  0.00  0.00    +0.037 A 
BRANCH  21  28
ATOM     27  N   UNL     1       2.644  -4.484  -3.464  0.00  0.00    -0.311 N 
ATOM     28  C   UNL     1       3.078  -5.760  -3.518  0.00  0.00    +0.244 C 
ATOM     29  O   UNL     1       2.798  -6.535  -2.624  0.00  0.00    -0.270 OA
ATOM     30  H   UNL     1       2.868  -3.866  -4.177  0.00  0.00    +0.149 HD
BRANCH  27  31
ATOM     31  C   UNL     1       1.837  -4.033  -2.328  0.00  0.00    +0.108 C 
BRANCH  31  32
ATOM     32  C   UNL     1       1.588  -2.527  -2.446  0.00  0.00    +0.006 C 
BRANCH  32  33
ATOM     33  C   UNL     1       2.920  -1.781  -2.338  0.00  0.00    +0.002 C 
ATOM     34  C   UNL     1       3.530  -2.023  -0.956  0.00  0.00    +0.004 C 
ENDBRANCH  32  33
BRANCH  32  35
ATOM     35  C   UNL     1       0.657  -2.075  -1.319  0.00  0.00    +0.005 C 
BRANCH  35  36
ATOM     36  C   UNL     1       0.309  -0.597  -1.508  0.00  0.00    +0.000 C 
BRANCH  36  38
ATOM     37  C   UNL     1      -0.971   1.334  -0.571  0.00  0.00    +0.004 C 
ATOM     38  C   UNL     1      -0.622  -0.144  -0.382  0.00  0.00    -0.003 C 
ENDBRANCH  36  38
ENDBRANCH  35  36
ENDBRANCH  32  35
ENDBRANCH  31  32
ENDBRANCH  27  31
ENDBRANCH  21  28
ENDBRANCH   1  25
TORSDOF 8
