REMARK  Name = ZINC28034150
REMARK  7 active torsions:
REMARK  status: ('A' for Active; 'I' for Inactive)
REMARK    1  A    between atoms: C_1  and  C_2
REMARK    2  A    between atoms: C_5  and  N_8
REMARK    3  A    between atoms: C_12  and  S_13
REMARK    4  A    between atoms: S_13  and  C_14
REMARK    5  A    between atoms: C_14  and  C_16
REMARK    6  A    between atoms: C_14  and  C_17
REMARK    7  A    between atoms: N_22  and  C_23
REMARK                            x       y       z     vdW  Elec       q    Type
REMARK                         _______ _______ _______ _____ _____    ______ ____
ROOT
ATOM      1  N   UNL     1       5.219   1.720  -1.296  0.00  0.00    -0.259 N 
ATOM      2  C   UNL     1       6.013   2.829  -1.179  0.00  0.00    +0.225 A 
ATOM      3  N   UNL     1       5.298   3.785  -0.641  0.00  0.00    -0.112 NA
ATOM      4  N   UNL     1       4.009   3.286  -0.409  0.00  0.00    -0.120 NA
ATOM      5  C   UNL     1       3.978   2.039  -0.813  0.00  0.00    +0.198 A 
ATOM      6  N   UNL     1       7.346   2.921  -1.560  0.00  0.00    -0.299 N 
ATOM      7  C   UNL     1       7.497   2.722  -3.024  0.00  0.00    +0.108 C 
ATOM      8  C   UNL     1       8.874   3.363  -3.329  0.00  0.00    +0.020 C 
ATOM      9  C   UNL     1       8.898   4.592  -2.392  0.00  0.00    +0.020 C 
ATOM     10  C   UNL     1       7.884   4.270  -1.279  0.00  0.00    +0.108 C 
ENDROOT
BRANCH   1  15
ATOM     11  C   UNL     1       6.788  -3.304  -3.419  0.00  0.00    +0.044 C 
ATOM     12  C   UNL     1       6.372  -1.970  -2.855  0.00  0.00    -0.050 A 
ATOM     13  C   UNL     1       5.413  -1.216  -3.505  0.00  0.00    +0.005 A 
ATOM     14  C   UNL     1       5.029   0.007  -2.991  0.00  0.00    +0.026 A 
ATOM     15  C   UNL     1       5.606   0.479  -1.820  0.00  0.00    +0.052 A 
ATOM     16  C   UNL     1       6.572  -0.279  -1.172  0.00  0.00    +0.026 A 
ATOM     17  C   UNL     1       6.949  -1.503  -1.689  0.00  0.00    +0.005 A 
ENDBRANCH   1  15
BRANCH   5  18
ATOM     18  S   UNL     1       2.586   0.961  -0.740  0.00  0.00    -0.073 S 
BRANCH  18  19
ATOM     19  C   UNL     1       1.280   1.979   0.001  0.00  0.00    +0.137 C 
ATOM     20  C   UNL     1       1.668   2.341   1.436  0.00  0.00    +0.029 C 
BRANCH  19  21
ATOM     21  C   UNL     1      -0.014   1.208   0.009  0.00  0.00    +0.233 C 
ATOM     22  O   UNL     1       0.002  -0.004   0.002  0.00  0.00    -0.274 OA
ATOM     23  N   UNL     1      -1.191   1.866   0.018  0.00  0.00    -0.239 N 
ATOM     24  C   UNL     1      -2.349   1.176   0.020  0.00  0.00    +0.306 C 
ATOM     25  O   UNL     1      -2.332  -0.039   0.013  0.00  0.00    -0.252 OA
ATOM     26  N   UNL     1      -3.525   1.834   0.029  0.00  0.00    -0.296 N 
ATOM     27  H   UNL     1      -1.206   2.966   0.024  0.00  0.00    +0.159 HD
ATOM     28  H   UNL     1      -3.540   2.934   0.035  0.00  0.00    +0.151 HD
BRANCH  26  29
ATOM     29  C   UNL     1      -4.783   1.085   0.031  0.00  0.00    +0.074 C 
ATOM     30  C   UNL     1      -5.164   0.724  -1.407  0.00  0.00    +0.022 C 
ATOM     31  C   UNL     1      -6.479  -0.059  -1.405  0.00  0.00    +0.002 C 
ATOM     32  C   UNL     1      -7.583   0.799  -0.785  0.00  0.00    +0.000 C 
ATOM     33  C   UNL     1      -7.202   1.161   0.652  0.00  0.00    +0.002 C 
ATOM     34  C   UNL     1      -5.888   1.944   0.650  0.00  0.00    +0.022 C 
ENDBRANCH  26  29
ENDBRANCH  19  21
ENDBRANCH  18  19
ENDBRANCH   5  18
TORSDOF 5
