REMARK  Name = ZINC44699545
REMARK  12 active torsions:
REMARK  status: ('A' for Active; 'I' for Inactive)
REMARK    1  A    between atoms: C_1  and  C_2
REMARK    2  A    between atoms: C_2  and  C_3
REMARK    3  A    between atoms: C_16  and  C_17
REMARK    4  A    between atoms: C_16  and  C_19
REMARK    5  A    between atoms: C_17  and  C_18
REMARK    6  A    between atoms: C_19  and  C_20
REMARK    7  A    between atoms: C_20  and  O_22
REMARK    8  A    between atoms: O_22  and  C_23
REMARK    9  A    between atoms: C_25  and  O_39
REMARK   10  A    between atoms: C_27  and  O_38
REMARK   11  A    between atoms: C_29  and  O_37
REMARK   12  A    between atoms: C_31  and  C_34
REMARK                            x       y       z     vdW  Elec       q    Type
REMARK                         _______ _______ _______ _____ _____    ______ ____
ROOT
ATOM      1  C   UNL     1       6.070   0.987  -0.097  0.00  0.00    +0.162 C 
ENDROOT
BRANCH   1  15
ATOM      2  C   UNL     1       0.667  -0.367  -1.088  0.00  0.00    -0.024 A 
ATOM      3  C   UNL     1      -0.103  -0.654  -2.194  0.00  0.00    +0.005 A 
ATOM      4  C   UNL     1       0.488  -1.079  -3.376  0.00  0.00    +0.001 A 
ATOM      5  C   UNL     1       1.844  -1.220  -3.462  0.00  0.00    +0.010 A 
ATOM      6  C   UNL     1       2.646  -0.935  -2.355  0.00  0.00    +0.004 A 
ATOM      7  C   UNL     1       2.050  -0.498  -1.155  0.00  0.00    +0.050 A 
ATOM      8  N   UNL     1       3.065  -0.287  -0.245  0.00  0.00    -0.355 N 
ATOM      9  H   UNL     1       2.941   0.016   0.668  0.00  0.00    +0.166 HD
ATOM     10  C   UNL     1       4.268  -0.568  -0.820  0.00  0.00    +0.053 A 
ATOM     11  C   UNL     1       4.078  -0.973  -2.094  0.00  0.00    -0.014 A 
ATOM     12  C   UNL     1       5.203  -1.359  -3.019  0.00  0.00    +0.065 C 
ATOM     13  C   UNL     1       6.515  -0.860  -2.396  0.00  0.00    +0.166 C 
ATOM     14  O   UNL     1       6.555  -1.224  -1.013  0.00  0.00    -0.366 OA
ATOM     15  C   UNL     1       5.640  -0.478  -0.191  0.00  0.00    +0.119 C 
BRANCH   2  17
ATOM     16  C   UNL     1       0.012   1.623   0.239  0.00  0.00    +0.009 C 
ATOM     17  C   UNL     1       0.013   0.093   0.189  0.00  0.00    +0.034 C 
ENDBRANCH   2  17
BRANCH  15  18
ATOM     18  C   UNL     1       5.608  -1.098   1.208  0.00  0.00    +0.038 C 
ATOM     19  C   UNL     1       5.080  -2.532   1.117  0.00  0.00    +0.007 C 
ENDBRANCH  15  18
ENDBRANCH   1  15
BRANCH   1  20
ATOM     20  C   UNL     1       7.474   1.065   0.445  0.00  0.00    +0.312 C 
ATOM     21  O   UNL     1       8.043   0.058   0.796  0.00  0.00    -0.251 OA
BRANCH  20  22
ATOM     22  O   UNL     1       8.094   2.252   0.537  0.00  0.00    -0.432 OA
BRANCH  22  23
ATOM     23  C   UNL     1       9.424   2.251   1.059  0.00  0.00    +0.343 C 
ATOM     24  C   UNL     1       9.870   3.691   1.322  0.00  0.00    +0.214 C 
ATOM     25  C   UNL     1       9.892   4.461  -0.002  0.00  0.00    +0.180 C 
ATOM     26  C   UNL     1      10.816   3.736  -0.986  0.00  0.00    +0.186 C 
ATOM     27  C   UNL     1      10.332   2.294  -1.160  0.00  0.00    +0.266 C 
ATOM     28  O   UNL     1      10.307   1.645   0.113  0.00  0.00    -0.322 OA
BRANCH  27  29
ATOM     29  C   UNL     1      11.271   1.557  -2.081  0.00  0.00    +0.387 C 
ATOM     30  O   UNL     1      11.931   0.623  -1.659  0.00  0.00    -0.243 OA
ATOM     31  O   UNL     1      11.369   1.895  -3.248  0.00  0.00    -0.243 OA
ENDBRANCH  27  29
BRANCH  26  32
ATOM     32  O   UNL     1      12.150   3.736  -0.476  0.00  0.00    -0.386 OA
ATOM     33  H   UNL     1      12.790   3.292  -1.050  0.00  0.00    +0.210 HD
ENDBRANCH  26  32
BRANCH  25  34
ATOM     34  O   UNL     1       8.570   4.521  -0.541  0.00  0.00    -0.386 OA
ATOM     35  H   UNL     1       7.930   4.963   0.034  0.00  0.00    +0.210 HD
ENDBRANCH  25  34
BRANCH  24  36
ATOM     36  O   UNL     1      11.180   3.688   1.895  0.00  0.00    -0.383 OA
ATOM     37  H   UNL     1      11.240   3.214   2.736  0.00  0.00    +0.210 HD
ENDBRANCH  24  36
ENDBRANCH  22  23
ENDBRANCH  20  22
ENDBRANCH   1  20
TORSDOF 10
