REMARK  Name = ZINC33597580
REMARK  10 active torsions:
REMARK  status: ('A' for Active; 'I' for Inactive)
REMARK    1  A    between atoms: C_1  and  C_2
REMARK    2  A    between atoms: C_2  and  C_3
REMARK    3  A    between atoms: C_3  and  O_4
REMARK    4  A    between atoms: O_4  and  C_5
REMARK    5  A    between atoms: C_8  and  C_11
REMARK    6  A    between atoms: N_19  and  C_22
REMARK    7  A    between atoms: C_28  and  C_30
REMARK    8  A    between atoms: C_28  and  C_38
REMARK    9  A    between atoms: C_30  and  C_31
REMARK   10  A    between atoms: C_34  and  O_37
REMARK                            x       y       z     vdW  Elec       q    Type
REMARK                         _______ _______ _______ _____ _____    ______ ____
ROOT
ATOM      1  C   UNL     1       3.240  -4.426  -5.648  0.00  0.00    -0.027 C 
ATOM      2  C   UNL     1       2.197  -5.021  -6.579  0.00  0.00    +0.077 C 
ATOM      3  C   UNL     1       2.013  -6.413  -5.862  0.00  0.00    +0.086 C 
ATOM      4  C   UNL     1       0.777  -6.879  -6.440  0.00  0.00    +0.225 C 
ATOM      5  O   UNL     1       0.466  -8.023  -6.691  0.00  0.00    -0.275 OA
ATOM      6  N   UNL     1       0.029  -5.746  -6.643  0.00  0.00    -0.239 N 
ATOM      7  C   UNL     1       0.766  -4.588  -6.528  0.00  0.00    +0.225 C 
ATOM      8  O   UNL     1       0.349  -3.456  -6.406  0.00  0.00    -0.275 OA
ATOM      9  C   UNL     1       3.408  -6.848  -5.677  0.00  0.00    +0.052 C 
ATOM     10  N   UNL     1       4.069  -5.578  -5.182  0.00  0.00    +0.396 N 
ATOM     11  H   UNL     1       4.999  -5.509  -5.568  0.00  0.00    -0.083 HD
ATOM     12  H   UNL     1       4.116  -5.579  -4.174  0.00  0.00    -0.083 HD
ENDROOT
BRANCH   1  16
ATOM     13  C   UNL     1       1.342  -2.529  -2.322  0.00  0.00    +0.121 A 
ATOM     14  C   UNL     1       1.575  -3.897  -2.302  0.00  0.00    +0.046 A 
ATOM     15  C   UNL     1       2.189  -4.507  -3.379  0.00  0.00    +0.005 A 
ATOM     16  C   UNL     1       2.571  -3.757  -4.475  0.00  0.00    -0.060 A 
ATOM     17  C   UNL     1       2.340  -2.394  -4.497  0.00  0.00    +0.005 A 
ATOM     18  C   UNL     1       1.721  -1.779  -3.426  0.00  0.00    +0.046 A 
BRANCH  13  19
ATOM     19  O   UNL     1       0.738  -1.926  -1.264  0.00  0.00    -0.492 OA
BRANCH  19  20
ATOM     20  C   UNL     1       0.376  -2.760  -0.162  0.00  0.00    +0.229 C 
BRANCH  20  22
ATOM     21  C   UNL     1      -0.675  -2.804   2.104  0.00  0.00    +0.007 C 
ATOM     22  C   UNL     1      -0.287  -1.911   0.924  0.00  0.00    +0.038 C 
ENDBRANCH  20  22
ENDBRANCH  19  20
ENDBRANCH  13  19
ENDBRANCH   1  16
BRANCH   6  23
ATOM     23  C   UNL     1      -1.401  -5.764  -6.961  0.00  0.00    +0.084 C 
ATOM     24  C   UNL     1      -1.631  -5.088  -8.314  0.00  0.00    +0.023 C 
ATOM     25  C   UNL     1      -3.124  -5.107  -8.646  0.00  0.00    +0.002 C 
ATOM     26  C   UNL     1      -3.897  -4.353  -7.562  0.00  0.00    +0.000 C 
ATOM     27  C   UNL     1      -3.667  -5.028  -6.209  0.00  0.00    +0.002 C 
ATOM     28  C   UNL     1      -2.174  -5.010  -5.877  0.00  0.00    +0.023 C 
ENDBRANCH   6  23
BRANCH   9  29
ATOM     29  C   UNL     1       4.003  -7.310  -6.982  0.00  0.00    +0.347 C 
ATOM     30  O   UNL     1       4.987  -6.750  -7.434  0.00  0.00    -0.248 OA
ATOM     31  O   UNL     1       3.500  -8.242  -7.585  0.00  0.00    -0.248 OA
ENDBRANCH   9  29
BRANCH   9  32
ATOM     32  C   UNL     1       3.498  -7.948  -4.617  0.00  0.00    +0.035 C 
BRANCH  32  33
ATOM     33  C   UNL     1       4.946  -8.283  -4.364  0.00  0.00    -0.048 A 
ATOM     34  C   UNL     1       5.568  -9.266  -5.112  0.00  0.00    +0.007 A 
ATOM     35  C   UNL     1       6.894  -9.575  -4.881  0.00  0.00    +0.045 A 
ATOM     36  C   UNL     1       7.602  -8.899  -3.898  0.00  0.00    +0.117 A 
ATOM     37  C   UNL     1       6.976  -7.914  -3.149  0.00  0.00    +0.045 A 
ATOM     38  C   UNL     1       5.651  -7.604  -3.387  0.00  0.00    +0.007 A 
BRANCH  36  39
ATOM     39  O   UNL     1       8.907  -9.202  -3.669  0.00  0.00    -0.507 OA
ATOM     40  H   UNL     1       9.530  -8.683  -4.196  0.00  0.00    +0.292 HD
ENDBRANCH  36  39
ENDBRANCH  32  33
ENDBRANCH   9  32
TORSDOF 9
