REMARK  Name = ZINC46642920
REMARK  6 active torsions:
REMARK  status: ('A' for Active; 'I' for Inactive)
REMARK    1  A    between atoms: C_5  and  C_7
REMARK    2  A    between atoms: C_9  and  C_13
REMARK    3  A    between atoms: N_15  and  N_16
REMARK    4  A    between atoms: N_16  and  C_17
REMARK    5  A    between atoms: C_17  and  N_19
REMARK    6  A    between atoms: N_19  and  C_20
REMARK                            x       y       z     vdW  Elec       q    Type
REMARK                         _______ _______ _______ _____ _____    ______ ____
ROOT
ATOM      1  C   UNL     1       0.255  -5.563   0.852  0.00  0.00    +0.280 C 
ATOM      2  O   UNL     1      -0.673  -5.531   1.637  0.00  0.00    -0.267 OA
ATOM      3  N   UNL     1       0.750  -6.748   0.443  0.00  0.00    -0.230 N 
ATOM      4  H   UNL     1       1.490  -6.773  -0.183  0.00  0.00    +0.173 HD
ENDROOT
BRANCH   1   7
ATOM      5  C   UNL     1       1.248  -2.162  -0.021  0.00  0.00    +0.068 A 
ATOM      6  C   UNL     1       0.425  -2.996   0.683  0.00  0.00    +0.062 A 
ATOM      7  C   UNL     1       0.838  -4.303   0.346  0.00  0.00    +0.149 A 
ATOM      8  N   UNL     1       1.840  -4.193  -0.504  0.00  0.00    -0.169 NA
ATOM      9  N   UNL     1       2.094  -2.956  -0.738  0.00  0.00    -0.276 N 
ATOM     10  H   UNL     1       2.788  -2.634  -1.335  0.00  0.00    +0.189 HD
BRANCH   5  15
ATOM     11  C   UNL     1      -0.017   1.375   0.010  0.00  0.00    +0.001 A 
ATOM     12  C   UNL     1       1.170   2.087   0.002  0.00  0.00    +0.001 A 
ATOM     13  C   UNL     1       2.382   1.421  -0.013  0.00  0.00    +0.020 A 
ATOM     14  C   UNL     1       2.415   0.041  -0.021  0.00  0.00    +0.050 A 
ATOM     15  C   UNL     1       1.221  -0.682  -0.013  0.00  0.00    +0.018 A 
ATOM     16  C   UNL     1       0.002  -0.004   0.002  0.00  0.00    +0.011 A 
ATOM     17 CL   UNL     1       3.937  -0.794  -0.040  0.00  0.00    -0.083 Cl
ENDBRANCH   5  15
ENDBRANCH   1   7
BRANCH   3  18
ATOM     18  N   UNL     1       0.197  -7.942   0.923  0.00  0.00    -0.246 N 
ATOM     19  H   UNL     1      -0.543  -7.916   1.550  0.00  0.00    +0.172 HD
BRANCH  18  20
ATOM     20  C   UNL     1       0.693  -9.127   0.514  0.00  0.00    +0.147 C 
ATOM     21  S   UNL     1       0.017 -10.586   1.101  0.00  0.00    -0.017 S 
BRANCH  20  22
ATOM     22  N   UNL     1       1.722  -9.162  -0.356  0.00  0.00    -0.323 N 
ATOM     23  H   UNL     1       2.105  -8.335  -0.689  0.00  0.00    +0.148 HD
BRANCH  22  24
ATOM     24  C   UNL     1       2.261 -10.450  -0.801  0.00  0.00    +0.072 C 
ATOM     25  C   UNL     1       3.293 -10.947   0.213  0.00  0.00    +0.022 C 
ATOM     26  C   UNL     1       3.856 -12.292  -0.252  0.00  0.00    +0.002 C 
ATOM     27  C   UNL     1       4.524 -12.121  -1.618  0.00  0.00    +0.000 C 
ATOM     28  C   UNL     1       3.492 -11.623  -2.631  0.00  0.00    +0.002 C 
ATOM     29  C   UNL     1       2.928 -10.279  -2.167  0.00  0.00    +0.022 C 
ENDBRANCH  22  24
ENDBRANCH  20  22
ENDBRANCH  18  20
ENDBRANCH   3  18
TORSDOF 6
