REMARK  Name = ZINC39379793
REMARK  6 active torsions:
REMARK  status: ('A' for Active; 'I' for Inactive)
REMARK    1  A    between atoms: C_6  and  C_11
REMARK    2  A    between atoms: C_11  and  N_12
REMARK    3  A    between atoms: C_18  and  C_20
REMARK    4  A    between atoms: C_20  and  C_21
REMARK    5  A    between atoms: N_23  and  C_24
REMARK    6  A    between atoms: C_24  and  C_25
REMARK                            x       y       z     vdW  Elec       q    Type
REMARK                         _______ _______ _______ _____ _____    ______ ____
ROOT
ATOM      1  N   UNL     1       5.488  -2.860   1.481  0.00  0.00    +0.391 N 
ATOM      2  C   UNL     1       4.497  -3.702   2.169  0.00  0.00    -0.058 C 
ATOM      3  C   UNL     1       4.945  -3.908   3.617  0.00  0.00    +0.085 C 
ATOM      4  N   UNL     1       6.333  -4.365   3.647  0.00  0.00    -0.318 N 
ATOM      5  C   UNL     1       7.157  -4.235   2.601  0.00  0.00    +0.200 C 
ATOM      6  O   UNL     1       8.303  -4.618   2.712  0.00  0.00    -0.278 OA
ATOM      7  C   UNL     1       6.721  -3.634   1.295  0.00  0.00    +0.028 C 
ATOM      8  H   UNL     1       6.670  -4.778   4.457  0.00  0.00    +0.149 HD
ATOM      9  H   UNL     1       5.683  -2.042   2.037  0.00  0.00    -0.080 HD
ENDROOT
BRANCH   1  10
ATOM     10  C   UNL     1       4.962  -2.451   0.172  0.00  0.00    -0.042 C 
BRANCH  10  16
ATOM     11  C   UNL     1       0.687   2.318   1.002  0.00  0.00    +0.001 A 
ATOM     12  C   UNL     1       1.969   2.858   0.913  0.00  0.00    +0.001 A 
ATOM     13  C   UNL     1       3.056   2.058   0.735  0.00  0.00    +0.008 A 
ATOM     14  C   UNL     1       2.886   0.667   0.639  0.00  0.00    -0.018 A 
ATOM     15  C   UNL     1       3.984  -0.191   0.456  0.00  0.00    +0.010 A 
ATOM     16  C   UNL     1       3.782  -1.534   0.368  0.00  0.00    -0.063 A 
ATOM     17  C   UNL     1       2.500  -2.074   0.458  0.00  0.00    +0.002 A 
ATOM     18  C   UNL     1       1.414  -1.274   0.635  0.00  0.00    +0.009 A 
ATOM     19  C   UNL     1       1.583   0.117   0.730  0.00  0.00    -0.018 A 
ATOM     20  C   UNL     1       0.485   0.975   0.913  0.00  0.00    +0.008 A 
ENDBRANCH  10  16
ENDBRANCH   1  10
BRANCH   7  21
ATOM     21  C   UNL     1       7.824  -2.713   0.767  0.00  0.00    +0.089 C 
BRANCH  21  22
ATOM     22  C   UNL     1       8.097  -1.628   1.776  0.00  0.00    +0.212 C 
ATOM     23  O   UNL     1       7.551  -1.655   2.859  0.00  0.00    -0.276 OA
ATOM     24  N   UNL     1       8.947  -0.627   1.475  0.00  0.00    -0.313 N 
ATOM     25  H   UNL     1       9.384  -0.605   0.609  0.00  0.00    +0.149 HD
BRANCH  24  26
ATOM     26  C   UNL     1       9.213   0.429   2.456  0.00  0.00    +0.137 C 
BRANCH  26  27
ATOM     27  C   UNL     1      10.206   1.433   1.868  0.00  0.00    +0.173 C 
ATOM     28  C   UNL     1      10.361   2.632   2.782  0.00  0.00    -0.019 C 
ATOM     29  C   UNL     1       9.948   3.668   2.054  0.00  0.00    +0.065 C 
ATOM     30  C   UNL     1      10.058   4.945   2.869  0.00  0.00    +0.057 C 
ATOM     31  C   UNL     1      10.191   4.477   4.335  0.00  0.00    +0.011 C 
ATOM     32  C   UNL     1      10.793   3.064   4.159  0.00  0.00    +0.035 C 
ATOM     33  N   UNL     1       9.564   3.244   0.820  0.00  0.00    -0.158 NA
ATOM     34  N   UNL     1       9.675   2.028   0.630  0.00  0.00    -0.178 NA
ENDBRANCH  26  27
ENDBRANCH  24  26
ENDBRANCH  21  22
ENDBRANCH   7  21
TORSDOF 6
