REMARK  Name = ZINC39480825
REMARK  8 active torsions:
REMARK  status: ('A' for Active; 'I' for Inactive)
REMARK    1  A    between atoms: C_4  and  C_7
REMARK    2  A    between atoms: C_7  and  C_8
REMARK    3  A    between atoms: C_11  and  N_31
REMARK    4  A    between atoms: C_12  and  N_14
REMARK    5  A    between atoms: C_18  and  S_21
REMARK    6  A    between atoms: S_21  and  O_24
REMARK    7  A    between atoms: O_24  and  C_25
REMARK    8  A    between atoms: N_31  and  S_32
REMARK                            x       y       z     vdW  Elec       q    Type
REMARK                         _______ _______ _______ _____ _____    ______ ____
ROOT
ATOM      1  C   UNL     1       3.271  -0.972   1.741  0.00  0.00    -0.041 A 
ATOM      2  C   UNL     1       3.973   0.019   2.403  0.00  0.00    +0.006 A 
ATOM      3  C   UNL     1       4.468  -0.210   3.674  0.00  0.00    +0.027 A 
ATOM      4  C   UNL     1       4.260  -1.436   4.288  0.00  0.00    +0.071 A 
ATOM      5  C   UNL     1       3.552  -2.435   3.620  0.00  0.00    +0.053 A 
ATOM      6  C   UNL     1       3.055  -2.195   2.348  0.00  0.00    +0.029 A 
ENDROOT
BRANCH   5   7
ATOM      7  N   UNL     1       3.339  -3.675   4.235  0.00  0.00    -0.330 N 
ATOM      8  C   UNL     1       2.145  -3.916   5.059  0.00  0.00    +0.086 C 
ATOM      9  C   UNL     1       2.591  -4.507   6.400  0.00  0.00    -0.061 C 
ATOM     10  N   UNL     1       3.412  -5.701   6.159  0.00  0.00    +0.398 N 
ATOM     11  C   UNL     1       4.648  -5.325   5.462  0.00  0.00    +0.133 C 
ATOM     12  C   UNL     1       4.301  -4.776   4.070  0.00  0.00    +0.115 C 
ATOM     13  H   UNL     1       3.643  -6.132   7.042  0.00  0.00    -0.083 HD
ATOM     14  H   UNL     1       2.893  -6.355   5.593  0.00  0.00    -0.083 HD
BRANCH  11  15
ATOM     15  S   UNL     1       5.711  -6.784   5.287  0.00  0.00    +0.109 S 
ATOM     16  O   UNL     1       4.993  -7.842   4.667  0.00  0.00    -0.138 OA
ATOM     17  O   UNL     1       6.993  -6.401   4.808  0.00  0.00    -0.138 OA
BRANCH  15  18
ATOM     18  O   UNL     1       5.956  -7.263   6.711  0.00  0.00    -0.347 OA
BRANCH  18  19
ATOM     19  C   UNL     1       6.829  -6.492   7.411  0.00  0.00    +0.156 A 
ATOM     20  C   UNL     1       8.188  -6.765   7.365  0.00  0.00    +0.048 A 
ATOM     21  C   UNL     1       9.073  -5.979   8.078  0.00  0.00    +0.004 A 
ATOM     22  C   UNL     1       8.606  -4.922   8.836  0.00  0.00    +0.000 A 
ATOM     23  C   UNL     1       7.251  -4.649   8.884  0.00  0.00    +0.004 A 
ATOM     24  C   UNL     1       6.362  -5.428   8.169  0.00  0.00    +0.048 A 
ENDBRANCH  18  19
ENDBRANCH  15  18
ENDBRANCH  11  15
ENDBRANCH   5   7
BRANCH   4  25
ATOM     25  N   UNL     1       4.761  -1.670   5.574  0.00  0.00    -0.193 N 
ATOM     26  H   UNL     1       5.083  -2.553   5.816  0.00  0.00    +0.176 HD
BRANCH  25  27
ATOM     27  S   UNL     1       4.801  -0.441   6.684  0.00  0.00    +0.194 S 
ATOM     28  O   UNL     1       5.476  -0.959   7.864  0.00  0.00    -0.124 OA
ATOM     29  O   UNL     1       5.539   0.654   6.073  0.00  0.00    -0.124 OA
ATOM     30  O   UNL     1       3.421  -0.078   6.962  0.00  0.00    -0.029 OA
ENDBRANCH  25  27
ENDBRANCH   4  25
BRANCH   1  31
ATOM     31  C   UNL     1       2.735  -0.715   0.356  0.00  0.00    +0.070 C 
BRANCH  31  35
ATOM     32  C   UNL     1      -1.202   0.920   0.632  0.00  0.00    +0.000 A 
ATOM     33  C   UNL     1      -0.104   1.760   0.615  0.00  0.00    +0.000 A 
ATOM     34  C   UNL     1       1.170   1.231   0.525  0.00  0.00    +0.004 A 
ATOM     35  C   UNL     1       1.346  -0.138   0.454  0.00  0.00    -0.043 A 
ATOM     36  C   UNL     1       0.248  -0.978   0.473  0.00  0.00    +0.004 A 
ATOM     37  C   UNL     1      -1.026  -0.449   0.560  0.00  0.00    +0.000 A 
ENDBRANCH  31  35
ENDBRANCH   1  31
TORSDOF 8
