REMARK  Name = ZINC64746134
REMARK  9 active torsions:
REMARK  status: ('A' for Active; 'I' for Inactive)
REMARK    1  A    between atoms: C_1  and  C_2
REMARK    2  A    between atoms: C_2  and  C_3
REMARK    3  A    between atoms: C_6  and  C_9
REMARK    4  A    between atoms: C_10  and  N_31
REMARK    5  A    between atoms: C_23  and  C_25
REMARK    6  A    between atoms: N_31  and  C_32
REMARK    7  A    between atoms: C_32  and  C_33
REMARK    8  A    between atoms: C_32  and  C_34
REMARK    9  A    between atoms: C_32  and  C_35
REMARK                            x       y       z     vdW  Elec       q    Type
REMARK                         _______ _______ _______ _____ _____    ______ ____
ROOT
ATOM      1  C   UNL     1      -5.943  -2.971   2.886  0.00  0.00    +0.114 A 
ATOM      2  C   UNL     1      -6.492  -2.110   1.983  0.00  0.00    +0.150 A 
ATOM      3  N   UNL     1      -7.535  -2.772   1.353  0.00  0.00    -0.190 N 
ATOM      4  C   UNL     1      -7.564  -4.022   1.919  0.00  0.00    +0.199 A 
ATOM      5  N   UNL     1      -6.629  -4.142   2.813  0.00  0.00    -0.218 NA
ATOM      6  S   UNL     1      -8.917  -4.798   1.064  0.00  0.00    -0.013 S 
ATOM      7  C   UNL     1      -9.356  -3.421   0.015  0.00  0.00    +0.184 A 
ATOM      8  N   UNL     1      -8.487  -2.515   0.371  0.00  0.00    -0.140 NA
ATOM      9  N   UNL     1     -10.362  -3.337  -0.934  0.00  0.00    -0.305 N 
ATOM     10  C   UNL     1     -10.560  -2.103  -1.707  0.00  0.00    +0.126 C 
ATOM     11  C   UNL     1     -10.504  -2.446  -3.201  0.00  0.00    +0.126 C 
ATOM     12  N   UNL     1     -11.391  -3.590  -3.454  0.00  0.00    -0.298 N 
ATOM     13  C   UNL     1     -11.194  -4.824  -2.681  0.00  0.00    +0.126 C 
ATOM     14  C   UNL     1     -11.246  -4.483  -1.191  0.00  0.00    +0.126 C 
ATOM     15  C   UNL     1     -12.370  -3.508  -4.377  0.00  0.00    +0.219 C 
ATOM     16  O   UNL     1     -13.137  -4.434  -4.531  0.00  0.00    -0.275 OA
ENDROOT
BRANCH   1  20
ATOM     17  C   UNL     1      -2.661  -2.148   5.457  0.00  0.00    -0.048 A 
ATOM     18  C   UNL     1      -3.690  -2.965   5.893  0.00  0.00    +0.004 A 
ATOM     19  C   UNL     1      -4.758  -3.236   5.063  0.00  0.00    +0.010 A 
ATOM     20  C   UNL     1      -4.800  -2.684   3.782  0.00  0.00    +0.004 A 
ATOM     21  C   UNL     1      -3.760  -1.861   3.349  0.00  0.00    +0.010 A 
ATOM     22  C   UNL     1      -2.700  -1.593   4.190  0.00  0.00    +0.004 A 
BRANCH  17  24
ATOM     23  C   UNL     1      -1.802  -0.609   7.201  0.00  0.00    +0.009 C 
ATOM     24  C   UNL     1      -1.498  -1.856   6.369  0.00  0.00    +0.032 C 
ENDBRANCH  17  24
ENDBRANCH   1  20
BRANCH  15  25
ATOM     25  C   UNL     1     -12.509  -2.266  -5.219  0.00  0.00    +0.075 C 
ATOM     26  C   UNL     1     -11.572  -2.359  -6.425  0.00  0.00    +0.013 C 
ATOM     27  C   UNL     1     -11.714  -1.097  -7.279  0.00  0.00    +0.001 C 
ATOM     28  C   UNL     1     -13.159  -0.970  -7.765  0.00  0.00    +0.000 C 
ATOM     29  C   UNL     1     -14.096  -0.877  -6.559  0.00  0.00    +0.001 C 
ATOM     30  C   UNL     1     -13.954  -2.139  -5.705  0.00  0.00    +0.013 C 
ENDBRANCH  15  25
BRANCH   2  31
ATOM     31  N   UNL     1      -6.078  -0.798   1.736  0.00  0.00    -0.323 N 
ATOM     32  H   UNL     1      -5.391  -0.394   2.289  0.00  0.00    +0.148 HD
BRANCH  31  33
ATOM     33  C   UNL     1      -6.681  -0.033   0.641  0.00  0.00    +0.025 C 
ATOM     34  C   UNL     1      -8.172   0.166   0.919  0.00  0.00    +0.031 C 
ATOM     35  C   UNL     1      -5.996   1.330   0.534  0.00  0.00    +0.031 C 
ATOM     36  C   UNL     1      -6.504  -0.797  -0.672  0.00  0.00    +0.031 C 
ENDBRANCH  31  33
ENDBRANCH   2  31
TORSDOF 5
