REMARK  Name = ZINC32538694
REMARK  8 active torsions:
REMARK  status: ('A' for Active; 'I' for Inactive)
REMARK    1  A    between atoms: C_1  and  C_2
REMARK    2  A    between atoms: C_2  and  C_4
REMARK    3  A    between atoms: C_2  and  N_10
REMARK    4  A    between atoms: C_11  and  C_13
REMARK    5  A    between atoms: C_13  and  C_15
REMARK    6  A    between atoms: C_13  and  N_16
REMARK    7  A    between atoms: N_19  and  S_22
REMARK    8  A    between atoms: S_22  and  C_25
REMARK                            x       y       z     vdW  Elec       q    Type
REMARK                         _______ _______ _______ _____ _____    ______ ____
ROOT
ATOM      1  N   UNL     1       4.226  -1.127   2.125  0.00  0.00    +0.389 N 
ATOM      2  C   UNL     1       4.536  -2.029   1.008  0.00  0.00    -0.060 C 
ATOM      3  C   UNL     1       6.018  -1.893   0.642  0.00  0.00    +0.091 C 
ATOM      4  N   UNL     1       6.820  -2.109   1.855  0.00  0.00    -0.180 NA
ATOM      5  C   UNL     1       6.480  -1.339   3.061  0.00  0.00    +0.091 C 
ATOM      6  C   UNL     1       4.980  -1.496   3.332  0.00  0.00    -0.060 C 
ATOM      7  H   UNL     1       4.538  -0.114   1.833  0.00  0.00    -0.081 HD
ENDROOT
BRANCH   4   8
ATOM      8  S   UNL     1       8.075  -3.191   1.864  0.00  0.00    +0.061 S 
ATOM      9  O   UNL     1       8.499  -3.330   0.515  0.00  0.00    -0.153 OA
ATOM     10  O   UNL     1       8.955  -2.783   2.902  0.00  0.00    -0.153 OA
BRANCH   8  11
ATOM     11  C   UNL     1       7.414  -4.751   2.348  0.00  0.00    +0.107 A 
ATOM     12  C   UNL     1       7.379  -5.101   3.685  0.00  0.00    +0.031 A 
ATOM     13  C   UNL     1       6.856  -6.322   4.067  0.00  0.00    +0.042 A 
ATOM     14  C   UNL     1       6.377  -7.200   3.109  0.00  0.00    +0.142 A 
ATOM     15  C   UNL     1       6.417  -6.850   1.769  0.00  0.00    +0.078 A 
ATOM     16  C   UNL     1       6.936  -5.625   1.390  0.00  0.00    +0.051 A 
ATOM     17 CL   UNL     1       5.817  -7.949   0.567  0.00  0.00    -0.081 Cl
ATOM     18  F   UNL     1       5.871  -8.396   3.481  0.00  0.00    -0.204 F 
ENDBRANCH   8  11
ENDBRANCH   4   8
BRANCH   1  19
ATOM     19  C   UNL     1       2.783  -1.099   2.395  0.00  0.00    +0.016 C 
ATOM     20  C   UNL     1       2.300  -2.510   2.736  0.00  0.00    -0.004 C 
BRANCH  19  22
ATOM     21  N   UNL     1       0.711  -0.489   1.189  0.00  0.00    -0.310 N 
ATOM     22  C   UNL     1       2.054  -0.600   1.174  0.00  0.00    +0.200 C 
ATOM     23  O   UNL     1       2.676  -0.297   0.177  0.00  0.00    -0.278 OA
ATOM     24  H   UNL     1       0.146  -0.764   2.092  0.00  0.00    +0.149 HD
BRANCH  21  26
ATOM     25  C   UNL     1      -0.019   1.526   0.010  0.00  0.00    +0.033 C 
ATOM     26  C   UNL     1       0.002  -0.004   0.002  0.00  0.00    +0.100 C 
BRANCH  26  27
ATOM     27  C   UNL     1      -1.412  -0.526   0.013  0.00  0.00    -0.027 A 
ATOM     28  C   UNL     1      -2.119  -0.582   1.199  0.00  0.00    +0.005 A 
ATOM     29  C   UNL     1      -3.417  -1.056   1.208  0.00  0.00    +0.000 A 
ATOM     30  C   UNL     1      -4.005  -1.483   0.032  0.00  0.00    +0.000 A 
ATOM     31  C   UNL     1      -3.296  -1.432  -1.153  0.00  0.00    +0.000 A 
ATOM     32  C   UNL     1      -2.000  -0.954  -1.163  0.00  0.00    +0.005 A 
ENDBRANCH  26  27
ENDBRANCH  21  26
ENDBRANCH  19  22
ENDBRANCH   1  19
TORSDOF 6
