REMARK  Name = ZINC42026613
REMARK  5 active torsions:
REMARK  status: ('A' for Active; 'I' for Inactive)
REMARK    1  A    between atoms: C_1  and  C_2
REMARK    2  A    between atoms: C_4  and  C_21
REMARK    3  A    between atoms: C_6  and  N_8
REMARK    4  A    between atoms: C_9  and  C_13
REMARK    5  A    between atoms: C_15  and  N_20
REMARK                            x       y       z     vdW  Elec       q    Type
REMARK                         _______ _______ _______ _____ _____    ______ ____
ROOT
ATOM      1  N   UNL     1      -0.061  -2.720   2.453  0.00  0.00    -0.193 N 
ATOM      2  C   UNL     1       0.746  -2.490   3.529  0.00  0.00    +0.190 A 
ATOM      3  N   UNL     1       0.577  -3.500   4.357  0.00  0.00    -0.108 NA
ATOM      4  N   UNL     1      -0.271  -4.337   3.879  0.00  0.00    -0.022 NA
ATOM      5  N   UNL     1      -0.708  -3.937   2.735  0.00  0.00    -0.039 NA
ENDROOT
BRANCH   1  11
ATOM      6  C   UNL     1      -0.561   1.751   0.468  0.00  0.00    +0.044 C 
ATOM      7  C   UNL     1      -0.462   0.254   0.326  0.00  0.00    -0.048 A 
ATOM      8  C   UNL     1      -0.524  -0.327  -0.928  0.00  0.00    +0.006 A 
ATOM      9  C   UNL     1      -0.433  -1.700  -1.062  0.00  0.00    -0.048 A 
ATOM     10  C   UNL     1      -0.280  -2.496   0.057  0.00  0.00    +0.031 A 
ATOM     11  C   UNL     1      -0.217  -1.915   1.316  0.00  0.00    +0.070 A 
ATOM     12  C   UNL     1      -0.303  -0.536   1.448  0.00  0.00    +0.031 A 
ATOM     13  C   UNL     1      -0.502  -2.329  -2.430  0.00  0.00    +0.044 C 
ENDBRANCH   1  11
BRANCH   2  14
ATOM     14  C   UNL     1       1.641  -1.329   3.726  0.00  0.00    +0.058 A 
ATOM     15  C   UNL     1       2.490  -0.917   2.700  0.00  0.00    +0.037 A 
ATOM     16  C   UNL     1       3.325   0.172   2.892  0.00  0.00    +0.025 A 
ATOM     17  C   UNL     1       3.316   0.851   4.104  0.00  0.00    +0.025 A 
ATOM     18  C   UNL     1       2.475   0.444   5.123  0.00  0.00    +0.041 A 
ATOM     19  C   UNL     1       1.633  -0.637   4.940  0.00  0.00    +0.134 A 
ATOM     20  F   UNL     1       0.809  -1.028   5.936  0.00  0.00    -0.205 F 
BRANCH  16  21
ATOM     21  N   UNL     1       4.179   0.587   1.865  0.00  0.00    -0.358 N 
ATOM     22  H   UNL     1       4.186   0.114   1.018  0.00  0.00    +0.142 HD
ATOM     23  H   UNL     1       4.763   1.350   1.999  0.00  0.00    +0.142 HD
ENDBRANCH  16  21
ENDBRANCH   2  14
TORSDOF 3
