REMARK  Name = ZINC21245157
REMARK  7 active torsions:
REMARK  status: ('A' for Active; 'I' for Inactive)
REMARK    1  A    between atoms: C_1  and  O_2
REMARK    2  A    between atoms: O_2  and  C_3
REMARK    3  A    between atoms: C_5  and  C_12
REMARK    4  A    between atoms: C_7  and  O_10
REMARK    5  A    between atoms: C_8  and  O_9
REMARK    6  A    between atoms: O_10  and  C_11
REMARK    7  A    between atoms: C_17  and  C_22
REMARK                            x       y       z     vdW  Elec       q    Type
REMARK                         _______ _______ _______ _____ _____    ______ ____
ROOT
ATOM      1  C   UNL     1       0.205  -4.244   0.541  0.00  0.00    +0.136 C 
ATOM      2  C   UNL     1      -1.193  -4.812   0.483  0.00  0.00    +0.036 C 
ATOM      3  C   UNL     1      -1.694  -5.573  -0.504  0.00  0.00    +0.017 C 
ATOM      4  C   UNL     1      -3.134  -6.057  -0.447  0.00  0.00    +0.059 C 
ATOM      5  C   UNL     1      -3.549  -6.289   1.004  0.00  0.00    +0.033 C 
ATOM      6  C   UNL     1      -3.406  -4.957   1.750  0.00  0.00    +0.088 C 
ATOM      7  C   UNL     1      -1.993  -4.476   1.601  0.00  0.00    +0.163 C 
ATOM      8  O   UNL     1      -1.519  -3.773   2.471  0.00  0.00    -0.292 OA
ATOM      9  N   UNL     1      -1.007  -5.970  -1.605  0.00  0.00    -0.316 N 
ATOM     10  C   UNL     1      -0.223  -5.135  -2.393  0.00  0.00    +0.052 A 
ATOM     11  C   UNL     1      -0.533  -4.857  -3.713  0.00  0.00    +0.025 A 
ATOM     12  C   UNL     1       0.315  -4.053  -4.455  0.00  0.00    +0.002 A 
ATOM     13  C   UNL     1       1.463  -3.536  -3.883  0.00  0.00    +0.002 A 
ATOM     14  C   UNL     1       1.766  -3.799  -2.558  0.00  0.00    +0.025 A 
ATOM     15  C   UNL     1       0.908  -4.586  -1.807  0.00  0.00    +0.049 A 
ATOM     16  N   UNL     1       1.115  -4.790  -0.444  0.00  0.00    -0.331 N 
ATOM     17  H   UNL     1      -1.048  -7.020  -1.930  0.00  0.00    +0.152 HD
ATOM     18  H   UNL     1       1.987  -5.378  -0.121  0.00  0.00    +0.147 HD
ENDROOT
BRANCH   5  19
ATOM     19  C   UNL     1      -4.982  -6.753   1.058  0.00  0.00    -0.025 A 
ATOM     20  C   UNL     1      -5.984  -5.966   0.521  0.00  0.00    +0.005 A 
ATOM     21  C   UNL     1      -7.298  -6.391   0.570  0.00  0.00    +0.000 A 
ATOM     22  C   UNL     1      -7.612  -7.604   1.156  0.00  0.00    +0.001 A 
ATOM     23  C   UNL     1      -6.611  -8.391   1.694  0.00  0.00    +0.020 A 
ATOM     24  C   UNL     1      -5.295  -7.968   1.640  0.00  0.00    +0.044 A 
ATOM     25 CL   UNL     1      -4.036  -8.960   2.308  0.00  0.00    -0.083 Cl
ENDBRANCH   5  19
BRANCH   1  28
ATOM     26  C   UNL     1      -0.479  -0.869  -1.018  0.00  0.00    +0.165 A 
ATOM     27  C   UNL     1      -0.399  -2.241  -0.832  0.00  0.00    +0.055 A 
ATOM     28  C   UNL     1       0.124  -2.752   0.341  0.00  0.00    -0.016 A 
ATOM     29  C   UNL     1       0.572  -1.899   1.332  0.00  0.00    +0.055 A 
ATOM     30  C   UNL     1       0.500  -0.526   1.152  0.00  0.00    +0.165 A 
ATOM     31  C   UNL     1      -0.025  -0.008  -0.026  0.00  0.00    +0.201 A 
BRANCH  26  33
ATOM     32  C   UNL     1      -1.540  -1.307  -3.101  0.00  0.00    +0.277 C 
ATOM     33  O   UNL     1      -0.998  -0.368  -2.170  0.00  0.00    -0.491 OA
ENDBRANCH  26  33
BRANCH  31  34
ATOM     34  O   UNL     1      -0.098   1.339  -0.207  0.00  0.00    -0.501 OA
ATOM     35  H   UNL     1       0.263   2.019   0.579  0.00  0.00    +0.292 HD
ENDBRANCH  31  34
BRANCH  30  36
ATOM     36  O   UNL     1       0.942   0.313   2.127  0.00  0.00    -0.491 OA
ATOM     37  C   UNL     1       1.468  -0.289   3.311  0.00  0.00    +0.277 C 
ENDBRANCH  30  36
ENDBRANCH   1  28
TORSDOF 5
