REMARK  Name = ZINC21690319
REMARK  5 active torsions:
REMARK  status: ('A' for Active; 'I' for Inactive)
REMARK    1  A    between atoms: C_3  and  N_9
REMARK    2  A    between atoms: C_15  and  C_17
REMARK    3  A    between atoms: C_17  and  C_18
REMARK    4  A    between atoms: C_18  and  C_19
REMARK    5  A    between atoms: C_25  and  C_27
REMARK                            x       y       z     vdW  Elec       q    Type
REMARK                         _______ _______ _______ _____ _____    ______ ____
ROOT
ATOM      1  C   UNL     1       8.193   6.246   0.986  0.00  0.00    +0.065 C 
ENDROOT
BRANCH   1   2
ATOM      2  C   UNL     1       8.856   6.620   2.286  0.00  0.00    +0.051 A 
ATOM      3  C   UNL     1      10.143   6.284   2.547  0.00  0.00    +0.071 A 
ATOM      4  S   UNL     1      10.345   6.979   4.179  0.00  0.00    -0.060 S 
ATOM      5  C   UNL     1       8.796   7.614   4.355  0.00  0.00    +0.165 A 
ATOM      6  N   UNL     1       8.211   7.295   3.220  0.00  0.00    -0.230 NA
ATOM      7  N   UNL     1       8.265   8.309   5.434  0.00  0.00    -0.261 N 
ATOM      8  C   UNL     1       9.025   8.548   6.521  0.00  0.00    +0.251 C 
ATOM      9  O   UNL     1      10.175   8.155   6.557  0.00  0.00    -0.270 OA
ATOM     10  H   UNL     1       7.348   8.623   5.405  0.00  0.00    +0.157 HD
BRANCH   8  11
ATOM     11  C   UNL     1       8.462   9.287   7.666  0.00  0.00    +0.053 A 
ATOM     12  C   UNL     1       7.121   9.742   7.632  0.00  0.00    +0.020 A 
ATOM     13  C   UNL     1       6.628  10.419   8.702  0.00  0.00    +0.071 A 
ATOM     14  C   UNL     1       7.456  10.654   9.816  0.00  0.00    +0.249 A 
ATOM     15  O   UNL     1       7.017  11.261  10.779  0.00  0.00    -0.268 OA
ATOM     16  N   UNL     1       8.726  10.212   9.828  0.00  0.00    -0.328 N 
ATOM     17  H   UNL     1       9.284  10.381  10.604  0.00  0.00    +0.168 HD
ATOM     18  C   UNL     1       9.235   9.535   8.782  0.00  0.00    +0.099 A 
ENDBRANCH   8  11
ENDBRANCH   1   2
BRANCH   1  19
ATOM     19  C   UNL     1       6.904   5.474   1.274  0.00  0.00    +0.102 C 
BRANCH  19  26
ATOM     20  N   UNL     1       3.582   2.126  -0.021  0.00  0.00    -0.326 N 
ATOM     21  C   UNL     1       4.209   2.521  -1.290  0.00  0.00    +0.124 C 
ATOM     22  C   UNL     1       4.425   4.039  -1.279  0.00  0.00    +0.126 C 
ATOM     23  N   UNL     1       5.083   4.410  -0.019  0.00  0.00    -0.298 N 
ATOM     24  C   UNL     1       4.456   4.016   1.250  0.00  0.00    +0.126 C 
ATOM     25  C   UNL     1       4.237   2.502   1.239  0.00  0.00    +0.124 C 
ATOM     26  C   UNL     1       6.241   5.100  -0.026  0.00  0.00    +0.216 C 
ATOM     27  O   UNL     1       6.750   5.420  -1.080  0.00  0.00    -0.276 OA
BRANCH  20  30
ATOM     28  C   UNL     1      -0.017   1.378   0.010  0.00  0.00    +0.003 A 
ATOM     29  C   UNL     1       1.169   2.087   0.002  0.00  0.00    +0.025 A 
ATOM     30  C   UNL     1       2.382   1.411  -0.013  0.00  0.00    +0.050 A 
ATOM     31  C   UNL     1       2.399   0.021  -0.021  0.00  0.00    +0.080 A 
ATOM     32  C   UNL     1       1.208  -0.683  -0.013  0.00  0.00    +0.061 A 
ATOM     33  C   UNL     1       0.002  -0.004   0.002  0.00  0.00    +0.021 A 
ATOM     34 CL   UNL     1       1.227  -2.419  -0.023  0.00  0.00    -0.082 Cl
ATOM     35 CL   UNL     1       3.912  -0.830  -0.040  0.00  0.00    -0.080 Cl
ENDBRANCH  20  30
ENDBRANCH  19  26
ENDBRANCH   1  19
TORSDOF 5
