REMARK  Name = ZINC35231894
REMARK  10 active torsions:
REMARK  status: ('A' for Active; 'I' for Inactive)
REMARK    1  A    between atoms: C_1  and  C_2
REMARK    2  A    between atoms: C_2  and  C_3
REMARK    3  A    between atoms: C_2  and  N_4
REMARK    4  A    between atoms: N_4  and  C_5
REMARK    5  A    between atoms: C_5  and  C_6
REMARK    6  A    between atoms: C_20  and  C_22
REMARK    7  A    between atoms: N_31  and  C_32
REMARK    8  A    between atoms: C_32  and  C_33
REMARK    9  A    between atoms: C_32  and  C_34
REMARK   10  A    between atoms: C_32  and  C_35
REMARK                            x       y       z     vdW  Elec       q    Type
REMARK                         _______ _______ _______ _____ _____    ______ ____
ROOT
ATOM      1  C   UNL     1      -1.506  -2.819  -0.843  0.00  0.00    +0.238 C 
ATOM      2  O   UNL     1      -1.181  -3.088   0.294  0.00  0.00    -0.273 OA
ATOM      3  N   UNL     1      -1.668  -3.804  -1.749  0.00  0.00    -0.255 N 
ATOM      4  C   UNL     1      -1.558  -5.143  -1.353  0.00  0.00    +0.061 A 
ATOM      5  C   UNL     1      -0.739  -5.500  -0.293  0.00  0.00    +0.025 A 
ATOM      6  C   UNL     1      -0.647  -6.823   0.094  0.00  0.00    +0.002 A 
ATOM      7  C   UNL     1      -1.370  -7.798  -0.569  0.00  0.00    +0.002 A 
ATOM      8  C   UNL     1      -2.187  -7.455  -1.632  0.00  0.00    +0.028 A 
ATOM      9  C   UNL     1      -2.279  -6.135  -2.027  0.00  0.00    +0.068 A 
ATOM     10  N   UNL     1      -3.073  -5.741  -3.114  0.00  0.00    -0.316 N 
ATOM     11  C   UNL     1      -4.030  -6.422  -3.788  0.00  0.00    +0.092 A 
ATOM     12  C   UNL     1      -4.519  -5.614  -4.757  0.00  0.00    +0.020 A 
ATOM     13  C   UNL     1      -3.829  -4.384  -4.674  0.00  0.00    +0.025 A 
ATOM     14  C   UNL     1      -2.953  -4.485  -3.668  0.00  0.00    +0.049 A 
ATOM     15  C   UNL     1      -1.967  -3.471  -3.152  0.00  0.00    +0.159 C 
ENDROOT
BRANCH  15  16
ATOM     16  C   UNL     1      -0.703  -3.530  -3.971  0.00  0.00    -0.020 A 
ATOM     17  C   UNL     1       0.217  -4.538  -3.750  0.00  0.00    +0.006 A 
ATOM     18  C   UNL     1       1.376  -4.593  -4.501  0.00  0.00    +0.002 A 
ATOM     19  C   UNL     1       1.616  -3.640  -5.473  0.00  0.00    +0.020 A 
ATOM     20  C   UNL     1       0.695  -2.631  -5.695  0.00  0.00    +0.041 A 
ATOM     21  C   UNL     1      -0.468  -2.580  -4.947  0.00  0.00    +0.025 A 
ATOM     22 CL   UNL     1       0.996  -1.434  -6.916  0.00  0.00    -0.084 Cl
ENDBRANCH  15  16
BRANCH   1  23
ATOM     23  C   UNL     1      -1.727  -1.383  -1.244  0.00  0.00    +0.205 C 
BRANCH  23  24
ATOM     24  N   UNL     1      -1.371  -0.504  -0.127  0.00  0.00    -0.274 N 
ATOM     25  C   UNL     1      -2.304  -0.158   0.782  0.00  0.00    +0.303 C 
ATOM     26  O   UNL     1      -3.460  -0.499   0.627  0.00  0.00    -0.253 OA
ATOM     27  N   UNL     1      -1.954   0.566   1.864  0.00  0.00    -0.294 N 
ATOM     28  H   UNL     1      -1.048   0.900   1.952  0.00  0.00    +0.151 HD
BRANCH  27  29
ATOM     29  C   UNL     1      -2.943   0.848   2.907  0.00  0.00    +0.028 C 
ATOM     30  C   UNL     1      -3.456  -0.469   3.493  0.00  0.00    +0.031 C 
ATOM     31  C   UNL     1      -2.293   1.680   4.014  0.00  0.00    +0.031 C 
ATOM     32  C   UNL     1      -4.113   1.627   2.303  0.00  0.00    +0.031 C 
ENDBRANCH  27  29
BRANCH  24  34
ATOM     33  C   UNL     1       0.976  -1.178   0.007  0.00  0.00    +0.028 C 
ATOM     34  C   UNL     1      -0.001  -0.001   0.001  0.00  0.00    +0.072 C 
ATOM     35  C   UNL     1       0.316   0.920  -1.180  0.00  0.00    +0.028 C 
ENDBRANCH  24  34
ENDBRANCH  23  24
ENDBRANCH   1  23
TORSDOF 5
