REMARK  Name = ZINC66577850
REMARK  4 active torsions:
REMARK  status: ('A' for Active; 'I' for Inactive)
REMARK    1  A    between atoms: C_5  and  C_6
REMARK    2  A    between atoms: N_8  and  N_9
REMARK    3  A    between atoms: N_9  and  S_10
REMARK    4  A    between atoms: S_10  and  C_13
REMARK                            x       y       z     vdW  Elec       q    Type
REMARK                         _______ _______ _______ _____ _____    ______ ____
ROOT
ATOM      1  N   UNL     1      -3.319  -5.422  -1.234  0.00  0.00    -0.112 NA
ATOM      2  H   UNL     1      -3.907  -5.458  -2.004  0.00  0.00    +0.171 HD
ENDROOT
BRANCH   1   5
ATOM      3  C   UNL     1      -4.631  -6.543   0.407  0.00  0.00    +0.265 C 
ATOM      4  O   UNL     1      -5.592  -5.873   0.076  0.00  0.00    -0.268 OA
ATOM      5  N   UNL     1      -3.446  -6.372  -0.211  0.00  0.00    -0.228 N 
ATOM      6  H   UNL     1      -2.680  -6.905   0.053  0.00  0.00    +0.171 HD
BRANCH   3  11
ATOM      7  C   UNL     1      -5.880  -7.864   2.231  0.00  0.00    +0.022 A 
ATOM      8  C   UNL     1      -5.696  -8.848   3.172  0.00  0.00    +0.024 A 
ATOM      9  C   UNL     1      -4.470  -9.417   3.299  0.00  0.00    +0.056 A 
ATOM     10  S   UNL     1      -3.531  -8.636   2.147  0.00  0.00    -0.077 S 
ATOM     11  C   UNL     1      -4.763  -7.535   1.476  0.00  0.00    +0.076 A 
ATOM     12 BR   UNL     1      -3.941 -10.778   4.500  0.00  0.00    -0.043 Br
ENDBRANCH   3  11
ENDBRANCH   1   5
BRANCH   1  13
ATOM     13  S   UNL     1      -2.166  -4.239  -1.127  0.00  0.00    +0.047 S 
ATOM     14  O   UNL     1      -2.257  -3.531  -2.356  0.00  0.00    -0.157 OA
ATOM     15  O   UNL     1      -2.431  -3.584   0.107  0.00  0.00    -0.157 OA
BRANCH  13  16
ATOM     16  C   UNL     1      -0.589  -5.131  -1.035  0.00  0.00    +0.149 C 
ATOM     17  C   UNL     1       0.561  -4.125  -0.956  0.00  0.00    +0.028 C 
ATOM     18  C   UNL     1       1.891  -4.878  -0.878  0.00  0.00    +0.002 C 
ATOM     19  C   UNL     1       2.059  -5.748  -2.126  0.00  0.00    +0.000 C 
ATOM     20  C   UNL     1       0.908  -6.753  -2.205  0.00  0.00    +0.002 C 
ATOM     21  C   UNL     1      -0.422  -6.001  -2.282  0.00  0.00    +0.028 C 
ENDBRANCH  13  16
ENDBRANCH   1  13
TORSDOF 4
