REMARK  Name = ZINC22852181
REMARK  6 active torsions:
REMARK  status: ('A' for Active; 'I' for Inactive)
REMARK    1  A    between atoms: C_4  and  N_7
REMARK    2  A    between atoms: N_10  and  C_13
REMARK    3  A    between atoms: C_13  and  C_15
REMARK    4  A    between atoms: C_13  and  C_22
REMARK    5  A    between atoms: C_23  and  O_35
REMARK    6  A    between atoms: C_28  and  C_30
REMARK                            x       y       z     vdW  Elec       q    Type
REMARK                         _______ _______ _______ _____ _____    ______ ____
ROOT
ATOM      1  C   UNL     1       0.002  -0.004   0.002  0.00  0.00    +0.129 C 
ENDROOT
BRANCH   1   2
ATOM      2  C   UNL     1       0.731  -0.503   1.223  0.00  0.00    +0.076 A 
ATOM      3  C   UNL     1       1.653  -1.469   1.320  0.00  0.00    +0.228 A 
ATOM      4  N   UNL     1       2.213  -1.784   2.533  0.00  0.00    -0.173 N 
ATOM      5  C   UNL     1       1.780  -1.079   3.622  0.00  0.00    +0.200 A 
ATOM      6  S   UNL     1       0.585   0.034   2.920  0.00  0.00    -0.047 S 
ATOM      7  N   UNL     1       2.398  -1.495   4.691  0.00  0.00    -0.197 NA
ATOM      8  C   UNL     1       3.249  -2.475   4.357  0.00  0.00    +0.218 A 
ATOM      9  N   UNL     1       3.173  -2.686   3.061  0.00  0.00    -0.138 NA
BRANCH   8  10
ATOM     10  C   UNL     1       4.131  -3.202   5.295  0.00  0.00    +0.173 A 
ATOM     11  C   UNL     1       4.216  -2.992   6.635  0.00  0.00    +0.053 A 
ATOM     12  C   UNL     1       5.175  -3.900   7.128  0.00  0.00    +0.042 A 
ATOM     13  C   UNL     1       5.622  -4.612   6.075  0.00  0.00    +0.196 A 
ATOM     14  O   UNL     1       4.985  -4.191   4.970  0.00  0.00    -0.460 OA
ENDBRANCH   8  10
BRANCH   3  15
ATOM     15  O   UNL     1       2.041  -2.142   0.203  0.00  0.00    -0.492 OA
ATOM     16  H   UNL     1       2.798  -2.937   0.276  0.00  0.00    +0.294 HD
ENDBRANCH   3  15
ENDBRANCH   1   2
BRANCH   1  17
ATOM     17  C   UNL     1      -1.412  -0.526   0.013  0.00  0.00    -0.023 A 
ATOM     18  C   UNL     1      -1.750  -1.621  -0.760  0.00  0.00    +0.006 A 
ATOM     19  C   UNL     1      -3.046  -2.101  -0.751  0.00  0.00    +0.003 A 
ATOM     20  C   UNL     1      -4.006  -1.486   0.030  0.00  0.00    +0.038 A 
ATOM     21  C   UNL     1      -3.669  -0.389   0.804  0.00  0.00    +0.124 A 
ATOM     22  C   UNL     1      -2.368   0.088   0.799  0.00  0.00    +0.044 A 
ATOM     23  F   UNL     1      -4.606   0.214   1.569  0.00  0.00    -0.205 F 
ENDBRANCH   1  17
BRANCH   1  27
ATOM     24  N   UNL     1       0.503   4.059  -1.041  0.00  0.00    -0.327 N 
ATOM     25  C   UNL     1       1.284   3.537   0.089  0.00  0.00    +0.120 C 
ATOM     26  C   UNL     1       1.347   2.010   0.000  0.00  0.00    +0.104 C 
ATOM     27  N   UNL     1      -0.018   1.465   0.010  0.00  0.00    -0.288 NA
ATOM     28  C   UNL     1      -0.799   1.987  -1.120  0.00  0.00    +0.104 C 
ATOM     29  C   UNL     1      -0.862   3.514  -1.031  0.00  0.00    +0.120 C 
BRANCH  24  33
ATOM     30  C   UNL     1       0.446   8.222  -1.017  0.00  0.00    +0.000 A 
ATOM     31  C   UNL     1      -0.221   7.529  -2.011  0.00  0.00    +0.002 A 
ATOM     32  C   UNL     1      -0.204   6.148  -2.022  0.00  0.00    +0.023 A 
ATOM     33  C   UNL     1       0.484   5.456  -1.033  0.00  0.00    +0.030 A 
ATOM     34  C   UNL     1       1.148   6.155  -0.034  0.00  0.00    +0.023 A 
ATOM     35  C   UNL     1       1.131   7.536  -0.032  0.00  0.00    +0.002 A 
ENDBRANCH  24  33
ENDBRANCH   1  27
TORSDOF 6
