REMARK  Name = ZINC64175269
REMARK  6 active torsions:
REMARK  status: ('A' for Active; 'I' for Inactive)
REMARK    1  A    between atoms: C_1  and  C_2
REMARK    2  A    between atoms: C_5  and  C_19
REMARK    3  A    between atoms: C_7  and  C_12
REMARK    4  A    between atoms: N_21  and  C_22
REMARK    5  A    between atoms: C_22  and  C_23
REMARK    6  A    between atoms: C_23  and  C_24
REMARK                            x       y       z     vdW  Elec       q    Type
REMARK                         _______ _______ _______ _____ _____    ______ ____
ROOT
ATOM      1  C   UNL     1       0.280   1.746  -0.102  0.00  0.00    +0.032 C 
ATOM      2  C   UNL     1       0.251   0.221   0.013  0.00  0.00    +0.126 C 
ATOM      3  C   UNL     1       0.763  -0.423  -1.257  0.00  0.00    +0.048 A 
ATOM      4  C   UNL     1       0.506  -0.178  -2.603  0.00  0.00    +0.049 A 
ATOM      5  C   UNL     1       1.162  -0.965  -3.555  0.00  0.00    +0.042 A 
ATOM      6  C   UNL     1       2.038  -1.953  -3.115  0.00  0.00    +0.078 A 
ATOM      7  N   UNL     1       2.251  -2.152  -1.823  0.00  0.00    -0.211 NA
ATOM      8  C   UNL     1       1.647  -1.431  -0.888  0.00  0.00    +0.245 A 
ATOM      9  O   UNL     1       1.728  -1.508   0.469  0.00  0.00    -0.386 OA
ATOM     10  N   UNL     1       1.219  -0.247   1.038  0.00  0.00    -0.146 NA
ATOM     11  H   UNL     1       0.760  -0.406   1.923  0.00  0.00    +0.168 HD
ENDROOT
BRANCH   6  12
ATOM     12  C   UNL     1       2.746  -2.795  -4.110  0.00  0.00    +0.036 A 
ATOM     13  C   UNL     1       2.537  -2.593  -5.473  0.00  0.00    +0.013 A 
ATOM     14  C   UNL     1       3.198  -3.380  -6.394  0.00  0.00    +0.001 A 
ATOM     15  C   UNL     1       4.067  -4.369  -5.968  0.00  0.00    +0.003 A 
ATOM     16  C   UNL     1       4.279  -4.576  -4.618  0.00  0.00    +0.039 A 
ATOM     17  C   UNL     1       3.628  -3.789  -3.685  0.00  0.00    +0.133 A 
ATOM     18  F   UNL     1       3.841  -3.988  -2.365  0.00  0.00    -0.205 F 
ENDBRANCH   6  12
BRANCH   4  19
ATOM     19  C   UNL     1      -0.438   0.887  -3.016  0.00  0.00    +0.245 C 
ATOM     20  O   UNL     1      -1.395   1.155  -2.317  0.00  0.00    -0.270 OA
ATOM     21  N   UNL     1      -0.234   1.559  -4.167  0.00  0.00    -0.311 N 
ATOM     22  H   UNL     1       0.530   1.345  -4.724  0.00  0.00    +0.149 HD
BRANCH  21  23
ATOM     23  C   UNL     1      -1.167   2.612  -4.575  0.00  0.00    +0.109 C 
BRANCH  23  24
ATOM     24  C   UNL     1      -0.711   3.210  -5.907  0.00  0.00    +0.052 C 
BRANCH  24  25
ATOM     25  C   UNL     1      -1.670   4.293  -6.327  0.00  0.00    -0.040 C 
ATOM     26  C   UNL     1      -1.544   5.622  -6.106  0.00  0.00    -0.001 A 
ATOM     27  C   UNL     1      -0.516   6.425  -5.434  0.00  0.00    +0.010 A 
ATOM     28  C   UNL     1      -0.670   7.767  -5.370  0.00  0.00    +0.001 A 
ATOM     29  C   UNL     1      -1.784   8.409  -5.927  0.00  0.00    +0.002 A 
ATOM     30  C   UNL     1      -2.771   7.739  -6.560  0.00  0.00    +0.026 A 
ATOM     31  C   UNL     1      -2.711   6.323  -6.687  0.00  0.00    +0.043 A 
ATOM     32  N   UNL     1      -3.527   5.462  -7.245  0.00  0.00    -0.380 N 
ATOM     33  C   UNL     1      -2.966   4.116  -7.086  0.00  0.00    +0.144 C 
ATOM     34  H   UNL     1      -4.361   5.679  -7.691  0.00  0.00    +0.160 HD
ENDBRANCH  24  25
ENDBRANCH  23  24
ENDBRANCH  21  23
ENDBRANCH   4  19
TORSDOF 5
