REMARK  Name = ZINC08820418
REMARK  8 active torsions:
REMARK  status: ('A' for Active; 'I' for Inactive)
REMARK    1  A    between atoms: C_1  and  C_2
REMARK    2  A    between atoms: C_6  and  N_9
REMARK    3  A    between atoms: C_7  and  C_8
REMARK    4  A    between atoms: C_10  and  C_12
REMARK    5  A    between atoms: C_12  and  C_13
REMARK    6  A    between atoms: C_13  and  N_14
REMARK    7  A    between atoms: C_18  and  C_19
REMARK    8  A    between atoms: C_20  and  C_21
REMARK                            x       y       z     vdW  Elec       q    Type
REMARK                         _______ _______ _______ _____ _____    ______ ____
ROOT
ATOM      1  N   UNL     1       3.706   7.660   0.433  0.00  0.00    -0.255 N 
ATOM      2  C   UNL     1       3.740   8.398  -0.663  0.00  0.00    +0.258 C 
ATOM      3  O   UNL     1       3.788   7.894  -1.771  0.00  0.00    -0.269 OA
ATOM      4  C   UNL     1       3.711   9.860  -0.479  0.00  0.00    +0.077 C 
ATOM      5  C   UNL     1       3.729  10.855  -1.412  0.00  0.00    +0.020 C 
ATOM      6  S   UNL     1       3.648   9.972   1.304  0.00  0.00    -0.061 S 
ATOM      7  C   UNL     1       3.658   8.222   1.659  0.00  0.00    +0.121 C 
ATOM      8  S   UNL     1       3.615   7.445   3.184  0.00  0.00    -0.027 S 
ENDROOT
BRANCH   5   9
ATOM      9  C   UNL     1       3.699  12.204  -1.005  0.00  0.00    +0.002 C 
ATOM     10  C   UNL     1       3.718  13.191  -1.931  0.00  0.00    +0.008 C 
BRANCH  10  11
ATOM     11  C   UNL     1       3.686  14.599  -1.506  0.00  0.00    -0.025 A 
ATOM     12  C   UNL     1       3.630  14.921  -0.145  0.00  0.00    +0.008 A 
ATOM     13  C   UNL     1       3.606  16.244   0.245  0.00  0.00    +0.001 A 
ATOM     14  C   UNL     1       3.624  17.250  -0.705  0.00  0.00    +0.000 A 
ATOM     15  C   UNL     1       3.674  16.939  -2.053  0.00  0.00    +0.001 A 
ATOM     16  C   UNL     1       3.705  15.622  -2.460  0.00  0.00    +0.008 A 
ENDBRANCH  10  11
ENDBRANCH   5   9
BRANCH   1  17
ATOM     17  C   UNL     1       3.729   6.200   0.316  0.00  0.00    +0.124 C 
BRANCH  17  18
ATOM     18  C   UNL     1       2.295   5.673   0.225  0.00  0.00    +0.115 C 
BRANCH  18  20
ATOM     19  N   UNL     1       1.162   3.485   0.009  0.00  0.00    -0.285 N 
ATOM     20  C   UNL     1       2.318   4.171   0.104  0.00  0.00    +0.219 C 
ATOM     21  O   UNL     1       3.377   3.580   0.091  0.00  0.00    -0.275 OA
ATOM     22  H   UNL     1       0.320   3.961  -0.061  0.00  0.00    +0.155 HD
BRANCH  19  28
ATOM     23  C   UNL     1      -0.969  -0.773  -1.215  0.00  0.00    +0.044 C 
ATOM     24  C   UNL     1       0.156  -0.003  -0.574  0.00  0.00    -0.046 A 
ATOM     25  C   UNL     1       1.206  -0.681   0.020  0.00  0.00    +0.004 A 
ATOM     26  C   UNL     1       2.240   0.021   0.610  0.00  0.00    +0.002 A 
ATOM     27  C   UNL     1       2.229   1.403   0.608  0.00  0.00    +0.023 A 
ATOM     28  C   UNL     1       1.177   2.086   0.013  0.00  0.00    +0.037 A 
ATOM     29  C   UNL     1       0.139   1.377  -0.579  0.00  0.00    -0.026 A 
ATOM     30  C   UNL     1      -1.002   2.115  -1.231  0.00  0.00    +0.046 C 
ENDBRANCH  19  28
ENDBRANCH  18  20
ENDBRANCH  17  18
ENDBRANCH   1  17
TORSDOF 6
