REMARK  Name = ZINC14034808
REMARK  11 active torsions:
REMARK  status: ('A' for Active; 'I' for Inactive)
REMARK    1  A    between atoms: C_1  and  C_2
REMARK    2  A    between atoms: C_2  and  O_3
REMARK    3  A    between atoms: O_3  and  C_4
REMARK    4  A    between atoms: C_4  and  C_6
REMARK    5  A    between atoms: C_10  and  N_11
REMARK    6  A    between atoms: C_12  and  C_14
REMARK    7  A    between atoms: C_19  and  O_20
REMARK    8  A    between atoms: O_20  and  C_21
REMARK    9  A    between atoms: C_21  and  C_22
REMARK   10  A    between atoms: C_22  and  C_23
REMARK   11  A    between atoms: C_22  and  C_24
REMARK                            x       y       z     vdW  Elec       q    Type
REMARK                         _______ _______ _______ _____ _____    ______ ____
ROOT
ATOM      1  N   UNL     1      -1.505   2.066  -2.463  0.00  0.00    -0.275 N 
ATOM      2  C   UNL     1      -2.258   2.496  -3.495  0.00  0.00    +0.252 C 
ATOM      3  O   UNL     1      -3.304   3.080  -3.283  0.00  0.00    -0.270 OA
ATOM      4  H   UNL     1      -0.671   1.600  -2.632  0.00  0.00    +0.156 HD
ENDROOT
BRANCH   1   9
ATOM      5  C   UNL     1      -1.292   1.927   0.019  0.00  0.00    +0.091 A 
ATOM      6  C   UNL     1      -1.948   2.291   1.275  0.00  0.00    -0.021 A 
ATOM      7  C   UNL     1      -3.115   2.946   1.141  0.00  0.00    -0.004 A 
ATOM      8  S   UNL     1      -3.357   3.086  -0.613  0.00  0.00    -0.077 S 
ATOM      9  C   UNL     1      -1.922   2.289  -1.161  0.00  0.00    +0.087 A 
ATOM     10  C   UNL     1      -3.725   3.289   2.473  0.00  0.00    +0.043 C 
ATOM     11  C   UNL     1      -2.567   3.135   3.483  0.00  0.00    +0.010 C 
ATOM     12  C   UNL     1      -1.658   2.118   2.766  0.00  0.00    +0.037 C 
BRANCH   5  13
ATOM     13  C   UNL     1      -0.014   1.212   0.009  0.00  0.00    +0.342 C 
ATOM     14  O   UNL     1       0.002  -0.004   0.002  0.00  0.00    -0.245 OA
BRANCH  13  15
ATOM     15  O   UNL     1       1.144   1.903   0.001  0.00  0.00    -0.461 OA
BRANCH  15  17
ATOM     16  C   UNL     1       3.573   2.077  -0.021  0.00  0.00    +0.048 C 
ATOM     17  C   UNL     1       2.373   1.128  -0.015  0.00  0.00    +0.229 C 
ENDBRANCH  15  17
ENDBRANCH  13  15
ENDBRANCH   5  13
ENDBRANCH   1   9
BRANCH   2  18
ATOM     18  C   UNL     1      -1.815   2.259  -4.881  0.00  0.00    +0.079 A 
ATOM     19  C   UNL     1      -0.611   1.593  -5.129  0.00  0.00    +0.017 A 
ATOM     20  C   UNL     1      -0.205   1.369  -6.427  0.00  0.00    +0.001 A 
ATOM     21  C   UNL     1      -0.979   1.811  -7.488  0.00  0.00    +0.004 A 
ATOM     22  C   UNL     1      -2.167   2.475  -7.257  0.00  0.00    +0.046 A 
ATOM     23  C   UNL     1      -2.595   2.704  -5.957  0.00  0.00    +0.133 A 
BRANCH  23  24
ATOM     24  O   UNL     1      -3.761   3.357  -5.728  0.00  0.00    -0.491 OA
BRANCH  24  25
ATOM     25  C   UNL     1      -4.503   3.781  -6.874  0.00  0.00    +0.232 C 
BRANCH  25  26
ATOM     26  C   UNL     1      -5.779   4.494  -6.421  0.00  0.00    +0.020 C 
ATOM     27  C   UNL     1      -6.509   5.057  -7.641  0.00  0.00    +0.010 C 
ATOM     28  C   UNL     1      -6.688   3.499  -5.696  0.00  0.00    +0.010 C 
ENDBRANCH  25  26
ENDBRANCH  24  25
ENDBRANCH  23  24
ENDBRANCH   2  18
TORSDOF 8
