REMARK  Name = ZINC21224904
REMARK  10 active torsions:
REMARK  status: ('A' for Active; 'I' for Inactive)
REMARK    1  A    between atoms: C_1  and  C_2
REMARK    2  A    between atoms: C_2  and  C_3
REMARK    3  A    between atoms: C_3  and  O_4
REMARK    4  A    between atoms: O_4  and  C_5
REMARK    5  A    between atoms: C_8  and  C_13
REMARK    6  A    between atoms: C_10  and  O_11
REMARK    7  A    between atoms: O_11  and  C_12
REMARK    8  A    between atoms: C_18  and  C_23
REMARK    9  A    between atoms: C_27  and  O_29
REMARK   10  A    between atoms: O_29  and  C_30
REMARK                            x       y       z     vdW  Elec       q    Type
REMARK                         _______ _______ _______ _____ _____    ______ ____
ROOT
ATOM      1  C   UNL     1      -2.513   0.975   0.019  0.00  0.00    +0.136 C 
ATOM      2  C   UNL     1      -2.896   0.680  -1.412  0.00  0.00    +0.036 C 
ATOM      3  C   UNL     1      -2.870  -0.525  -2.004  0.00  0.00    +0.017 C 
ATOM      4  C   UNL     1      -3.259  -0.675  -3.465  0.00  0.00    +0.059 C 
ATOM      5  C   UNL     1      -4.336   0.347  -3.824  0.00  0.00    +0.032 C 
ATOM      6  C   UNL     1      -3.759   1.744  -3.567  0.00  0.00    +0.088 C 
ATOM      7  C   UNL     1      -3.315   1.821  -2.137  0.00  0.00    +0.163 C 
ATOM      8  O   UNL     1      -3.314   2.902  -1.581  0.00  0.00    -0.292 OA
ATOM      9  N   UNL     1      -2.506  -1.681  -1.393  0.00  0.00    -0.316 N 
ATOM     10  C   UNL     1      -1.376  -1.836  -0.599  0.00  0.00    +0.052 A 
ATOM     11  C   UNL     1      -0.330  -2.670  -0.954  0.00  0.00    +0.025 A 
ATOM     12  C   UNL     1       0.746  -2.813  -0.095  0.00  0.00    +0.002 A 
ATOM     13  C   UNL     1       0.774  -2.131   1.108  0.00  0.00    +0.002 A 
ATOM     14  C   UNL     1      -0.263  -1.285   1.457  0.00  0.00    +0.025 A 
ATOM     15  C   UNL     1      -1.331  -1.123   0.590  0.00  0.00    +0.049 A 
ATOM     16  N   UNL     1      -2.342  -0.202   0.845  0.00  0.00    -0.331 N 
ATOM     17  H   UNL     1      -3.124  -2.584  -1.512  0.00  0.00    +0.152 HD
ATOM     18  H   UNL     1      -3.019  -0.382   1.693  0.00  0.00    +0.147 HD
ENDROOT
BRANCH   1  22
ATOM     19  C   UNL     1       1.157   3.170   0.006  0.00  0.00    +0.162 A 
ATOM     20  C   UNL     1       1.119   1.876  -0.489  0.00  0.00    +0.050 A 
ATOM     21  C   UNL     1      -0.068   1.168  -0.479  0.00  0.00    +0.009 A 
ATOM     22  C   UNL     1      -1.220   1.749   0.017  0.00  0.00    -0.019 A 
ATOM     23  C   UNL     1      -1.187   3.038   0.518  0.00  0.00    +0.055 A 
ATOM     24  C   UNL     1      -0.001   3.753   0.511  0.00  0.00    +0.162 A 
BRANCH  24  25
ATOM     25  O   UNL     1       0.032   5.023   0.998  0.00  0.00    -0.491 OA
ATOM     26  C   UNL     1      -1.195   5.557   1.500  0.00  0.00    +0.277 C 
ENDBRANCH  24  25
BRANCH  19  27
ATOM     27  O   UNL     1       2.324   3.869  -0.003  0.00  0.00    -0.488 OA
BRANCH  27  28
ATOM     28  C   UNL     1       3.472   3.207  -0.537  0.00  0.00    +0.229 C 
BRANCH  28  30
ATOM     29  C   UNL     1       5.910   3.434  -1.035  0.00  0.00    +0.007 C 
ATOM     30  C   UNL     1       4.681   4.143  -0.463  0.00  0.00    +0.038 C 
ENDBRANCH  28  30
ENDBRANCH  27  28
ENDBRANCH  19  27
ENDBRANCH   1  22
BRANCH   5  31
ATOM     31  C   UNL     1      -4.708   0.208  -5.278  0.00  0.00    -0.040 A 
ATOM     32  C   UNL     1      -3.747   0.384  -6.257  0.00  0.00    +0.004 A 
ATOM     33  C   UNL     1      -4.084   0.256  -7.591  0.00  0.00    +0.004 A 
ATOM     34  C   UNL     1      -5.383  -0.048  -7.950  0.00  0.00    +0.045 A 
ATOM     35  C   UNL     1      -6.349  -0.225  -6.971  0.00  0.00    +0.120 A 
ATOM     36  C   UNL     1      -6.007  -0.101  -5.632  0.00  0.00    +0.049 A 
BRANCH  35  37
ATOM     37  O   UNL     1      -7.627  -0.525  -7.322  0.00  0.00    -0.495 OA
ATOM     38  C   UNL     1      -7.906  -0.642  -8.718  0.00  0.00    +0.277 C 
ENDBRANCH  35  37
ENDBRANCH   5  31
TORSDOF 7
