REMARK  Name = ZINC09964973
REMARK  9 active torsions:
REMARK  status: ('A' for Active; 'I' for Inactive)
REMARK    1  A    between atoms: C_1  and  C_2
REMARK    2  A    between atoms: C_5  and  C_9
REMARK    3  A    between atoms: C_7  and  C_8
REMARK    4  A    between atoms: N_16  and  C_32
REMARK    5  A    between atoms: C_17  and  S_19
REMARK    6  A    between atoms: S_19  and  C_20
REMARK    7  A    between atoms: C_20  and  C_22
REMARK    8  A    between atoms: C_20  and  C_23
REMARK    9  A    between atoms: C_28  and  C_31
REMARK                            x       y       z     vdW  Elec       q    Type
REMARK                         _______ _______ _______ _____ _____    ______ ____
ROOT
ATOM      1  C   UNL     1       2.481   1.072  -0.015  0.00  0.00    +0.004 A 
ATOM      2  C   UNL     1       3.436   1.392  -0.918  0.00  0.00    +0.056 A 
ATOM      3  S   UNL     1       4.767   0.272  -0.528  0.00  0.00    -0.076 S 
ATOM      4  C   UNL     1       4.013  -0.601   0.820  0.00  0.00    +0.117 A 
ATOM      5  C   UNL     1       2.748   0.000   0.940  0.00  0.00    +0.080 A 
ATOM      6  C   UNL     1       1.907  -0.518   1.973  0.00  0.00    +0.263 A 
ATOM      7  O   UNL     1       0.792  -0.057   2.150  0.00  0.00    -0.267 OA
ATOM      8  N   UNL     1       2.361  -1.521   2.746  0.00  0.00    -0.290 N 
ATOM      9  C   UNL     1       3.606  -2.049   2.562  0.00  0.00    +0.173 A 
ATOM     10  N   UNL     1       4.401  -1.589   1.618  0.00  0.00    -0.216 NA
ATOM     11  C   UNL     1       1.502  -2.056   3.807  0.00  0.00    +0.154 C 
ENDROOT
BRANCH   1  16
ATOM     12  C   UNL     1      -2.554   3.865   0.046  0.00  0.00    +0.044 C 
ATOM     13  C   UNL     1      -1.236   3.134   0.030  0.00  0.00    -0.048 A 
ATOM     14  C   UNL     1      -1.216   1.751   0.017  0.00  0.00    +0.004 A 
ATOM     15  C   UNL     1      -0.013   1.076   0.008  0.00  0.00    +0.009 A 
ATOM     16  C   UNL     1       1.185   1.791   0.000  0.00  0.00    -0.016 A 
ATOM     17  C   UNL     1       1.158   3.185   0.008  0.00  0.00    +0.012 A 
ATOM     18  C   UNL     1      -0.052   3.849   0.022  0.00  0.00    -0.047 A 
ATOM     19  C   UNL     1      -0.083   5.355   0.030  0.00  0.00    +0.044 C 
ENDBRANCH   1  16
BRANCH   9  20
ATOM     20  S   UNL     1       4.157  -3.361   3.601  0.00  0.00    -0.075 S 
BRANCH  20  21
ATOM     21  C   UNL     1       5.809  -3.633   2.914  0.00  0.00    +0.137 C 
ATOM     22  C   UNL     1       5.686  -4.137   1.474  0.00  0.00    +0.029 C 
BRANCH  21  23
ATOM     23  C   UNL     1       6.536  -4.659   3.745  0.00  0.00    +0.231 C 
ATOM     24  O   UNL     1       5.908  -5.472   4.390  0.00  0.00    -0.274 OA
ATOM     25  N   UNL     1       7.883  -4.673   3.771  0.00  0.00    -0.267 N 
ATOM     26  C   UNL     1       8.556  -5.622   4.540  0.00  0.00    +0.168 A 
ATOM     27  C   UNL     1       7.972  -6.635   5.346  0.00  0.00    +0.091 A 
ATOM     28  C   UNL     1       9.035  -7.282   5.877  0.00  0.00    +0.136 A 
ATOM     29  O   UNL     1      10.131  -6.674   5.401  0.00  0.00    -0.358 OA
ATOM     30  N   UNL     1       9.850  -5.761   4.659  0.00  0.00    -0.063 NA
ATOM     31  C   UNL     1       8.995  -8.459   6.818  0.00  0.00    +0.089 C 
ATOM     32  H   UNL     1       8.385  -4.022   3.255  0.00  0.00    +0.156 HD
ENDBRANCH  21  23
ENDBRANCH  20  21
ENDBRANCH   9  20
TORSDOF 4
