REMARK  Name = ZINC24630114
REMARK  5 active torsions:
REMARK  status: ('A' for Active; 'I' for Inactive)
REMARK    1  A    between atoms: N_11  and  C_12
REMARK    2  A    between atoms: C_12  and  C_14
REMARK    3  A    between atoms: C_14  and  O_15
REMARK    4  A    between atoms: O_15  and  C_16
REMARK    5  A    between atoms: C_19  and  C_22
REMARK                            x       y       z     vdW  Elec       q    Type
REMARK                         _______ _______ _______ _____ _____    ______ ____
ROOT
ATOM      1  C   UNL     1       4.916  -3.248  -0.162  0.00  0.00    +0.277 C 
ATOM      2  O   UNL     1       5.508  -2.186  -0.163  0.00  0.00    -0.270 OA
ENDROOT
BRANCH   1  13
ATOM      3  C   UNL     1      -0.018   1.375  -0.018  0.00  0.00    +0.002 A 
ATOM      4  C   UNL     1       1.167   2.090  -0.015  0.00  0.00    +0.002 A 
ATOM      5  C   UNL     1       2.379   1.429  -0.020  0.00  0.00    +0.028 A 
ATOM      6  C   UNL     1       2.410   0.041  -0.029  0.00  0.00    +0.065 A 
ATOM      7  C   UNL     1       1.214  -0.680  -0.032  0.00  0.00    +0.065 A 
ATOM      8  C   UNL     1       0.001  -0.005  -0.027  0.00  0.00    +0.028 A 
ATOM      9  N   UNL     1       1.549  -2.030  -0.041  0.00  0.00    -0.326 N 
ATOM     10  H   UNL     1       0.924  -2.771  -0.045  0.00  0.00    +0.169 HD
ATOM     11  C   UNL     1       2.904  -2.132  -0.042  0.00  0.00    +0.199 A 
ATOM     12  N   UNL     1       3.447  -0.886  -0.035  0.00  0.00    -0.326 N 
ATOM     13  N   UNL     1       3.591  -3.271  -0.050  0.00  0.00    -0.144 NA
ATOM     14  H   UNL     1       4.394  -0.678  -0.035  0.00  0.00    +0.169 HD
ENDBRANCH   1  13
BRANCH   1  15
ATOM     15  C   UNL     1       5.684  -4.538  -0.290  0.00  0.00    +0.326 C 
BRANCH  15  16
ATOM     16  O   UNL     1       7.080  -4.253  -0.397  0.00  0.00    -0.483 OA
BRANCH  16  17
ATOM     17  C   UNL     1       7.919  -5.315  -0.519  0.00  0.00    +0.121 A 
ATOM     18  C   UNL     1       7.408  -6.605  -0.542  0.00  0.00    +0.046 A 
ATOM     19  C   UNL     1       8.263  -7.683  -0.667  0.00  0.00    +0.009 A 
ATOM     20  C   UNL     1       9.627  -7.477  -0.769  0.00  0.00    -0.024 A 
ATOM     21  C   UNL     1      10.138  -6.193  -0.746  0.00  0.00    +0.009 A 
ATOM     22  C   UNL     1       9.287  -5.111  -0.627  0.00  0.00    +0.046 A 
BRANCH  20  23
ATOM     23  C   UNL     1      10.557  -8.655  -0.905  0.00  0.00    +0.133 C 
ATOM     24  S   UNL     1      11.887  -8.589   0.363  0.00  0.00    -0.141 S 
ATOM     25  C   UNL     1      13.364  -9.142  -0.575  0.00  0.00    +0.081 C 
ATOM     26  C   UNL     1      13.257  -8.434  -1.949  0.00  0.00    +0.081 C 
ATOM     27  S   UNL     1      11.509  -8.558  -2.470  0.00  0.00    -0.141 S 
ENDBRANCH  20  23
ENDBRANCH  16  17
ENDBRANCH  15  16
ENDBRANCH   1  15
TORSDOF 5
