REMARK  Name = ZINC39727140
REMARK  6 active torsions:
REMARK  status: ('A' for Active; 'I' for Inactive)
REMARK    1  A    between atoms: C_1  and  C_2
REMARK    2  A    between atoms: C_2  and  C_4
REMARK    3  A    between atoms: C_2  and  N_10
REMARK    4  A    between atoms: C_11  and  C_13
REMARK    5  A    between atoms: N_15  and  C_32
REMARK    6  A    between atoms: N_22  and  C_25
REMARK                            x       y       z     vdW  Elec       q    Type
REMARK                         _______ _______ _______ _____ _____    ______ ____
ROOT
ATOM      1  C   UNL     1       2.391  -1.033   2.306  0.00  0.00    +0.072 C 
ATOM      2  C   UNL     1       3.724  -0.653   2.349  0.00  0.00    +0.085 C 
ATOM      3  N   UNL     1       4.288  -0.929   3.543  0.00  0.00    -0.322 N 
ATOM      4  C   UNL     1       3.345  -1.753   4.287  0.00  0.00    +0.208 C 
ATOM      5  C   UNL     1       2.022  -1.534   3.560  0.00  0.00    +0.078 C 
ATOM      6  N   UNL     1       0.871  -1.780   4.131  0.00  0.00    -0.164 NA
ATOM      7  C   UNL     1       0.852  -1.916   5.472  0.00  0.00    +0.337 C 
ATOM      8  O   UNL     1      -0.137  -2.385   6.005  0.00  0.00    -0.250 OA
ATOM      9  N   UNL     1       1.894  -1.547   6.238  0.00  0.00    -0.191 N 
ATOM     10  C   UNL     1       3.144  -1.355   5.721  0.00  0.00    +0.254 C 
ATOM     11  O   UNL     1       4.039  -0.862   6.373  0.00  0.00    -0.272 OA
ATOM     12  C   UNL     1       5.605  -0.483   4.006  0.00  0.00    +0.130 C 
ENDROOT
BRANCH   9  13
ATOM     13  C   UNL     1       1.701  -1.380   7.616  0.00  0.00    +0.046 A 
ATOM     14  C   UNL     1       1.939  -2.437   8.485  0.00  0.00    +0.025 A 
ATOM     15  C   UNL     1       1.748  -2.270   9.842  0.00  0.00    +0.022 A 
ATOM     16  C   UNL     1       1.319  -1.051  10.337  0.00  0.00    +0.041 A 
ATOM     17  C   UNL     1       1.081   0.004   9.474  0.00  0.00    +0.022 A 
ATOM     18  C   UNL     1       1.276  -0.157   8.116  0.00  0.00    +0.025 A 
ATOM     19 CL   UNL     1       1.079  -0.845  12.044  0.00  0.00    -0.084 Cl
ENDBRANCH   9  13
BRANCH   1  21
ATOM     20  N   UNL     1       0.222  -1.321   1.221  0.00  0.00    -0.305 N 
ATOM     21  C   UNL     1       1.507  -0.922   1.136  0.00  0.00    +0.247 C 
ATOM     22  O   UNL     1       1.935  -0.469   0.091  0.00  0.00    -0.270 OA
ATOM     23  H   UNL     1      -0.119  -1.682   2.054  0.00  0.00    +0.150 HD
BRANCH  20  25
ATOM     24  C   UNL     1      -1.253   0.198  -0.002  0.00  0.00    +0.033 C 
ATOM     25  C   UNL     1      -0.658  -1.210   0.056  0.00  0.00    +0.100 C 
BRANCH  25  26
ATOM     26  C   UNL     1      -1.770  -2.221   0.168  0.00  0.00    -0.027 A 
ATOM     27  C   UNL     1      -2.369  -2.456   1.391  0.00  0.00    +0.005 A 
ATOM     28  C   UNL     1      -3.389  -3.384   1.494  0.00  0.00    +0.000 A 
ATOM     29  C   UNL     1      -3.810  -4.075   0.374  0.00  0.00    +0.000 A 
ATOM     30  C   UNL     1      -3.211  -3.840  -0.850  0.00  0.00    +0.000 A 
ATOM     31  C   UNL     1      -2.194  -2.909  -0.954  0.00  0.00    +0.005 A 
ENDBRANCH  25  26
ENDBRANCH  20  25
ENDBRANCH   1  21
TORSDOF 4
