REMARK  Name = ZINC39872554
REMARK  7 active torsions:
REMARK  status: ('A' for Active; 'I' for Inactive)
REMARK    1  A    between atoms: C_1  and  O_2
REMARK    2  A    between atoms: O_2  and  C_3
REMARK    3  A    between atoms: C_6  and  N_9
REMARK    4  A    between atoms: C_10  and  C_25
REMARK    5  A    between atoms: C_27  and  O_33
REMARK    6  A    between atoms: C_28  and  O_32
REMARK    7  A    between atoms: O_33  and  C_34
REMARK                            x       y       z     vdW  Elec       q    Type
REMARK                         _______ _______ _______ _____ _____    ______ ____
ROOT
ATOM      1  N   UNL     1      -4.888  -2.580   0.035  0.00  0.00    -0.253 N 
ATOM      2  C   UNL     1      -5.098  -4.037   0.041  0.00  0.00    +0.150 C 
ATOM      3  C   UNL     1      -6.579  -4.235   0.047  0.00  0.00    +0.072 A 
ATOM      4  C   UNL     1      -7.390  -5.457   0.045  0.00  0.00    +0.199 A 
ATOM      5  O   UNL     1      -6.923  -6.569   0.213  0.00  0.00    -0.287 OA
ATOM      6  C   UNL     1      -8.837  -5.208  -0.182  0.00  0.00    +0.064 A 
ATOM      7  C   UNL     1      -9.709  -6.273  -0.410  0.00  0.00    +0.015 A 
ATOM      8  C   UNL     1     -11.037  -6.028  -0.623  0.00  0.00    +0.001 A 
ATOM      9  C   UNL     1     -11.517  -4.726  -0.613  0.00  0.00    +0.004 A 
ATOM     10  C   UNL     1     -10.671  -3.663  -0.388  0.00  0.00    +0.047 A 
ATOM     11  C   UNL     1      -9.312  -3.887  -0.166  0.00  0.00    +0.139 A 
ATOM     12  O   UNL     1      -8.501  -2.829   0.062  0.00  0.00    -0.450 OA
ATOM     13  C   UNL     1      -7.164  -3.001   0.050  0.00  0.00    +0.199 A 
ATOM     14  C   UNL     1      -6.098  -1.984   0.046  0.00  0.00    +0.287 C 
ATOM     15  O   UNL     1      -6.282  -0.783   0.048  0.00  0.00    -0.266 OA
ENDROOT
BRANCH   2  16
ATOM     16  C   UNL     1      -4.495  -4.655  -1.194  0.00  0.00    -0.017 A 
ATOM     17  C   UNL     1      -3.831  -5.864  -1.107  0.00  0.00    +0.055 A 
ATOM     18  C   UNL     1      -3.275  -6.434  -2.241  0.00  0.00    +0.163 A 
ATOM     19  C   UNL     1      -3.387  -5.785  -3.467  0.00  0.00    +0.173 A 
ATOM     20  C   UNL     1      -4.054  -4.573  -3.549  0.00  0.00    +0.063 A 
ATOM     21  C   UNL     1      -4.611  -4.013  -2.413  0.00  0.00    +0.025 A 
ATOM     22 BR   UNL     1      -4.209  -3.689  -5.213  0.00  0.00    -0.046 Br
BRANCH  19  23
ATOM     23  O   UNL     1      -2.843  -6.340  -4.583  0.00  0.00    -0.503 OA
ATOM     24  H   UNL     1      -3.442  -6.928  -5.063  0.00  0.00    +0.292 HD
ENDBRANCH  19  23
BRANCH  18  25
ATOM     25  O   UNL     1      -2.621  -7.623  -2.156  0.00  0.00    -0.491 OA
ATOM     26  C   UNL     1      -2.545  -8.231  -0.865  0.00  0.00    +0.277 C 
ENDBRANCH  18  25
ENDBRANCH   2  16
BRANCH   1  30
ATOM     27  C   UNL     1      -1.201  -0.638   0.010  0.00  0.00    +0.120 A 
ATOM     28  C   UNL     1      -2.374   0.102   0.020  0.00  0.00    +0.047 A 
ATOM     29  C   UNL     1      -3.596  -0.540   0.028  0.00  0.00    +0.027 A 
ATOM     30  C   UNL     1      -3.651  -1.928   0.027  0.00  0.00    +0.038 A 
ATOM     31  C   UNL     1      -2.475  -2.668   0.017  0.00  0.00    +0.027 A 
ATOM     32  C   UNL     1      -1.254  -2.024   0.003  0.00  0.00    +0.047 A 
BRANCH  27  34
ATOM     33  C   UNL     1      -0.017   1.425   0.010  0.00  0.00    +0.277 C 
ATOM     34  O   UNL     1       0.002  -0.004   0.002  0.00  0.00    -0.495 OA
ENDBRANCH  27  34
ENDBRANCH   1  30
TORSDOF 5
