REMARK  Name = ZINC14246595
REMARK  5 active torsions:
REMARK  status: ('A' for Active; 'I' for Inactive)
REMARK    1  A    between atoms: C_4  and  O_10
REMARK    2  A    between atoms: C_5  and  C_7
REMARK    3  A    between atoms: O_10  and  C_11
REMARK    4  A    between atoms: C_11  and  C_12
REMARK    5  A    between atoms: C_18  and  C_20
REMARK                            x       y       z     vdW  Elec       q    Type
REMARK                         _______ _______ _______ _____ _____    ______ ____
ROOT
ATOM      1  C   UNL     1      -5.990   2.942   0.023  0.00  0.00    +0.254 C 
ATOM      2  O   UNL     1      -5.822   1.741   0.017  0.00  0.00    -0.272 OA
ATOM      3  N   UNL     1      -7.239   3.448   0.026  0.00  0.00    -0.290 N 
ATOM      4  C   UNL     1      -7.586   4.880   0.033  0.00  0.00    +0.108 C 
ATOM      5  C   UNL     1      -9.008   4.947  -0.579  0.00  0.00    +0.021 C 
ATOM      6  C   UNL     1      -9.657   3.662  -0.002  0.00  0.00    +0.031 C 
ATOM      7  C   UNL     1      -8.482   2.662   0.015  0.00  0.00    +0.132 C 
ENDROOT
BRANCH   7   8
ATOM      8  C   UNL     1      -8.558   1.807   1.254  0.00  0.00    +0.100 A 
ATOM      9  N   UNL     1      -8.894   0.552   1.351  0.00  0.00    -0.242 NA
ATOM     10  C   UNL     1      -8.922  -0.103   2.531  0.00  0.00    +0.079 A 
ATOM     11  C   UNL     1      -9.261  -1.448   2.795  0.00  0.00    +0.029 A 
ATOM     12  C   UNL     1      -9.230  -1.936   4.065  0.00  0.00    +0.002 A 
ATOM     13  C   UNL     1      -8.867  -1.139   5.142  0.00  0.00    +0.001 A 
ATOM     14  C   UNL     1      -8.528   0.183   4.925  0.00  0.00    +0.017 A 
ATOM     15  C   UNL     1      -8.557   0.685   3.646  0.00  0.00    +0.039 A 
ATOM     16  S   UNL     1      -8.211   2.256   2.896  0.00  0.00    -0.070 S 
ENDBRANCH   7   8
BRANCH   1  17
ATOM     17  C   UNL     1      -4.802   3.869   0.029  0.00  0.00    +0.324 C 
BRANCH  17  18
ATOM     18  O   UNL     1      -3.598   3.100   0.024  0.00  0.00    -0.482 OA
BRANCH  18  22
ATOM     19  C   UNL     1      -0.035   5.196   0.030  0.00  0.00    +0.001 A 
ATOM     20  C   UNL     1      -1.244   5.872   0.039  0.00  0.00    +0.004 A 
ATOM     21  C   UNL     1      -2.435   5.174   0.041  0.00  0.00    +0.046 A 
ATOM     22  C   UNL     1      -2.428   3.787   0.028  0.00  0.00    +0.133 A 
ATOM     23  C   UNL     1      -1.207   3.099   0.025  0.00  0.00    +0.078 A 
ATOM     24  C   UNL     1      -0.009   3.818   0.023  0.00  0.00    +0.017 A 
BRANCH  23  25
ATOM     25  C   UNL     1      -1.187   1.624   0.017  0.00  0.00    +0.245 C 
ATOM     26  O   UNL     1      -2.232   1.002   0.018  0.00  0.00    -0.270 OA
ATOM     27  N   UNL     1      -0.011   0.966   0.007  0.00  0.00    -0.325 N 
ATOM     28  H   UNL     1       0.002  -0.004   0.002  0.00  0.00    +0.145 HD
ATOM     29  H   UNL     1       0.822   1.462   0.002  0.00  0.00    +0.145 HD
ENDBRANCH  23  25
ENDBRANCH  18  22
ENDBRANCH  17  18
ENDBRANCH   1  17
TORSDOF 5
