REMARK  Name = ZINC02130076
REMARK  5 active torsions:
REMARK  status: ('A' for Active; 'I' for Inactive)
REMARK    1  A    between atoms: C_11  and  C_15
REMARK    2  A    between atoms: C_16  and  O_33
REMARK    3  A    between atoms: N_21  and  C_24
REMARK    4  A    between atoms: C_24  and  C_25
REMARK    5  A    between atoms: C_25  and  C_26
REMARK                            x       y       z     vdW  Elec       q    Type
REMARK                         _______ _______ _______ _____ _____    ______ ____
ROOT
ATOM      1  C   UNL     1       1.345   2.886   0.005  0.00  0.00    +0.068 A 
ATOM      2  C   UNL     1       1.214   1.529  -0.001  0.00  0.00    +0.201 A 
ATOM      3  N   UNL     1       2.339   0.743  -0.011  0.00  0.00    -0.278 N 
ATOM      4  H   UNL     1       2.249  -0.253  -0.007  0.00  0.00    +0.173 HD
ATOM      5  C   UNL     1       3.562   1.303  -0.024  0.00  0.00    +0.332 A 
ATOM      6  O   UNL     1       4.547   0.590  -0.037  0.00  0.00    -0.246 OA
ATOM      7  N   UNL     1       3.712   2.640  -0.018  0.00  0.00    -0.260 N 
ATOM      8  C   UNL     1       2.634   3.449  -0.004  0.00  0.00    +0.262 A 
ATOM      9  O   UNL     1       2.774   4.659   0.001  0.00  0.00    -0.267 OA
ENDROOT
BRANCH   1  20
ATOM     10  C   UNL     1      -0.291   7.567  -4.667  0.00  0.00    +0.001 A 
ATOM     11  C   UNL     1       0.049   6.441  -5.399  0.00  0.00    +0.002 A 
ATOM     12  C   UNL     1       0.276   5.213  -4.802  0.00  0.00    +0.026 A 
ATOM     13  C   UNL     1       0.147   5.151  -3.417  0.00  0.00    +0.047 A 
ATOM     14  C   UNL     1      -0.201   6.308  -2.671  0.00  0.00    +0.003 A 
ATOM     15  C   UNL     1      -0.424   7.536  -3.301  0.00  0.00    +0.010 A 
ATOM     16  C   UNL     1      -0.245   5.889  -1.287  0.00  0.00    -0.022 A 
ATOM     17  C   UNL     1       0.061   4.569  -1.260  0.00  0.00    +0.011 A 
ATOM     18  N   UNL     1       0.298   4.124  -2.529  0.00  0.00    -0.359 N 
ATOM     19  H   UNL     1       0.535   3.213  -2.765  0.00  0.00    +0.166 HD
ATOM     20  C   UNL     1       0.125   3.770   0.020  0.00  0.00    +0.018 C 
ATOM     21  C   UNL     1      -0.857   5.718   1.091  0.00  0.00    -0.076 C 
ATOM     22  C   UNL     1      -0.563   6.697  -0.054  0.00  0.00    +0.018 C 
ATOM     23  N   UNL     1       0.215   4.704   1.164  0.00  0.00    +0.388 N 
ATOM     24  H   UNL     1       1.127   5.175   1.144  0.00  0.00    -0.084 HD
ATOM     25  H   UNL     1       0.121   4.176   2.039  0.00  0.00    -0.084 HD
ENDBRANCH   1  20
BRANCH   2  26
ATOM     26  O   UNL     1      -0.011   0.963   0.007  0.00  0.00    -0.493 OA
ATOM     27  H   UNL     1       0.002  -0.004   0.002  0.00  0.00    +0.294 HD
ENDBRANCH   2  26
BRANCH   7  28
ATOM     28  C   UNL     1       5.056   3.221  -0.027  0.00  0.00    +0.134 C 
BRANCH  28  29
ATOM     29  C   UNL     1       5.537   3.416   1.412  0.00  0.00    +0.057 C 
BRANCH  29  30
ATOM     30  C   UNL     1       6.921   4.014   1.403  0.00  0.00    -0.046 A 
ATOM     31  C   UNL     1       8.030   3.188   1.395  0.00  0.00    +0.006 A 
ATOM     32  C   UNL     1       9.299   3.736   1.382  0.00  0.00    +0.038 A 
ATOM     33  C   UNL     1       9.459   5.111   1.388  0.00  0.00    +0.123 A 
ATOM     34  C   UNL     1       8.347   5.936   1.402  0.00  0.00    +0.038 A 
ATOM     35  C   UNL     1       7.079   5.387   1.410  0.00  0.00    +0.006 A 
ATOM     36  F   UNL     1      10.699   5.647   1.380  0.00  0.00    -0.205 F 
ENDBRANCH  29  30
ENDBRANCH  28  29
ENDBRANCH   7  28
TORSDOF 5
