REMARK  Name = ZINC54669676
REMARK  6 active torsions:
REMARK  status: ('A' for Active; 'I' for Inactive)
REMARK    1  A    between atoms: C_1  and  C_2
REMARK    2  A    between atoms: C_2  and  C_3
REMARK    3  A    between atoms: C_3  and  C_4
REMARK    4  A    between atoms: C_3  and  C_5
REMARK    5  A    between atoms: C_3  and  N_21
REMARK    6  A    between atoms: C_7  and  C_10
REMARK                            x       y       z     vdW  Elec       q    Type
REMARK                         _______ _______ _______ _____ _____    ______ ____
ROOT
ATOM      1  C   UNL     1       0.632  -2.000  -1.327  0.00  0.00    +0.160 A 
ATOM      2  N   UNL     1       0.068  -2.701  -2.318  0.00  0.00    -0.197 NA
ATOM      3  C   UNL     1       0.162  -3.978  -2.072  0.00  0.00    +0.235 A 
ATOM      4  O   UNL     1       0.796  -4.135  -0.903  0.00  0.00    -0.337 OA
ATOM      5  N   UNL     1       1.099  -2.828  -0.438  0.00  0.00    -0.063 NA
ENDROOT
BRANCH   3   6
ATOM      6  C   UNL     1      -0.355  -5.088  -2.952  0.00  0.00    +0.108 C 
ATOM      7  C   UNL     1       0.812  -5.973  -3.383  0.00  0.00    +0.018 C 
ATOM      8  C   UNL     1       0.245  -7.210  -4.091  0.00  0.00    +0.006 C 
ATOM      9  C   UNL     1      -0.451  -8.083  -3.049  0.00  0.00    +0.035 C 
ATOM     10  C   UNL     1      -1.423  -7.266  -2.238  0.00  0.00    -0.043 A 
ATOM     11  C   UNL     1      -1.376  -5.892  -2.190  0.00  0.00    -0.032 A 
ATOM     12  C   UNL     1      -2.298  -5.199  -1.416  0.00  0.00    +0.004 A 
ATOM     13  C   UNL     1      -3.261  -5.878  -0.698  0.00  0.00    +0.000 A 
ATOM     14  C   UNL     1      -3.310  -7.258  -0.749  0.00  0.00    +0.000 A 
ATOM     15  C   UNL     1      -2.395  -7.947  -1.516  0.00  0.00    +0.004 A 
ENDBRANCH   3   6
BRANCH   1  16
ATOM     16  C   UNL     1       0.718  -0.497  -1.257  0.00  0.00    -0.009 C 
ATOM     17  C   UNL     1       2.187  -0.073  -1.207  0.00  0.00    -0.003 C 
BRANCH  16  18
ATOM     18  N   UNL     1       0.080   0.086  -2.444  0.00  0.00    +0.386 N 
ATOM     19  H   UNL     1       0.138   1.092  -2.397  0.00  0.00    -0.089 HD
ATOM     20  H   UNL     1       0.552  -0.239  -3.274  0.00  0.00    -0.089 HD
ATOM     21  H   UNL     1      -0.889  -0.194  -2.477  0.00  0.00    -0.089 HD
ENDBRANCH  16  18
BRANCH  16  23
ATOM     22  C   UNL     1      -0.019   1.526   0.010  0.00  0.00    +0.003 C 
ATOM     23  C   UNL     1       0.002  -0.004   0.002  0.00  0.00    -0.009 C 
ENDBRANCH  16  23
ENDBRANCH   1  16
TORSDOF 4
