REMARK  Name = ZINC63572591
REMARK  2 active torsions:
REMARK  status: ('A' for Active; 'I' for Inactive)
REMARK    1  A    between atoms: C_6  and  C_7
REMARK    2  A    between atoms: N_25  and  C_26
REMARK                            x       y       z     vdW  Elec       q    Type
REMARK                         _______ _______ _______ _____ _____    ______ ____
ROOT
ATOM      1  C   UNL     1      -0.727  -0.561  -0.418  0.00  0.00    +0.134 C 
ATOM      2  C   UNL     1      -1.083  -0.825   1.049  0.00  0.00    +0.131 C 
ATOM      3  C   UNL     1      -0.367  -2.110   1.446  0.00  0.00    -0.035 C 
ATOM      4  C   UNL     1       0.378  -1.813   2.504  0.00  0.00    +0.001 A 
ATOM      5  C   UNL     1       1.231  -2.647   3.365  0.00  0.00    +0.030 A 
ATOM      6  C   UNL     1       1.874  -2.003   4.377  0.00  0.00    +0.042 A 
ATOM      7  C   UNL     1       1.754  -0.629   4.613  0.00  0.00    +0.022 A 
ATOM      8  C   UNL     1       0.988   0.212   3.873  0.00  0.00    +0.027 A 
ATOM      9  C   UNL     1       0.259  -0.349   2.784  0.00  0.00    +0.043 A 
ATOM     10  N   UNL     1      -0.569   0.226   1.931  0.00  0.00    -0.375 N 
ATOM     11 CL   UNL     1       2.896  -2.933   5.427  0.00  0.00    -0.084 Cl
ATOM     12  C   UNL     1      -0.500  -3.388   0.655  0.00  0.00    +0.052 C 
ATOM     13  C   UNL     1      -0.219  -3.030  -0.816  0.00  0.00    +0.114 C 
ATOM     14  N   UNL     1      -0.949  -1.807  -1.168  0.00  0.00    -0.276 N 
ATOM     15  C   UNL     1      -1.832  -1.825  -2.187  0.00  0.00    +0.307 C 
ATOM     16  O   UNL     1      -2.374  -0.795  -2.539  0.00  0.00    -0.252 OA
ATOM     17  N   UNL     1      -2.112  -2.984  -2.815  0.00  0.00    -0.269 N 
ATOM     18  H   UNL     1      -1.730  -3.815  -2.493  0.00  0.00    +0.156 HD
ATOM     19  H   UNL     1      -0.797   1.167   1.884  0.00  0.00    +0.160 HD
ENDROOT
BRANCH  17  20
ATOM     20  C   UNL     1      -2.957  -2.988  -3.933  0.00  0.00    +0.038 A 
ATOM     21  C   UNL     1      -3.857  -1.948  -4.128  0.00  0.00    +0.027 A 
ATOM     22  C   UNL     1      -4.690  -1.953  -5.229  0.00  0.00    +0.051 A 
ATOM     23  C   UNL     1      -4.631  -2.994  -6.144  0.00  0.00    +0.162 A 
ATOM     24  C   UNL     1      -3.729  -4.034  -5.954  0.00  0.00    +0.164 A 
ATOM     25  C   UNL     1      -2.890  -4.027  -4.849  0.00  0.00    +0.072 A 
ATOM     26  O   UNL     1      -3.651  -5.060  -6.845  0.00  0.00    -0.485 OA
ATOM     27  C   UNL     1      -4.756  -5.221  -7.739  0.00  0.00    +0.270 C 
ATOM     28  C   UNL     1      -5.117  -3.844  -8.312  0.00  0.00    +0.270 C 
ATOM     29  O   UNL     1      -5.463  -2.982  -7.222  0.00  0.00    -0.485 OA
ENDBRANCH  17  20
BRANCH   1  35
ATOM     30  C   UNL     1       1.719  -1.064  -0.252  0.00  0.00    +0.008 A 
ATOM     31  C   UNL     1       3.045  -0.689  -0.351  0.00  0.00    +0.038 A 
ATOM     32  C   UNL     1       3.372   0.603  -0.727  0.00  0.00    +0.123 A 
ATOM     33  C   UNL     1       2.370   1.517  -1.002  0.00  0.00    +0.038 A 
ATOM     34  C   UNL     1       1.044   1.140  -0.902  0.00  0.00    +0.008 A 
ATOM     35  C   UNL     1       0.719  -0.150  -0.527  0.00  0.00    -0.025 A 
ATOM     36  F   UNL     1       4.668   0.971  -0.824  0.00  0.00    -0.205 F 
ENDBRANCH   1  35
TORSDOF 2
