REMARK  Name = ZINC21584420
REMARK  9 active torsions:
REMARK  status: ('A' for Active; 'I' for Inactive)
REMARK    1  A    between atoms: C_1  and  C_2
REMARK    2  A    between atoms: C_2  and  N_3
REMARK    3  A    between atoms: N_3  and  C_4
REMARK    4  A    between atoms: N_3  and  C_11
REMARK    5  A    between atoms: C_4  and  C_5
REMARK    6  A    between atoms: C_11  and  C_12
REMARK    7  A    between atoms: N_14  and  C_15
REMARK    8  A    between atoms: C_15  and  C_16
REMARK    9  A    between atoms: C_16  and  C_17
REMARK                            x       y       z     vdW  Elec       q    Type
REMARK                         _______ _______ _______ _____ _____    ______ ____
ROOT
ATOM      1  C   UNL     1      -2.135   0.228   0.979  0.00  0.00    +0.196 C 
ATOM      2  O   UNL     1      -1.577   0.739   1.927  0.00  0.00    -0.278 OA
ATOM      3  N   UNL     1      -3.479   0.121   0.966  0.00  0.00    -0.317 N 
ATOM      4  H   UNL     1      -3.985  -0.343   0.106  0.00  0.00    +0.149 HD
ENDROOT
BRANCH   1   5
ATOM      5  C   UNL     1      -1.327  -0.287  -0.183  0.00  0.00    +0.019 C 
BRANCH   5   6
ATOM      6  N   UNL     1       0.104  -0.185   0.132  0.00  0.00    +0.388 N 
ATOM      7  H   UNL     1       0.287   0.814   0.554  0.00  0.00    -0.081 HD
BRANCH   6   9
ATOM      8  C   UNL     1       0.851   0.977  -1.890  0.00  0.00    -0.017 C 
ATOM      9  C   UNL     1       0.922  -0.320  -1.081  0.00  0.00    -0.081 C 
ENDBRANCH   6   9
BRANCH   6  10
ATOM     10  C   UNL     1       0.493  -1.179   1.142  0.00  0.00    -0.035 C 
BRANCH  10  11
ATOM     11  C   UNL     1       1.893  -0.890   1.619  0.00  0.00    -0.026 A 
ATOM     12  C   UNL     1       2.299  -0.107   2.647  0.00  0.00    +0.010 A 
ATOM     13  C   UNL     1       3.652   0.013   2.905  0.00  0.00    +0.023 A 
ATOM     14  C   UNL     1       4.532  -0.657   2.121  0.00  0.00    +0.055 A 
ATOM     15  S   UNL     1       3.446  -1.497   0.980  0.00  0.00    -0.088 S 
ATOM     16 BR   UNL     1       6.421  -0.698   2.216  0.00  0.00    -0.043 Br
ENDBRANCH  10  11
ENDBRANCH   6  10
ENDBRANCH   5   6
ENDBRANCH   1   5
BRANCH   3  17
ATOM     17  C   UNL     1      -4.265   0.622   2.096  0.00  0.00    +0.109 C 
BRANCH  17  18
ATOM     18  C   UNL     1      -5.752   0.379   1.831  0.00  0.00    +0.056 C 
BRANCH  18  19
ATOM     19  C   UNL     1      -6.560   0.894   2.993  0.00  0.00    -0.021 A 
ATOM     20  C   UNL     1      -7.001   0.177   4.039  0.00  0.00    +0.087 A 
ATOM     21  N   UNL     1      -7.698   0.984   4.897  0.00  0.00    -0.360 N 
ATOM     22  H   UNL     1      -8.130   0.565   5.818  0.00  0.00    +0.165 HD
ATOM     23  C   UNL     1      -7.732   2.270   4.407  0.00  0.00    +0.047 A 
ATOM     24  C   UNL     1      -7.020   2.271   3.193  0.00  0.00    +0.003 A 
ATOM     25  C   UNL     1      -6.887   3.453   2.464  0.00  0.00    +0.010 A 
ATOM     26  C   UNL     1      -7.449   4.607   2.934  0.00  0.00    +0.001 A 
ATOM     27  C   UNL     1      -8.152   4.612   4.130  0.00  0.00    +0.002 A 
ATOM     28  C   UNL     1      -8.296   3.456   4.866  0.00  0.00    +0.026 A 
ENDBRANCH  18  19
ENDBRANCH  17  18
ENDBRANCH   3  17
TORSDOF 8
