REMARK  Name = ZINC22058311
REMARK  14 active torsions:
REMARK  status: ('A' for Active; 'I' for Inactive)
REMARK    1  A    between atoms: C_1  and  C_2
REMARK    2  A    between atoms: C_2  and  N_3
REMARK    3  A    between atoms: N_3  and  C_4
REMARK    4  A    between atoms: C_4  and  C_5
REMARK    5  A    between atoms: C_6  and  C_8
REMARK    6  A    between atoms: C_8  and  C_38
REMARK    7  A    between atoms: C_9  and  C_10
REMARK    8  A    between atoms: C_12  and  N_35
REMARK    9  A    between atoms: C_14  and  O_16
REMARK   10  A    between atoms: O_16  and  C_17
REMARK   11  A    between atoms: C_19  and  O_33
REMARK   12  A    between atoms: C_21  and  O_32
REMARK   13  A    between atoms: C_23  and  O_31
REMARK   14  A    between atoms: C_25  and  C_28
REMARK                            x       y       z     vdW  Elec       q    Type
REMARK                         _______ _______ _______ _____ _____    ______ ____
ROOT
ATOM      1  C   UNL     1      -1.415  -0.557   0.497  0.00  0.00    -0.018 A 
ATOM      2  C   UNL     1      -2.569   0.179   0.802  0.00  0.00    +0.044 A 
ATOM      3  C   UNL     1      -3.747  -0.475   1.081  0.00  0.00    +0.177 A 
ATOM      4  C   UNL     1      -3.794  -1.864   1.073  0.00  0.00    +0.250 A 
ATOM      5  C   UNL     1      -2.649  -2.605   0.777  0.00  0.00    +0.173 A 
ATOM      6  C   UNL     1      -1.464  -1.959   0.490  0.00  0.00    +0.057 A 
ATOM      7  O   UNL     1      -4.959  -2.503   1.355  0.00  0.00    -0.282 OA
ENDROOT
BRANCH   3   8
ATOM      8  N   UNL     1      -4.966   0.303   1.395  0.00  0.00    +0.060 N 
ATOM      9  O   UNL     1      -4.927   1.520   1.402  0.00  0.00    -0.126 OA
ATOM     10  O   UNL     1      -6.009  -0.274   1.647  0.00  0.00    -0.126 OA
ENDBRANCH   3   8
BRANCH   1  12
ATOM     11  C   UNL     1      -0.185   1.381  -0.394  0.00  0.00    +0.114 C 
ATOM     12  C   UNL     1      -0.160   0.135   0.195  0.00  0.00    +0.032 C 
BRANCH  11  14
ATOM     13  N   UNL     1       1.063   3.285  -1.276  0.00  0.00    -0.297 N 
ATOM     14  C   UNL     1       1.065   2.135  -0.572  0.00  0.00    +0.257 C 
ATOM     15  O   UNL     1       2.100   1.722  -0.085  0.00  0.00    -0.269 OA
BRANCH  13  17
ATOM     16  C   UNL     1       3.058   3.745  -2.615  0.00  0.00    +0.024 C 
ATOM     17  C   UNL     1       2.278   4.101  -1.347  0.00  0.00    +0.105 C 
ENDBRANCH  13  17
BRANCH  13  18
ATOM     18  C   UNL     1      -0.152   3.718  -1.969  0.00  0.00    +0.105 C 
ATOM     19  C   UNL     1      -1.030   4.521  -1.007  0.00  0.00    +0.024 C 
ENDBRANCH  13  18
ENDBRANCH  11  14
BRANCH  11  20
ATOM     20  C   UNL     1      -1.428   1.939  -0.836  0.00  0.00    +0.104 C 
ATOM     21  N   UNL     1      -2.413   2.381  -1.187  0.00  0.00    -0.191 NA
ENDBRANCH  11  20
ENDBRANCH   1  12
BRANCH   5  22
ATOM     22  O   UNL     1      -2.702  -3.963   0.771  0.00  0.00    -0.457 OA
BRANCH  22  23
ATOM     23  C   UNL     1      -1.492  -4.658   0.459  0.00  0.00    +0.340 C 
ATOM     24  C   UNL     1      -1.712  -6.164   0.621  0.00  0.00    +0.214 C 
ATOM     25  C   UNL     1      -2.783  -6.626  -0.373  0.00  0.00    +0.180 C 
ATOM     26  C   UNL     1      -2.342  -6.252  -1.792  0.00  0.00    +0.186 C 
ATOM     27  C   UNL     1      -2.098  -4.742  -1.860  0.00  0.00    +0.266 C 
ATOM     28  O   UNL     1      -1.115  -4.375  -0.890  0.00  0.00    -0.322 OA
BRANCH  27  29
ATOM     29  C   UNL     1      -1.607  -4.374  -3.237  0.00  0.00    +0.387 C 
ATOM     30  O   UNL     1      -0.491  -3.935  -3.383  0.00  0.00    -0.243 OA
ATOM     31  O   UNL     1      -2.410  -4.534  -4.301  0.00  0.00    -0.243 OA
ENDBRANCH  27  29
BRANCH  26  32
ATOM     32  O   UNL     1      -1.135  -6.946  -2.116  0.00  0.00    -0.386 OA
ATOM     33  H   UNL     1      -0.665  -6.802  -3.100  0.00  0.00    +0.210 HD
ENDBRANCH  26  32
BRANCH  25  34
ATOM     34  O   UNL     1      -4.023  -5.983  -0.073  0.00  0.00    -0.386 OA
ATOM     35  H   UNL     1      -4.913  -6.192  -0.684  0.00  0.00    +0.210 HD
ENDBRANCH  25  34
BRANCH  24  36
ATOM     36  O   UNL     1      -2.146  -6.443   1.953  0.00  0.00    -0.383 OA
ATOM     37  H   UNL     1      -2.355  -7.479   2.258  0.00  0.00    +0.210 HD
ENDBRANCH  24  36
ENDBRANCH  22  23
ENDBRANCH   5  22
TORSDOF 12
