REMARK  Name = ZINC21724373
REMARK  7 active torsions:
REMARK  status: ('A' for Active; 'I' for Inactive)
REMARK    1  A    between atoms: C_1  and  C_2
REMARK    2  A    between atoms: C_5  and  C_8
REMARK    3  A    between atoms: C_10  and  C_13
REMARK    4  A    between atoms: C_13  and  N_14
REMARK    5  A    between atoms: C_17  and  C_20
REMARK    6  A    between atoms: C_25  and  C_28
REMARK    7  A    between atoms: C_25  and  O_35
REMARK                            x       y       z     vdW  Elec       q    Type
REMARK                         _______ _______ _______ _____ _____    ______ ____
ROOT
ATOM      1  N   UNL     1      -1.635   2.498   1.404  0.00  0.00    +0.385 N 
ATOM      2  C   UNL     1      -0.471   2.883   2.212  0.00  0.00    -0.078 C 
ATOM      3  C   UNL     1      -0.887   3.016   3.679  0.00  0.00    -0.006 C 
ATOM      4  C   UNL     1      -1.987   4.074   3.798  0.00  0.00    +0.072 C 
ATOM      5  C   UNL     1      -3.168   3.673   2.910  0.00  0.00    -0.006 C 
ATOM      6  C   UNL     1      -2.686   3.522   1.466  0.00  0.00    -0.078 C 
ATOM      7  H   UNL     1      -2.045   1.570   1.830  0.00  0.00    -0.081 HD
ENDROOT
BRANCH   4   8
ATOM      8  C   UNL     1      -2.443   4.167   5.231  0.00  0.00    +0.219 C 
ATOM      9  O   UNL     1      -3.411   3.537   5.602  0.00  0.00    -0.275 OA
ATOM     10  N   UNL     1      -1.775   4.950   6.102  0.00  0.00    -0.301 N 
ATOM     11  C   UNL     1      -0.661   5.793   5.647  0.00  0.00    +0.111 C 
ATOM     12  C   UNL     1       0.568   5.498   6.505  0.00  0.00    +0.058 C 
ATOM     13  C   UNL     1       0.210   5.671   7.983  0.00  0.00    +0.094 C 
ATOM     14  C   UNL     1      -0.894   4.682   8.361  0.00  0.00    +0.058 C 
ATOM     15  C   UNL     1      -2.143   4.972   7.524  0.00  0.00    +0.111 C 
BRANCH  13  16
ATOM     16  C   UNL     1       1.430   5.411   8.829  0.00  0.00    -0.016 A 
ATOM     17  C   UNL     1       1.692   4.133   9.288  0.00  0.00    +0.008 A 
ATOM     18  C   UNL     1       2.813   3.893  10.059  0.00  0.00    +0.020 A 
ATOM     19  C   UNL     1       3.667   4.932  10.381  0.00  0.00    +0.041 A 
ATOM     20  C   UNL     1       3.401   6.212   9.926  0.00  0.00    +0.020 A 
ATOM     21  C   UNL     1       2.283   6.450   9.150  0.00  0.00    +0.008 A 
ATOM     22 CL   UNL     1       5.072   4.632  11.355  0.00  0.00    -0.084 Cl
ENDBRANCH  13  16
BRANCH  13  23
ATOM     23  O   UNL     1      -0.248   7.006   8.208  0.00  0.00    -0.384 OA
ATOM     24  H   UNL     1      -0.553   7.320   9.217  0.00  0.00    +0.211 HD
ENDBRANCH  13  23
ENDBRANCH   4   8
BRANCH   1  25
ATOM     25  C   UNL     1      -1.245   2.226   0.014  0.00  0.00    +0.002 C 
BRANCH  25  28
ATOM     26  C   UNL     1       1.301  -0.303  -0.029  0.00  0.00    +0.258 A 
ATOM     27  N   UNL     1       0.021   0.022  -0.010  0.00  0.00    -0.194 NA
ATOM     28  C   UNL     1      -0.009   1.364  -0.002  0.00  0.00    +0.156 A 
ATOM     29  N   UNL     1       1.221   1.785  -0.015  0.00  0.00    -0.063 NA
ATOM     30  O   UNL     1       1.990   0.848  -0.031  0.00  0.00    -0.333 OA
BRANCH  26  35
ATOM     31  C   UNL     1       3.494  -5.623  -0.087  0.00  0.00    +0.044 C 
ATOM     32  C   UNL     1       2.920  -4.230  -0.072  0.00  0.00    -0.050 A 
ATOM     33  C   UNL     1       3.767  -3.136  -0.077  0.00  0.00    +0.004 A 
ATOM     34  C   UNL     1       3.247  -1.857  -0.064  0.00  0.00    +0.013 A 
ATOM     35  C   UNL     1       1.864  -1.670  -0.044  0.00  0.00    +0.039 A 
ATOM     36  C   UNL     1       1.016  -2.778  -0.034  0.00  0.00    +0.013 A 
ATOM     37  C   UNL     1       1.548  -4.051  -0.053  0.00  0.00    +0.004 A 
ENDBRANCH  26  35
ENDBRANCH  25  28
ENDBRANCH   1  25
TORSDOF 6
