REMARK  Name = ZINC35032031
REMARK  11 active torsions:
REMARK  status: ('A' for Active; 'I' for Inactive)
REMARK    1  A    between atoms: C_1  and  C_2
REMARK    2  A    between atoms: C_2  and  N_3
REMARK    3  A    between atoms: C_13  and  C_14
REMARK    4  A    between atoms: C_14  and  C_16
REMARK    5  A    between atoms: C_14  and  N_17
REMARK    6  A    between atoms: N_17  and  C_18
REMARK    7  A    between atoms: C_18  and  C_19
REMARK    8  A    between atoms: C_19  and  N_20
REMARK    9  A    between atoms: N_20  and  C_21
REMARK   10  A    between atoms: N_20  and  C_22
REMARK   11  A    between atoms: C_23  and  C_25
REMARK                            x       y       z     vdW  Elec       q    Type
REMARK                         _______ _______ _______ _____ _____    ______ ____
ROOT
ATOM      1  N   UNL     1      -1.745  -0.611   3.858  0.00  0.00    -0.289 N 
ATOM      2  C   UNL     1      -2.617  -1.574   4.216  0.00  0.00    +0.249 C 
ATOM      3  O   UNL     1      -2.984  -2.396   3.400  0.00  0.00    -0.270 OA
ENDROOT
BRANCH   2   4
ATOM      4  C   UNL     1      -3.129  -1.629   5.601  0.00  0.00    +0.055 A 
ATOM      5  C   UNL     1      -2.244  -1.785   6.670  0.00  0.00    +0.016 A 
ATOM      6  C   UNL     1      -2.727  -1.836   7.960  0.00  0.00    +0.021 A 
ATOM      7  C   UNL     1      -4.088  -1.733   8.198  0.00  0.00    +0.042 A 
ATOM      8  C   UNL     1      -4.972  -1.579   7.144  0.00  0.00    +0.040 A 
ATOM      9  C   UNL     1      -4.500  -1.519   5.847  0.00  0.00    +0.054 A 
ATOM     10 CL   UNL     1      -5.608  -1.318   4.526  0.00  0.00    -0.083 Cl
ATOM     11 CL   UNL     1      -4.688  -1.799   9.826  0.00  0.00    -0.083 Cl
ENDBRANCH   2   4
BRANCH   1  12
ATOM     12  C   UNL     1      -1.314  -0.495   2.462  0.00  0.00    +0.139 C 
ATOM     13  C   UNL     1      -1.699   0.885   1.924  0.00  0.00    +0.036 C 
BRANCH  12  24
ATOM     14  N   UNL     1       0.670  -1.753   1.728  0.00  0.00    -0.295 N 
ATOM     15  C   UNL     1       2.004  -1.950   1.622  0.00  0.00    +0.262 A 
ATOM     16  O   UNL     1       2.456  -2.916   1.035  0.00  0.00    -0.267 OA
ATOM     17  C   UNL     1       2.887  -0.953   2.244  0.00  0.00    +0.066 A 
ATOM     18  C   UNL     1       4.275  -1.063   2.193  0.00  0.00    +0.035 A 
ATOM     19  C   UNL     1       5.056  -0.098   2.793  0.00  0.00    +0.042 A 
ATOM     20  C   UNL     1       4.469   0.979   3.447  0.00  0.00    +0.022 A 
ATOM     21  C   UNL     1       3.100   1.105   3.509  0.00  0.00    +0.030 A 
ATOM     22  C   UNL     1       2.288   0.141   2.908  0.00  0.00    +0.078 A 
ATOM     23  N   UNL     1       0.935   0.227   2.945  0.00  0.00    -0.232 NA
ATOM     24  C   UNL     1       0.180  -0.667   2.382  0.00  0.00    +0.133 A 
ATOM     25 CL   UNL     1       6.786  -0.230   2.733  0.00  0.00    -0.084 Cl
BRANCH  14  27
ATOM     26  C   UNL     1      -0.673  -2.223  -0.262  0.00  0.00    +0.027 C 
ATOM     27  C   UNL     1      -0.256  -2.716   1.126  0.00  0.00    +0.123 C 
ENDBRANCH  14  27
ENDBRANCH  12  24
ENDBRANCH   1  12
BRANCH   1  28
ATOM     28  C   UNL     1      -1.226   0.319   4.864  0.00  0.00    +0.090 C 
BRANCH  28  29
ATOM     29  C   UNL     1      -2.218   1.468   5.056  0.00  0.00    -0.060 C 
BRANCH  29  30
ATOM     30  N   UNL     1      -1.698   2.400   6.066  0.00  0.00    +0.377 N 
ATOM     31  C   UNL     1      -0.469   3.028   5.564  0.00  0.00    -0.097 C 
ATOM     32  C   UNL     1      -2.702   3.437   6.337  0.00  0.00    -0.097 C 
ATOM     33  H   UNL     1      -1.496   1.897   6.916  0.00  0.00    -0.083 HD
ENDBRANCH  29  30
ENDBRANCH  28  29
ENDBRANCH   1  28
TORSDOF 7
