REMARK  Name = ZINC18798771
REMARK  9 active torsions:
REMARK  status: ('A' for Active; 'I' for Inactive)
REMARK    1  A    between atoms: C_1  and  C_2
REMARK    2  A    between atoms: C_4  and  N_11
REMARK    3  A    between atoms: C_5  and  O_9
REMARK    4  A    between atoms: O_9  and  C_10
REMARK    5  A    between atoms: C_12  and  C_14
REMARK    6  A    between atoms: C_14  and  C_16
REMARK    7  A    between atoms: C_14  and  O_17
REMARK    8  A    between atoms: O_17  and  C_18
REMARK    9  A    between atoms: C_18  and  C_20
REMARK                            x       y       z     vdW  Elec       q    Type
REMARK                         _______ _______ _______ _____ _____    ______ ____
ROOT
ATOM      1  C   UNL     1       2.358  -2.780   0.437  0.00  0.00    +0.340 C 
ATOM      2  O   UNL     1       3.344  -2.199   0.845  0.00  0.00    -0.245 OA
ENDROOT
BRANCH   1   3
ATOM      3  C   UNL     1       2.290  -4.257   0.503  0.00  0.00    +0.061 A 
ATOM      4  C   UNL     1       1.153  -4.916   0.031  0.00  0.00    +0.016 A 
ATOM      5  C   UNL     1       1.076  -6.285   0.056  0.00  0.00    +0.016 A 
ATOM      6  C   UNL     1       2.131  -7.023   0.593  0.00  0.00    +0.065 A 
ATOM      7  C   UNL     1       3.276  -6.369   1.098  0.00  0.00    +0.079 A 
ATOM      8  C   UNL     1       3.351  -4.980   1.034  0.00  0.00    +0.043 A 
ATOM      9  N   UNL     1       4.241  -7.121   1.663  0.00  0.00    -0.233 NA
ATOM     10  C   UNL     1       4.136  -8.420   1.824  0.00  0.00    +0.113 A 
ATOM     11  N   UNL     1       3.115  -9.130   1.309  0.00  0.00    -0.296 N 
ATOM     12  C   UNL     1       2.113  -8.495   0.643  0.00  0.00    +0.262 A 
ATOM     13  O   UNL     1       1.231  -9.135   0.114  0.00  0.00    -0.267 OA
ATOM     14  C   UNL     1       3.020 -10.593   1.402  0.00  0.00    +0.126 C 
ATOM     15  C   UNL     1       2.549 -10.977   2.807  0.00  0.00    +0.022 C 
ATOM     16  C   UNL     1       3.734 -11.092   3.760  0.00  0.00    +0.002 C 
ATOM     17  C   UNL     1       5.062 -11.491   3.130  0.00  0.00    +0.000 C 
ATOM     18  C   UNL     1       5.648 -10.420   2.203  0.00  0.00    +0.008 C 
ATOM     19  C   UNL     1       5.204  -9.039   2.683  0.00  0.00    +0.074 C 
ENDBRANCH   1   3
BRANCH   1  20
ATOM     20  O   UNL     1       1.328  -2.080  -0.075  0.00  0.00    -0.449 OA
BRANCH  20  21
ATOM     21  C   UNL     1       1.464  -0.635  -0.108  0.00  0.00    +0.259 C 
ATOM     22  C   UNL     1       2.106  -0.213  -1.431  0.00  0.00    +0.062 C 
BRANCH  21  24
ATOM     23  N   UNL     1      -0.016   1.344   0.009  0.00  0.00    -0.280 N 
ATOM     24  C   UNL     1       0.103   0.001   0.016  0.00  0.00    +0.258 C 
ATOM     25  O   UNL     1      -0.884  -0.695   0.121  0.00  0.00    -0.271 OA
ATOM     26  H   UNL     1       0.777   1.901  -0.009  0.00  0.00    +0.155 HD
BRANCH  23  30
ATOM     27  C   UNL     1      -4.702   1.270   1.500  0.00  0.00    +0.045 C 
ATOM     28  C   UNL     1      -3.577   1.920   0.737  0.00  0.00    -0.030 A 
ATOM     29  C   UNL     1      -2.324   1.337   0.725  0.00  0.00    +0.031 A 
ATOM     30  C   UNL     1      -1.288   1.934   0.023  0.00  0.00    +0.076 A 
ATOM     31  C   UNL     1      -1.512   3.125  -0.664  0.00  0.00    +0.143 A 
ATOM     32  C   UNL     1      -2.771   3.701  -0.652  0.00  0.00    +0.067 A 
ATOM     33  C   UNL     1      -3.801   3.100   0.050  0.00  0.00    +0.047 A 
ATOM     34 CL   UNL     1      -5.377   3.827   0.069  0.00  0.00    -0.083 Cl
BRANCH  31  35
ATOM     35  O   UNL     1      -0.497   3.718  -1.349  0.00  0.00    -0.493 OA
ATOM     36  C   UNL     1      -0.800   4.937  -2.030  0.00  0.00    +0.277 C 
ENDBRANCH  31  35
ENDBRANCH  23  30
ENDBRANCH  21  24
ENDBRANCH  20  21
ENDBRANCH   1  20
TORSDOF 6
