REMARK  Name = ZINC00829917
REMARK  7 active torsions:
REMARK  status: ('A' for Active; 'I' for Inactive)
REMARK    1  A    between atoms: C_4  and  N_7
REMARK    2  A    between atoms: N_7  and  C_8
REMARK    3  A    between atoms: N_7  and  S_19
REMARK    4  A    between atoms: C_8  and  C_9
REMARK    5  A    between atoms: N_11  and  C_12
REMARK    6  A    between atoms: C_12  and  C_13
REMARK    7  A    between atoms: S_19  and  C_22
REMARK                            x       y       z     vdW  Elec       q    Type
REMARK                         _______ _______ _______ _____ _____    ______ ____
ROOT
ATOM      1  N   UNL     1       0.002  -0.004   0.002  0.00  0.00    -0.194 N 
ENDROOT
BRANCH   1   5
ATOM      2  C   UNL     1       3.453  -2.045   1.125  0.00  0.00    +0.000 A 
ATOM      3  C   UNL     1       3.527  -1.027   0.192  0.00  0.00    +0.002 A 
ATOM      4  C   UNL     1       2.384  -0.348  -0.183  0.00  0.00    +0.025 A 
ATOM      5  C   UNL     1       1.160  -0.689   0.378  0.00  0.00    +0.052 A 
ATOM      6  C   UNL     1       1.091  -1.708   1.319  0.00  0.00    +0.025 A 
ATOM      7  C   UNL     1       2.237  -2.387   1.685  0.00  0.00    +0.002 A 
ENDBRANCH   1   5
BRANCH   1   8
ATOM      8  S   UNL     1      -0.107   1.631   0.239  0.00  0.00    +0.075 S 
ATOM      9  O   UNL     1       1.221   2.105   0.419  0.00  0.00    -0.150 OA
ATOM     10  O   UNL     1      -0.964   2.133  -0.777  0.00  0.00    -0.150 OA
BRANCH   8  11
ATOM     11  C   UNL     1      -0.941   1.881   1.771  0.00  0.00    +0.109 A 
ATOM     12  C   UNL     1      -2.318   1.998   1.797  0.00  0.00    +0.029 A 
ATOM     13  C   UNL     1      -2.974   2.188   2.999  0.00  0.00    +0.002 A 
ATOM     14  C   UNL     1      -2.251   2.273   4.174  0.00  0.00    +0.000 A 
ATOM     15  C   UNL     1      -0.873   2.162   4.148  0.00  0.00    +0.002 A 
ATOM     16  C   UNL     1      -0.218   1.965   2.946  0.00  0.00    +0.029 A 
ENDBRANCH   8  11
ENDBRANCH   1   8
BRANCH   1  17
ATOM     17  C   UNL     1      -1.116  -0.732  -0.603  0.00  0.00    +0.227 C 
BRANCH  17  18
ATOM     18  C   UNL     1      -0.886  -0.865  -2.086  0.00  0.00    +0.232 C 
ATOM     19  O   UNL     1       0.114  -0.397  -2.589  0.00  0.00    -0.274 OA
ATOM     20  N   UNL     1      -1.790  -1.503  -2.854  0.00  0.00    -0.308 N 
ATOM     21  H   UNL     1      -2.590  -1.877  -2.452  0.00  0.00    +0.149 HD
BRANCH  20  22
ATOM     22  C   UNL     1      -1.567  -1.632  -4.296  0.00  0.00    +0.159 C 
BRANCH  22  23
ATOM     23  C   UNL     1      -2.717  -2.381  -4.918  0.00  0.00    +0.058 A 
ATOM     24  C   UNL     1      -3.768  -1.678  -5.476  0.00  0.00    +0.025 A 
ATOM     25  C   UNL     1      -4.821  -2.377  -6.046  0.00  0.00    +0.003 A 
ATOM     26  C   UNL     1      -4.777  -3.763  -6.034  0.00  0.00    +0.020 A 
ATOM     27  C   UNL     1      -3.692  -4.397  -5.458  0.00  0.00    +0.111 A 
ATOM     28  N   UNL     1      -2.706  -3.699  -4.929  0.00  0.00    -0.258 NA
ENDBRANCH  22  23
ENDBRANCH  20  22
ENDBRANCH  17  18
ENDBRANCH   1  17
TORSDOF 7
