REMARK  Name = ZINC05800244
REMARK  5 active torsions:
REMARK  status: ('A' for Active; 'I' for Inactive)
REMARK    1  A    between atoms: C_1  and  C_2
REMARK    2  A    between atoms: C_2  and  C_4
REMARK    3  A    between atoms: C_2  and  N_10
REMARK    4  A    between atoms: C_11  and  C_13
REMARK    5  A    between atoms: C_20  and  C_25
REMARK                            x       y       z     vdW  Elec       q    Type
REMARK                         _______ _______ _______ _____ _____    ______ ____
ROOT
ATOM      1  C   UNL     1      -3.436  -1.154  -1.134  0.00  0.00    +0.038 A 
ATOM      2  C   UNL     1      -4.047  -1.497   0.080  0.00  0.00    +0.015 A 
ATOM      3  C   UNL     1      -5.326  -1.970   0.105  0.00  0.00    +0.027 A 
ATOM      4  C   UNL     1      -6.043  -2.119  -1.081  0.00  0.00    +0.053 A 
ATOM      5  C   UNL     1      -5.440  -1.777  -2.305  0.00  0.00    +0.047 A 
ATOM      6  C   UNL     1      -4.137  -1.290  -2.329  0.00  0.00    +0.026 A 
ATOM      7  C   UNL     1      -6.215  -1.941  -3.550  0.00  0.00    +0.201 A 
ATOM      8  C   UNL     1      -7.537  -2.438  -3.447  0.00  0.00    +0.094 A 
ATOM      9  C   UNL     1      -8.056  -2.751  -2.202  0.00  0.00    +0.261 A 
ATOM     10  O   UNL     1      -9.318  -3.223  -2.119  0.00  0.00    -0.267 OA
ATOM     11  N   UNL     1      -7.335  -2.596  -1.063  0.00  0.00    -0.321 N 
ATOM     12  H   UNL     1      -7.740  -2.828  -0.213  0.00  0.00    +0.169 HD
ATOM     13  O   UNL     1      -5.731  -1.657  -4.634  0.00  0.00    -0.286 OA
ENDROOT
BRANCH   8  14
ATOM     14  C   UNL     1      -8.361  -2.622  -4.665  0.00  0.00    -0.009 A 
ATOM     15  C   UNL     1      -7.991  -3.565  -5.624  0.00  0.00    +0.009 A 
ATOM     16  C   UNL     1      -8.763  -3.732  -6.756  0.00  0.00    +0.001 A 
ATOM     17  C   UNL     1      -9.900  -2.967  -6.940  0.00  0.00    +0.000 A 
ATOM     18  C   UNL     1     -10.272  -2.030  -5.992  0.00  0.00    +0.001 A 
ATOM     19  C   UNL     1      -9.512  -1.858  -4.854  0.00  0.00    +0.009 A 
ENDBRANCH   8  14
BRANCH   1  21
ATOM     20  N   UNL     1      -1.372  -0.511   0.012  0.00  0.00    -0.305 N 
ATOM     21  C   UNL     1      -2.051  -0.643  -1.145  0.00  0.00    +0.245 C 
ATOM     22  O   UNL     1      -1.522  -0.341  -2.197  0.00  0.00    -0.270 OA
ATOM     23  H   UNL     1      -1.794  -0.752   0.852  0.00  0.00    +0.150 HD
BRANCH  20  25
ATOM     24  C   UNL     1      -0.019   1.526   0.010  0.00  0.00    +0.033 C 
ATOM     25  C   UNL     1       0.002  -0.004   0.002  0.00  0.00    +0.100 C 
BRANCH  25  26
ATOM     26  C   UNL     1       0.731  -0.503   1.223  0.00  0.00    -0.027 A 
ATOM     27  C   UNL     1       0.081  -0.558   2.442  0.00  0.00    +0.005 A 
ATOM     28  C   UNL     1       0.749  -1.016   3.562  0.00  0.00    +0.000 A 
ATOM     29  C   UNL     1       2.068  -1.420   3.463  0.00  0.00    +0.000 A 
ATOM     30  C   UNL     1       2.718  -1.365   2.244  0.00  0.00    +0.000 A 
ATOM     31  C   UNL     1       2.048  -0.911   1.123  0.00  0.00    +0.005 A 
ENDBRANCH  25  26
ENDBRANCH  20  25
ENDBRANCH   1  21
TORSDOF 4
