REMARK  Name = ZINC08969401
REMARK  2 active torsions:
REMARK  status: ('A' for Active; 'I' for Inactive)
REMARK    1  A    between atoms: C_4  and  N_11
REMARK    2  A    between atoms: C_5  and  C_7
REMARK                            x       y       z     vdW  Elec       q    Type
REMARK                         _______ _______ _______ _____ _____    ______ ____
ROOT
ATOM      1  N   UNL     1       1.711   5.904  -2.823  0.00  0.00    -0.209 N 
ATOM      2  C   UNL     1       2.354   6.564  -1.799  0.00  0.00    +0.228 C 
ATOM      3  O   UNL     1       3.307   7.310  -1.873  0.00  0.00    -0.275 OA
ATOM      4  C   UNL     1       1.631   6.159  -0.618  0.00  0.00    +0.074 C 
ATOM      5  C   UNL     1       1.546   6.399   0.829  0.00  0.00    -0.054 C 
ATOM      6  C   UNL     1       1.649   7.899   1.198  0.00  0.00    -0.016 C 
ATOM      7  C   UNL     1       0.202   8.414   1.022  0.00  0.00    -0.020 C 
ATOM      8  C   UNL     1      -0.649   7.207   1.459  0.00  0.00    -0.076 C 
ATOM      9  C   UNL     1      -0.420   5.292   0.018  0.00  0.00    +0.053 C 
ATOM     10  C   UNL     1       0.153   6.069  -1.148  0.00  0.00    +0.089 C 
ATOM     11  C   UNL     1       0.488   5.414  -2.452  0.00  0.00    +0.229 C 
ATOM     12  O   UNL     1      -0.188   4.611  -3.058  0.00  0.00    -0.275 OA
ATOM     13  C   UNL     1      -0.043   3.842   0.016  0.00  0.00    -0.024 A 
ATOM     14  C   UNL     1       1.155   3.166   0.004  0.00  0.00    +0.043 A 
ATOM     15  C   UNL     1       1.179   1.782   0.000  0.00  0.00    +0.124 A 
ATOM     16  C   UNL     1      -0.013   1.076   0.008  0.00  0.00    +0.040 A 
ATOM     17  C   UNL     1      -1.218   1.747   0.017  0.00  0.00    +0.026 A 
ATOM     18  C   UNL     1      -1.246   3.139   0.028  0.00  0.00    +0.036 A 
ATOM     19  N   UNL     1      -2.325   4.028   0.046  0.00  0.00    -0.286 N 
ATOM     20  C   UNL     1      -1.922   5.314   0.048  0.00  0.00    +0.212 C 
ATOM     21  O   UNL     1      -2.632   6.297   0.068  0.00  0.00    -0.277 OA
ATOM     22  F   UNL     1       2.359   1.124  -0.010  0.00  0.00    -0.205 F 
ATOM     23  H   UNL     1      -3.255   3.751   0.056  0.00  0.00    +0.155 HD
ATOM     24  N   UNL     1       0.149   5.995   1.172  0.00  0.00    +0.395 N 
ATOM     25  H   UNL     1       0.152   5.378   1.993  0.00  0.00    -0.079 HD
ENDROOT
BRANCH   1  29
ATOM     26  C   UNL     1       3.316   5.452  -6.643  0.00  0.00    +0.001 A 
ATOM     27  C   UNL     1       2.535   6.554  -6.349  0.00  0.00    +0.002 A 
ATOM     28  C   UNL     1       2.002   6.707  -5.085  0.00  0.00    +0.024 A 
ATOM     29  C   UNL     1       2.250   5.752  -4.108  0.00  0.00    +0.056 A 
ATOM     30  C   UNL     1       3.039   4.649  -4.404  0.00  0.00    +0.077 A 
ATOM     31  C   UNL     1       3.565   4.499  -5.673  0.00  0.00    +0.014 A 
BRANCH  30  32
ATOM     32  C   UNL     1       3.316   3.613  -3.345  0.00  0.00    +0.419 C 
ATOM     33  F   UNL     1       4.127   2.606  -3.879  0.00  0.00    -0.166 F 
ATOM     34  F   UNL     1       3.970   4.215  -2.265  0.00  0.00    -0.166 F 
ATOM     35  F   UNL     1       2.108   3.057  -2.909  0.00  0.00    -0.166 F 
ENDBRANCH  30  32
ENDBRANCH   1  29
TORSDOF 2
