REMARK  Name = ZINC39688410
REMARK  9 active torsions:
REMARK  status: ('A' for Active; 'I' for Inactive)
REMARK    1  A    between atoms: C_1  and  C_2
REMARK    2  A    between atoms: C_2  and  C_4
REMARK    3  A    between atoms: C_2  and  N_12
REMARK    4  A    between atoms: C_4  and  C_5
REMARK    5  A    between atoms: C_13  and  C_15
REMARK    6  A    between atoms: C_26  and  C_28
REMARK    7  A    between atoms: C_33  and  O_34
REMARK    8  A    between atoms: O_34  and  C_35
REMARK    9  A    between atoms: C_35  and  C_37
REMARK                            x       y       z     vdW  Elec       q    Type
REMARK                         _______ _______ _______ _____ _____    ______ ____
ROOT
ATOM      1  C   UNL     1      -3.910  -0.983  -1.173  0.00  0.00    +0.100 C 
ATOM      2  C   UNL     1      -3.736  -2.443  -0.701  0.00  0.00    +0.121 C 
ATOM      3  N   UNL     1      -4.648  -3.228  -1.567  0.00  0.00    -0.296 N 
ATOM      4  C   UNL     1      -4.511  -2.605  -2.906  0.00  0.00    +0.115 C 
ATOM      5  C   UNL     1      -4.418  -1.093  -2.621  0.00  0.00    -0.004 C 
ATOM      6  C   UNL     1      -3.429  -0.436  -3.579  0.00  0.00    -0.010 C 
ATOM      7  C   UNL     1      -3.984  -0.507  -5.005  0.00  0.00    -0.082 C 
ATOM      8  N   UNL     1      -5.280   0.178  -5.062  0.00  0.00    +0.379 N 
ATOM      9  C   UNL     1      -6.252  -0.516  -4.208  0.00  0.00    -0.082 C 
ATOM     10  C   UNL     1      -5.793  -0.445  -2.749  0.00  0.00    -0.010 C 
ATOM     11  C   UNL     1      -5.426  -4.271  -1.216  0.00  0.00    +0.250 C 
ATOM     12  O   UNL     1      -6.053  -4.874  -2.066  0.00  0.00    -0.270 OA
ATOM     13  H   UNL     1      -5.171   1.129  -4.742  0.00  0.00    -0.086 HD
ATOM     14  H   UNL     1      -5.615   0.183  -6.014  0.00  0.00    -0.086 HD
ENDROOT
BRANCH  11  15
ATOM     15  C   UNL     1      -5.518  -4.680   0.198  0.00  0.00    +0.079 A 
ATOM     16  C   UNL     1      -4.402  -4.582   1.032  0.00  0.00    +0.017 A 
ATOM     17  C   UNL     1      -4.494  -4.966   2.352  0.00  0.00    +0.001 A 
ATOM     18  C   UNL     1      -5.690  -5.449   2.858  0.00  0.00    +0.004 A 
ATOM     19  C   UNL     1      -6.801  -5.551   2.044  0.00  0.00    +0.047 A 
ATOM     20  C   UNL     1      -6.728  -5.164   0.715  0.00  0.00    +0.144 A 
BRANCH  20  21
ATOM     21  O   UNL     1      -7.820  -5.259  -0.085  0.00  0.00    -0.425 OA
BRANCH  21  22
ATOM     22  C   UNL     1      -8.612  -4.180  -0.201  0.00  0.00    +0.309 C 
ATOM     23  O   UNL     1      -8.293  -3.138   0.321  0.00  0.00    -0.251 OA
ATOM     24  C   UNL     1      -9.896  -4.269  -0.984  0.00  0.00    +0.136 C 
ENDBRANCH  21  22
ENDBRANCH  20  21
ENDBRANCH  11  15
BRANCH   1  26
ATOM     25  N   UNL     1      -2.560   1.085  -1.032  0.00  0.00    -0.312 N 
ATOM     26  C   UNL     1      -2.589  -0.258  -1.135  0.00  0.00    +0.218 C 
ATOM     27  O   UNL     1      -1.552  -0.884  -1.196  0.00  0.00    -0.275 OA
ATOM     28  H   UNL     1      -3.389   1.586  -0.984  0.00  0.00    +0.149 HD
BRANCH  25  30
ATOM     29  C   UNL     1      -0.786   2.034  -2.424  0.00  0.00    +0.028 C 
ATOM     30  C   UNL     1      -1.276   1.790  -0.995  0.00  0.00    +0.074 C 
BRANCH  30  31
ATOM     31  C   UNL     1      -1.450   3.131  -0.279  0.00  0.00    +0.057 C 
BRANCH  31  32
ATOM     32  C   UNL     1      -1.813   2.886   1.163  0.00  0.00    -0.045 A 
ATOM     33  C   UNL     1      -3.141   2.773   1.532  0.00  0.00    +0.006 A 
ATOM     34  C   UNL     1      -3.475   2.549   2.854  0.00  0.00    +0.038 A 
ATOM     35  C   UNL     1      -2.480   2.437   3.809  0.00  0.00    +0.123 A 
ATOM     36  C   UNL     1      -1.150   2.550   3.439  0.00  0.00    +0.038 A 
ATOM     37  C   UNL     1      -0.818   2.770   2.116  0.00  0.00    +0.006 A 
ATOM     38  F   UNL     1      -2.805   2.218   5.102  0.00  0.00    -0.205 F 
ENDBRANCH  31  32
ENDBRANCH  30  31
ENDBRANCH  25  30
ENDBRANCH   1  26
TORSDOF 7
