REMARK  Name = ZINC58847020
REMARK  5 active torsions:
REMARK  status: ('A' for Active; 'I' for Inactive)
REMARK    1  A    between atoms: C_5  and  N_7
REMARK    2  A    between atoms: N_7  and  S_8
REMARK    3  A    between atoms: S_8  and  C_11
REMARK    4  A    between atoms: C_24  and  C_27
REMARK    5  A    between atoms: C_30  and  N_33
REMARK                            x       y       z     vdW  Elec       q    Type
REMARK                         _______ _______ _______ _____ _____    ______ ____
ROOT
ATOM      1  C   UNL     1       0.131  -2.672  -2.470  0.00  0.00    +0.109 A 
ATOM      2  C   UNL     1      -0.521  -1.607  -3.064  0.00  0.00    +0.030 A 
ATOM      3  C   UNL     1      -0.423  -1.418  -4.428  0.00  0.00    +0.025 A 
ATOM      4  C   UNL     1       0.331  -2.293  -5.202  0.00  0.00    +0.031 A 
ATOM      5  C   UNL     1       0.996  -3.354  -4.606  0.00  0.00    -0.018 A 
ATOM      6  C   UNL     1       0.888  -3.537  -3.235  0.00  0.00    +0.034 A 
ATOM      7  C   UNL     1       1.846  -4.290  -5.397  0.00  0.00    +0.049 C 
ATOM      8  C   UNL     1       1.166  -5.615  -5.629  0.00  0.00    -0.023 C 
ATOM      9  C   UNL     1       1.467  -6.077  -6.817  0.00  0.00    -0.030 C 
ATOM     10  C   UNL     1       2.385  -5.124  -7.550  0.00  0.00    +0.033 C 
ATOM     11  C   UNL     1       2.213  -3.788  -6.792  0.00  0.00    +0.029 C 
ATOM     12  C   UNL     1       1.110  -2.999  -7.467  0.00  0.00    +0.105 C 
ATOM     13  N   UNL     1       0.405  -2.101  -6.576  0.00  0.00    -0.336 N 
ATOM     14  H   UNL     1      -0.057  -1.340  -6.960  0.00  0.00    +0.147 HD
ENDROOT
BRANCH  12  15
ATOM     15  C   UNL     1       0.136  -3.970  -8.083  0.00  0.00    -0.027 A 
ATOM     16  C   UNL     1      -0.821  -4.582  -7.296  0.00  0.00    +0.008 A 
ATOM     17  C   UNL     1      -1.715  -5.473  -7.861  0.00  0.00    +0.033 A 
ATOM     18  C   UNL     1      -1.651  -5.751  -9.213  0.00  0.00    +0.126 A 
ATOM     19  C   UNL     1      -0.695  -5.138 -10.001  0.00  0.00    +0.033 A 
ATOM     20  C   UNL     1       0.196  -4.244  -9.437  0.00  0.00    +0.008 A 
BRANCH  18  21
ATOM     21  N   UNL     1      -2.608  -6.705  -9.819  0.00  0.00    +0.056 N 
ATOM     22  O   UNL     1      -3.444  -7.241  -9.130  0.00  0.00    -0.126 OA
ATOM     23  O   UNL     1      -2.552  -6.948 -11.002  0.00  0.00    -0.126 OA
ENDBRANCH  18  21
ENDBRANCH  12  15
BRANCH   1  24
ATOM     24  S   UNL     1       0.001  -2.922  -0.731  0.00  0.00    +0.072 S 
ATOM     25  O   UNL     1       0.263  -4.300  -0.498  0.00  0.00    -0.150 OA
ATOM     26  O   UNL     1      -1.207  -2.297  -0.320  0.00  0.00    -0.150 OA
BRANCH  24  27
ATOM     27  N   UNL     1       1.236  -2.079  -0.021  0.00  0.00    -0.213 N 
ATOM     28  H   UNL     1       1.902  -2.547   0.507  0.00  0.00    +0.174 HD
BRANCH  27  33
ATOM     29  C   UNL     1       0.249   1.442  -0.402  0.00  0.00    +0.002 A 
ATOM     30  C   UNL     1       1.485   2.052  -0.505  0.00  0.00    +0.003 A 
ATOM     31  C   UNL     1       2.641   1.295  -0.447  0.00  0.00    +0.040 A 
ATOM     32  C   UNL     1       2.563  -0.076  -0.287  0.00  0.00    +0.146 A 
ATOM     33  C   UNL     1       1.320  -0.692  -0.183  0.00  0.00    +0.083 A 
ATOM     34  C   UNL     1       0.163   0.072  -0.242  0.00  0.00    +0.027 A 
ATOM     35  F   UNL     1       3.692  -0.817  -0.231  0.00  0.00    -0.204 F 
ENDBRANCH  27  33
ENDBRANCH  24  27
ENDBRANCH   1  24
TORSDOF 5
