REMARK  Name = ZINC63253471
REMARK  9 active torsions:
REMARK  status: ('A' for Active; 'I' for Inactive)
REMARK    1  A    between atoms: C_1  and  C_2
REMARK    2  A    between atoms: C_7  and  N_8
REMARK    3  A    between atoms: C_9  and  C_28
REMARK    4  A    between atoms: C_12  and  S_13
REMARK    5  A    between atoms: S_13  and  C_14
REMARK    6  A    between atoms: C_14  and  C_15
REMARK    7  A    between atoms: N_17  and  C_18
REMARK    8  A    between atoms: C_23  and  O_24
REMARK    9  A    between atoms: O_24  and  C_25
REMARK                            x       y       z     vdW  Elec       q    Type
REMARK                         _______ _______ _______ _____ _____    ______ ____
ROOT
ATOM      1  N   UNL     1       0.025   0.029   2.391  0.00  0.00    -0.270 N 
ATOM      2  C   UNL     1      -1.079   0.430   3.127  0.00  0.00    +0.168 A 
ATOM      3  N   UNL     1      -0.619   1.049   4.205  0.00  0.00    -0.128 NA
ATOM      4  N   UNL     1       0.666   1.058   4.187  0.00  0.00    -0.122 NA
ATOM      5  C   UNL     1       1.112   0.443   3.102  0.00  0.00    +0.197 A 
ENDROOT
BRANCH   2   6
ATOM      6  C   UNL     1      -2.425   0.220   2.794  0.00  0.00    +0.025 C 
ATOM      7  C   UNL     1      -3.546   0.622   3.521  0.00  0.00    +0.006 A 
ATOM      8  C   UNL     1      -3.692   1.320   4.739  0.00  0.00    +0.010 A 
ATOM      9  C   UNL     1      -4.935   1.579   5.221  0.00  0.00    +0.001 A 
ATOM     10  C   UNL     1      -6.084   1.172   4.540  0.00  0.00    +0.002 A 
ATOM     11  C   UNL     1      -6.018   0.498   3.365  0.00  0.00    +0.026 A 
ATOM     12  C   UNL     1      -4.754   0.191   2.798  0.00  0.00    +0.043 A 
ATOM     13  N   UNL     1      -4.427  -0.441   1.689  0.00  0.00    -0.380 N 
ATOM     14  C   UNL     1      -2.966  -0.483   1.568  0.00  0.00    +0.152 C 
ATOM     15  H   UNL     1      -5.053  -0.816   1.051  0.00  0.00    +0.160 HD
ENDBRANCH   2   6
BRANCH   1  22
ATOM     16  C   UNL     1       0.004   1.546  -0.017  0.00  0.00    +0.046 C 
ATOM     17  C   UNL     1       0.014   0.039  -0.025  0.00  0.00    -0.026 A 
ATOM     18  C   UNL     1       0.018  -0.646  -1.225  0.00  0.00    +0.005 A 
ATOM     19  C   UNL     1       0.028  -2.029  -1.233  0.00  0.00    +0.000 A 
ATOM     20  C   UNL     1       0.033  -2.730  -0.041  0.00  0.00    +0.002 A 
ATOM     21  C   UNL     1       0.028  -2.051   1.161  0.00  0.00    +0.026 A 
ATOM     22  C   UNL     1       0.024  -0.663   1.173  0.00  0.00    +0.053 A 
ENDBRANCH   1  22
BRANCH   5  23
ATOM     23  S   UNL     1       2.801   0.206   2.658  0.00  0.00    -0.076 S 
BRANCH  23  24
ATOM     24  C   UNL     1       3.724   0.983   4.012  0.00  0.00    +0.173 C 
BRANCH  24  25
ATOM     25  C   UNL     1       5.203   0.850   3.753  0.00  0.00    +0.228 C 
ATOM     26  O   UNL     1       5.595   0.287   2.753  0.00  0.00    -0.275 OA
ATOM     27  N   UNL     1       6.089   1.358   4.632  0.00  0.00    -0.282 N 
ATOM     28  H   UNL     1       5.777   1.864   5.398  0.00  0.00    +0.155 HD
BRANCH  27  29
ATOM     29  C   UNL     1       7.462   1.153   4.440  0.00  0.00    +0.076 A 
ATOM     30  C   UNL     1       7.987   1.114   3.156  0.00  0.00    +0.027 A 
ATOM     31  C   UNL     1       9.341   0.912   2.970  0.00  0.00    +0.002 A 
ATOM     32  C   UNL     1      10.176   0.749   4.059  0.00  0.00    +0.004 A 
ATOM     33  C   UNL     1       9.661   0.787   5.342  0.00  0.00    +0.048 A 
ATOM     34  C   UNL     1       8.305   0.995   5.538  0.00  0.00    +0.148 A 
BRANCH  34  35
ATOM     35  O   UNL     1       7.798   1.038   6.799  0.00  0.00    -0.432 OA
BRANCH  35  36
ATOM     36  C   UNL     1       8.721   0.867   7.876  0.00  0.00    +0.541 C 
ATOM     37  F   UNL     1       9.343  -0.381   7.764  0.00  0.00    -0.166 F 
ATOM     38  F   UNL     1       9.688   1.877   7.825  0.00  0.00    -0.166 F 
ENDBRANCH  35  36
ENDBRANCH  34  35
ENDBRANCH  27  29
ENDBRANCH  24  25
ENDBRANCH  23  24
ENDBRANCH   5  23
TORSDOF 8
