REMARK  Name = ZINC27696817
REMARK  9 active torsions:
REMARK  status: ('A' for Active; 'I' for Inactive)
REMARK    1  A    between atoms: C_10  and  C_11
REMARK    2  A    between atoms: C_11  and  C_12
REMARK    3  A    between atoms: N_20  and  C_21
REMARK    4  A    between atoms: C_21  and  C_22
REMARK    5  A    between atoms: C_22  and  C_24
REMARK    6  A    between atoms: C_22  and  O_38
REMARK    7  A    between atoms: C_24  and  N_25
REMARK    8  A    between atoms: N_25  and  C_26
REMARK    9  A    between atoms: N_25  and  C_32
REMARK                            x       y       z     vdW  Elec       q    Type
REMARK                         _______ _______ _______ _____ _____    ______ ____
ROOT
ATOM      1  C   UNL     1       2.063  -1.422  -0.237  0.00  0.00    +0.115 A 
ATOM      2  N   UNL     1       0.768  -1.303  -0.226  0.00  0.00    -0.232 NA
ATOM      3  C   UNL     1       0.430   0.007  -0.107  0.00  0.00    +0.089 A 
ATOM      4  C   UNL     1      -0.789   0.685  -0.040  0.00  0.00    +0.030 A 
ATOM      5  C   UNL     1      -0.805   2.046   0.077  0.00  0.00    +0.002 A 
ATOM      6  C   UNL     1       0.380   2.765   0.142  0.00  0.00    +0.002 A 
ATOM      7  C   UNL     1       1.595   2.116   0.083  0.00  0.00    +0.028 A 
ATOM      8  C   UNL     1       1.631   0.734  -0.042  0.00  0.00    +0.069 A 
ATOM      9  N   UNL     1       2.646  -0.197  -0.126  0.00  0.00    -0.325 N 
ENDROOT
BRANCH   1  10
ATOM     10  C   UNL     1       2.810  -2.725  -0.355  0.00  0.00    +0.110 C 
BRANCH  10  20
ATOM     11  C   UNL     1       0.148  -5.519   3.009  0.00  0.00    +0.001 A 
ATOM     12  C   UNL     1      -0.107  -5.011   1.736  0.00  0.00    +0.001 A 
ATOM     13  C   UNL     1       0.830  -4.280   1.072  0.00  0.00    +0.009 A 
ATOM     14  C   UNL     1       2.074  -4.032   1.676  0.00  0.00    -0.014 A 
ATOM     15  C   UNL     1       2.334  -4.549   2.970  0.00  0.00    -0.018 A 
ATOM     16  C   UNL     1       1.342  -5.299   3.624  0.00  0.00    +0.008 A 
ATOM     17  C   UNL     1       3.579  -4.302   3.574  0.00  0.00    +0.008 A 
ATOM     18  C   UNL     1       4.516  -3.571   2.909  0.00  0.00    +0.001 A 
ATOM     19  C   UNL     1       4.263  -3.069   1.634  0.00  0.00    +0.004 A 
ATOM     20  C   UNL     1       3.067  -3.283   1.021  0.00  0.00    -0.032 A 
ENDBRANCH  10  20
ENDBRANCH   1  10
BRANCH   9  21
ATOM     21  C   UNL     1       4.084   0.081  -0.101  0.00  0.00    +0.153 C 
BRANCH  21  22
ATOM     22  C   UNL     1       4.571   0.376  -1.522  0.00  0.00    +0.118 C 
BRANCH  22  23
ATOM     23  O   UNL     1       4.418  -0.793  -2.330  0.00  0.00    -0.392 OA
ATOM     24  H   UNL     1       4.717  -0.772  -3.388  0.00  0.00    +0.210 HD
ENDBRANCH  22  23
BRANCH  22  25
ATOM     25  C   UNL     1       6.047   0.778  -1.481  0.00  0.00    -0.045 C 
BRANCH  25  26
ATOM     26  N   UNL     1       6.500   1.113  -2.838  0.00  0.00    +0.385 N 
ATOM     27  H   UNL     1       5.881   0.547  -3.550  0.00  0.00    -0.081 HD
BRANCH  26  28
ATOM     28  C   UNL     1       6.316   2.543  -3.117  0.00  0.00    -0.068 C 
ATOM     29  C   UNL     1       7.208   3.364  -2.182  0.00  0.00    -0.015 C 
ATOM     30  C   UNL     1       7.016   4.854  -2.473  0.00  0.00    -0.002 C 
ATOM     31  C   UNL     1       5.552   5.234  -2.245  0.00  0.00    -0.000 C 
ATOM     32  C   UNL     1       4.661   4.413  -3.179  0.00  0.00    -0.002 C 
ATOM     33  C   UNL     1       4.852   2.923  -2.889  0.00  0.00    -0.015 C 
ENDBRANCH  26  28
BRANCH  26  34
ATOM     34  C   UNL     1       7.899   0.713  -3.039  0.00  0.00    -0.068 C 
ATOM     35  C   UNL     1       8.375   1.193  -4.412  0.00  0.00    -0.015 C 
ATOM     36  C   UNL     1       9.832   0.776  -4.621  0.00  0.00    -0.002 C 
ATOM     37  C   UNL     1       9.942  -0.748  -4.548  0.00  0.00    -0.000 C 
ATOM     38  C   UNL     1       9.466  -1.228  -3.175  0.00  0.00    -0.002 C 
ATOM     39  C   UNL     1       8.009  -0.812  -2.966  0.00  0.00    -0.015 C 
ENDBRANCH  26  34
ENDBRANCH  25  26
ENDBRANCH  22  25
ENDBRANCH  21  22
ENDBRANCH   9  21
TORSDOF 9
