REMARK  Name = ZINC21014346
REMARK  4 active torsions:
REMARK  status: ('A' for Active; 'I' for Inactive)
REMARK    1  A    between atoms: C_1  and  C_2
REMARK    2  A    between atoms: N_12  and  S_13
REMARK    3  A    between atoms: S_13  and  C_16
REMARK    4  A    between atoms: C_19  and  N_22
REMARK                            x       y       z     vdW  Elec       q    Type
REMARK                         _______ _______ _______ _____ _____    ______ ____
ROOT
ATOM      1  S   UNL     1      -2.754   0.368  -2.605  0.00  0.00    +0.075 S 
ATOM      2  O   UNL     1      -1.669   0.132  -3.492  0.00  0.00    -0.150 OA
ATOM      3  O   UNL     1      -3.645  -0.662  -2.200  0.00  0.00    -0.150 OA
ENDROOT
BRANCH   1  14
ATOM      4  C   UNL     1      -0.865   3.122  -1.180  0.00  0.00    +0.030 C 
ATOM      5  C   UNL     1      -0.760   1.597  -1.231  0.00  0.00    +0.095 C 
ATOM      6  C   UNL     1      -0.013   1.086   0.008  0.00  0.00    +0.029 C 
ATOM      7  C   UNL     1      -0.733   1.581   1.262  0.00  0.00    +0.039 C 
ATOM      8  C   UNL     1      -2.203   1.251   1.187  0.00  0.00    -0.025 A 
ATOM      9  C   UNL     1      -2.942   1.218   2.358  0.00  0.00    +0.005 A 
ATOM     10  C   UNL     1      -4.292   0.926   2.322  0.00  0.00    +0.000 A 
ATOM     11  C   UNL     1      -4.915   0.665   1.116  0.00  0.00    +0.002 A 
ATOM     12  C   UNL     1      -4.186   0.693  -0.056  0.00  0.00    +0.025 A 
ATOM     13  C   UNL     1      -2.826   0.984  -0.023  0.00  0.00    +0.055 A 
ATOM     14  N   UNL     1      -2.104   1.004  -1.221  0.00  0.00    -0.200 N 
ENDBRANCH   1  14
BRANCH   1  15
ATOM     15  C   UNL     1      -3.742   1.627  -3.343  0.00  0.00    +0.109 A 
ATOM     16  C   UNL     1      -5.081   1.734  -3.014  0.00  0.00    +0.030 A 
ATOM     17  C   UNL     1      -5.857   2.723  -3.586  0.00  0.00    +0.024 A 
ATOM     18  C   UNL     1      -5.293   3.603  -4.501  0.00  0.00    +0.025 A 
ATOM     19  C   UNL     1      -3.949   3.489  -4.833  0.00  0.00    +0.024 A 
ATOM     20  C   UNL     1      -3.178   2.502  -4.253  0.00  0.00    +0.030 A 
BRANCH  18  21
ATOM     21  N   UNL     1      -6.077   4.601  -5.086  0.00  0.00    -0.358 N 
ATOM     22  H   UNL     1      -5.629   5.298  -5.811  0.00  0.00    +0.142 HD
ATOM     23  H   UNL     1      -7.141   4.690  -4.822  0.00  0.00    +0.142 HD
ENDBRANCH  18  21
ENDBRANCH   1  15
TORSDOF 3
