REMARK  Name = ZINC20617594
REMARK  8 active torsions:
REMARK  status: ('A' for Active; 'I' for Inactive)
REMARK    1  A    between atoms: C_1  and  C_2
REMARK    2  A    between atoms: C_6  and  C_18
REMARK    3  A    between atoms: N_8  and  C_9
REMARK    4  A    between atoms: N_20  and  C_21
REMARK    5  A    between atoms: C_31  and  C_34
REMARK    6  A    between atoms: C_34  and  O_35
REMARK    7  A    between atoms: O_35  and  C_36
REMARK    8  A    between atoms: C_36  and  C_38
REMARK                            x       y       z     vdW  Elec       q    Type
REMARK                         _______ _______ _______ _____ _____    ______ ____
ROOT
ATOM      1  C   UNL     1      -0.226   4.877  -1.083  0.00  0.00    +0.069 C 
ATOM      2  C   UNL     1       1.037   5.589  -1.495  0.00  0.00    +0.081 A 
ATOM      3  C   UNL     1       2.261   5.165  -0.998  0.00  0.00    +0.159 A 
ATOM      4  C   UNL     1       3.427   5.844  -1.399  0.00  0.00    +0.028 A 
ATOM      5  C   UNL     1       4.730   5.409  -0.891  0.00  0.00    +0.030 A 
ATOM      6  C   UNL     1       4.784   4.189  -0.249  0.00  0.00    +0.098 A 
ATOM      7  C   UNL     1       3.522   3.428  -0.142  0.00  0.00    +0.212 A 
ATOM      8  N   UNL     1       3.531   2.117  -0.045  0.00  0.00    -0.323 N 
ATOM      9  O   UNL     1       2.353   4.120  -0.143  0.00  0.00    -0.437 OA
ATOM     10  C   UNL     1       3.303   6.925  -2.281  0.00  0.00    +0.018 A 
ATOM     11  C   UNL     1       2.043   7.274  -2.720  0.00  0.00    +0.118 A 
ATOM     12  N   UNL     1       0.972   6.611  -2.325  0.00  0.00    -0.256 NA
ATOM     13  H   UNL     1       4.487   1.579   0.037  0.00  0.00    +0.169 HD
ENDROOT
BRANCH   8  14
ATOM     14  C   UNL     1       2.352   1.423  -0.046  0.00  0.00    +0.078 A 
ATOM     15  C   UNL     1       1.747   1.067   1.162  0.00  0.00    +0.031 A 
ATOM     16  C   UNL     1       0.558   0.367   1.155  0.00  0.00    +0.040 A 
ATOM     17  C   UNL     1      -0.037   0.018  -0.046  0.00  0.00    +0.126 A 
ATOM     18  C   UNL     1       0.556   0.367  -1.248  0.00  0.00    +0.078 A 
ATOM     19  C   UNL     1       1.747   1.068  -1.256  0.00  0.00    +0.149 A 
ATOM     20  F   UNL     1       2.325   1.408  -2.428  0.00  0.00    -0.203 F 
ATOM     21  F   UNL     1      -1.202  -0.667  -0.046  0.00  0.00    -0.205 F 
ENDBRANCH   8  14
BRANCH   6  22
ATOM     22  C   UNL     1       6.045   3.665   0.305  0.00  0.00    +0.253 C 
ATOM     23  O   UNL     1       7.069   4.313   0.204  0.00  0.00    -0.270 OA
ATOM     24  N   UNL     1       6.064   2.468   0.924  0.00  0.00    -0.281 N 
ATOM     25  H   UNL     1       5.155   1.849   0.951  0.00  0.00    +0.155 HD
BRANCH  24  26
ATOM     26  C   UNL     1       7.236   2.014   1.529  0.00  0.00    +0.041 A 
ATOM     27  C   UNL     1       8.464   2.308   0.976  0.00  0.00    +0.024 A 
ATOM     28  C   UNL     1       9.639   1.865   1.575  0.00  0.00    +0.002 A 
ATOM     29  C   UNL     1       9.609   1.120   2.715  0.00  0.00    +0.008 A 
ATOM     30  C   UNL     1       8.378   0.793   3.307  0.00  0.00    -0.016 A 
ATOM     31  C   UNL     1       7.175   1.244   2.710  0.00  0.00    +0.003 A 
ATOM     32  C   UNL     1       5.946   0.917   3.304  0.00  0.00    +0.010 A 
ATOM     33  C   UNL     1       5.924   0.172   4.443  0.00  0.00    +0.001 A 
ATOM     34  C   UNL     1       7.107  -0.273   5.031  0.00  0.00    +0.001 A 
ATOM     35  C   UNL     1       8.317   0.026   4.484  0.00  0.00    +0.008 A 
ENDBRANCH  24  26
ENDBRANCH   6  22
BRANCH  10  36
ATOM     36  C   UNL     1       4.519   7.688  -2.740  0.00  0.00    +0.269 C 
BRANCH  36  37
ATOM     37  O   UNL     1       4.111   8.750  -3.643  0.00  0.00    -0.460 OA
BRANCH  37  38
ATOM     38  C   UNL     1       5.082   9.528  -4.145  0.00  0.00    +0.304 C 
ATOM     39  O   UNL     1       6.234   9.330  -3.841  0.00  0.00    -0.251 OA
ATOM     40  C   UNL     1       4.735  10.651  -5.089  0.00  0.00    +0.136 C 
ENDBRANCH  37  38
ENDBRANCH  36  37
ENDBRANCH  10  36
TORSDOF 6
