REMARK  Name = ZINC15018596
REMARK  10 active torsions:
REMARK  status: ('A' for Active; 'I' for Inactive)
REMARK    1  A    between atoms: C_1  and  C_2
REMARK    2  A    between atoms: C_2  and  O_3
REMARK    3  A    between atoms: O_3  and  C_4
REMARK    4  A    between atoms: C_7  and  C_10
REMARK    5  A    between atoms: C_12  and  C_33
REMARK    6  A    between atoms: C_13  and  C_32
REMARK    7  A    between atoms: C_20  and  C_21
REMARK    8  A    between atoms: C_33  and  O_35
REMARK    9  A    between atoms: O_35  and  C_36
REMARK   10  A    between atoms: C_36  and  C_37
REMARK                            x       y       z     vdW  Elec       q    Type
REMARK                         _______ _______ _______ _____ _____    ______ ____
ROOT
ATOM      1  C   UNL     1      -6.387   5.298  -0.469  0.00  0.00    +0.162 C 
ATOM      2  C   UNL     1      -7.808   4.808  -0.309  0.00  0.00    +0.085 C 
ATOM      3  C   UNL     1      -8.014   3.463  -0.171  0.00  0.00    +0.053 C 
ATOM      4  N   UNL     1      -6.989   2.619  -0.179  0.00  0.00    -0.228 NA
ATOM      5  C   UNL     1      -5.737   2.970  -0.313  0.00  0.00    +0.178 A 
ATOM      6  N   UNL     1      -5.309   4.270  -0.465  0.00  0.00    -0.275 N 
ATOM      7  C   UNL     1      -3.996   4.494  -0.586  0.00  0.00    +0.268 A 
ATOM      8  O   UNL     1      -3.574   5.630  -0.716  0.00  0.00    -0.266 OA
ATOM      9  C   UNL     1      -3.097   3.393  -0.567  0.00  0.00    +0.081 A 
ATOM     10  C   UNL     1      -1.739   3.384  -0.677  0.00  0.00    +0.030 C 
ATOM     11  S   UNL     1      -4.226   2.026  -0.351  0.00  0.00    -0.046 S 
ATOM     12  C   UNL     1      -9.416   2.935  -0.008  0.00  0.00    +0.066 C 
ENDROOT
BRANCH  10  13
ATOM     13  C   UNL     1      -1.026   2.116  -0.822  0.00  0.00    +0.001 A 
ATOM     14  C   UNL     1      -1.521   0.865  -0.575  0.00  0.00    +0.091 A 
ATOM     15  N   UNL     1      -0.561  -0.062  -0.820  0.00  0.00    -0.360 N 
ATOM     16  H   UNL     1      -0.677  -1.020  -0.714  0.00  0.00    +0.165 HD
ATOM     17  C   UNL     1       0.600   0.548  -1.248  0.00  0.00    +0.047 A 
ATOM     18  C   UNL     1       0.368   1.932  -1.270  0.00  0.00    +0.007 A 
ATOM     19  C   UNL     1       1.378   2.804  -1.666  0.00  0.00    +0.010 A 
ATOM     20  C   UNL     1       2.607   2.301  -2.037  0.00  0.00    +0.001 A 
ATOM     21  C   UNL     1       2.838   0.934  -2.015  0.00  0.00    +0.002 A 
ATOM     22  C   UNL     1       1.847   0.060  -1.625  0.00  0.00    +0.026 A 
ENDBRANCH  10  13
BRANCH   1  26
ATOM     23  C   UNL     1      -6.146   7.439  -4.160  0.00  0.00    +0.121 A 
ATOM     24  C   UNL     1      -6.419   8.117  -2.980  0.00  0.00    +0.046 A 
ATOM     25  C   UNL     1      -6.497   7.422  -1.788  0.00  0.00    +0.009 A 
ATOM     26  C   UNL     1      -6.302   6.053  -1.771  0.00  0.00    -0.020 A 
ATOM     27  C   UNL     1      -6.024   5.377  -2.944  0.00  0.00    +0.009 A 
ATOM     28  C   UNL     1      -5.952   6.066  -4.139  0.00  0.00    +0.046 A 
BRANCH  23  29
ATOM     29  O   UNL     1      -6.070   8.120  -5.333  0.00  0.00    -0.492 OA
BRANCH  29  31
ATOM     30  C   UNL     1      -5.740   8.289  -7.721  0.00  0.00    +0.048 C 
ATOM     31  C   UNL     1      -5.786   7.358  -6.508  0.00  0.00    +0.225 C 
ENDBRANCH  29  31
ENDBRANCH  23  29
ENDBRANCH   1  26
BRANCH   2  32
ATOM     32  C   UNL     1      -8.885   5.707  -0.301  0.00  0.00    +0.339 C 
ATOM     33  O   UNL     1     -10.028   5.288  -0.275  0.00  0.00    -0.245 OA
BRANCH  32  34
ATOM     34  O   UNL     1      -8.654   7.038  -0.323  0.00  0.00    -0.462 OA
BRANCH  34  35
ATOM     35  C   UNL     1      -9.797   7.895  -0.314  0.00  0.00    +0.229 C 
ATOM     36  C   UNL     1      -9.341   9.355  -0.341  0.00  0.00    +0.048 C 
ENDBRANCH  34  35
ENDBRANCH  32  34
ENDBRANCH   2  32
TORSDOF 7
