REMARK  Name = ZINC34830438
REMARK  7 active torsions:
REMARK  status: ('A' for Active; 'I' for Inactive)
REMARK    1  A    between atoms: C_1  and  C_2
REMARK    2  A    between atoms: C_7  and  C_8
REMARK    3  A    between atoms: N_17  and  C_18
REMARK    4  A    between atoms: C_18  and  C_20
REMARK    5  A    between atoms: C_18  and  C_21
REMARK    6  A    between atoms: C_30  and  C_32
REMARK    7  A    between atoms: C_35  and  C_37
REMARK                            x       y       z     vdW  Elec       q    Type
REMARK                         _______ _______ _______ _____ _____    ______ ____
ROOT
ATOM      1  C   UNL     1      -2.263  -1.788   4.055  0.00  0.00    +0.202 C 
ATOM      2  O   UNL     1      -1.907  -2.034   5.188  0.00  0.00    -0.277 OA
ATOM      3  N   UNL     1      -3.495  -2.146   3.643  0.00  0.00    -0.301 N 
ATOM      4  C   UNL     1      -4.442  -2.712   4.540  0.00  0.00    +0.109 C 
ATOM      5  C   UNL     1      -4.295  -4.254   4.754  0.00  0.00    +0.038 C 
ATOM      6  C   UNL     1      -3.912  -4.880   3.374  0.00  0.00    +0.109 C 
ATOM      7  N   UNL     1      -4.559  -4.289   2.255  0.00  0.00    -0.300 N 
ATOM      8  C   UNL     1      -3.811  -3.236   1.521  0.00  0.00    +0.126 C 
ATOM      9  C   UNL     1      -3.926  -1.962   2.233  0.00  0.00    +0.126 C 
ATOM     10  C   UNL     1      -5.796  -4.667   1.876  0.00  0.00    +0.219 C 
ATOM     11  O   UNL     1      -6.382  -5.530   2.495  0.00  0.00    -0.275 OA
ENDROOT
BRANCH  10  12
ATOM     12  C   UNL     1      -6.451  -4.017   0.685  0.00  0.00    +0.083 C 
ATOM     13  C   UNL     1      -7.656  -3.112   0.947  0.00  0.00    +0.022 C 
ATOM     14  C   UNL     1      -7.856  -4.488   0.307  0.00  0.00    +0.032 C 
BRANCH  14  15
ATOM     15  C   UNL     1      -8.206  -4.530  -1.159  0.00  0.00    -0.044 A 
ATOM     16  C   UNL     1      -8.155  -3.373  -1.914  0.00  0.00    +0.004 A 
ATOM     17  C   UNL     1      -8.476  -3.412  -3.259  0.00  0.00    +0.000 A 
ATOM     18  C   UNL     1      -8.847  -4.606  -3.847  0.00  0.00    +0.000 A 
ATOM     19  C   UNL     1      -8.897  -5.763  -3.091  0.00  0.00    +0.000 A 
ATOM     20  C   UNL     1      -8.572  -5.725  -1.748  0.00  0.00    +0.004 A 
ENDBRANCH  14  15
ENDBRANCH  10  12
BRANCH   1  21
ATOM     21  C   UNL     1      -1.328  -1.080   3.108  0.00  0.00    +0.018 C 
ATOM     22  C   UNL     1      -0.696  -2.100   2.159  0.00  0.00    -0.004 C 
BRANCH  21  31
ATOM     23  C   UNL     1      -0.890   0.485   4.866  0.00  0.00    -0.005 C 
ATOM     24  C   UNL     1       0.208   1.103   5.726  0.00  0.00    -0.047 A 
ATOM     25  C   UNL     1       0.045   2.258   6.486  0.00  0.00    +0.010 A 
ATOM     26  C   UNL     1       1.078   2.738   7.218  0.00  0.00    +0.045 A 
ATOM     27  S   UNL     1       2.365   1.550   6.862  0.00  0.00    -0.101 S 
ATOM     28  C   UNL     1       1.435   0.511   5.773  0.00  0.00    -0.010 A 
ATOM     29  C   UNL     1       1.849  -0.731   5.054  0.00  0.00    +0.024 C 
ATOM     30  C   UNL     1       0.572  -1.412   4.532  0.00  0.00    -0.071 C 
ATOM     31  N   UNL     1      -0.273  -0.405   3.875  0.00  0.00    +0.395 N 
ATOM     32  H   UNL     1       0.295   0.143   3.245  0.00  0.00    -0.079 HD
BRANCH  23  39
ATOM     33  C   UNL     1      -3.432   1.378   5.911  0.00  0.00    +0.044 C 
ATOM     34  C   UNL     1      -2.869   2.003   4.660  0.00  0.00    -0.049 A 
ATOM     35  C   UNL     1      -3.567   3.007   4.016  0.00  0.00    +0.003 A 
ATOM     36  C   UNL     1      -3.052   3.581   2.868  0.00  0.00    +0.000 A 
ATOM     37  C   UNL     1      -1.838   3.150   2.365  0.00  0.00    +0.000 A 
ATOM     38  C   UNL     1      -1.140   2.146   3.010  0.00  0.00    +0.002 A 
ATOM     39  C   UNL     1      -1.654   1.575   4.160  0.00  0.00    -0.054 A 
ENDBRANCH  23  39
ENDBRANCH  21  31
ENDBRANCH   1  21
TORSDOF 5
