REMARK  Name = ZINC39606560
REMARK  10 active torsions:
REMARK  status: ('A' for Active; 'I' for Inactive)
REMARK    1  A    between atoms: C_1  and  C_2
REMARK    2  A    between atoms: C_2  and  C_3
REMARK    3  A    between atoms: C_3  and  C_5
REMARK    4  A    between atoms: C_3  and  C_6
REMARK    5  A    between atoms: C_6  and  N_7
REMARK    6  A    between atoms: C_8  and  C_10
REMARK    7  A    between atoms: C_21  and  C_23
REMARK    8  A    between atoms: C_29  and  O_31
REMARK    9  A    between atoms: O_31  and  C_32
REMARK   10  A    between atoms: C_32  and  C_33
REMARK                            x       y       z     vdW  Elec       q    Type
REMARK                         _______ _______ _______ _____ _____    ______ ____
ROOT
ATOM      1  C   UNL     1       1.840  -4.281  -4.174  0.00  0.00    +0.100 C 
ATOM      2  C   UNL     1       3.307  -3.813  -4.295  0.00  0.00    +0.121 C 
ATOM      3  N   UNL     1       4.107  -4.957  -3.796  0.00  0.00    -0.300 N 
ATOM      4  C   UNL     1       3.410  -6.153  -4.326  0.00  0.00    +0.115 C 
ATOM      5  C   UNL     1       1.911  -5.817  -4.198  0.00  0.00    -0.004 C 
ATOM      6  C   UNL     1       1.143  -6.363  -5.398  0.00  0.00    -0.010 C 
ATOM      7  C   UNL     1       1.180  -7.894  -5.368  0.00  0.00    -0.082 C 
ATOM      8  N   UNL     1       0.580  -8.375  -4.117  0.00  0.00    +0.379 N 
ATOM      9  C   UNL     1       1.379  -7.922  -2.972  0.00  0.00    -0.082 C 
ATOM     10  C   UNL     1       1.351  -6.393  -2.901  0.00  0.00    -0.010 C 
ATOM     11  C   UNL     1       5.218  -4.917  -3.033  0.00  0.00    +0.219 C 
ATOM     12  O   UNL     1       5.764  -5.949  -2.704  0.00  0.00    -0.275 OA
ATOM     13  H   UNL     1      -0.358  -8.014  -4.035  0.00  0.00    -0.086 HD
ATOM     14  H   UNL     1       0.550  -9.384  -4.127  0.00  0.00    -0.086 HD
ENDROOT
BRANCH  11  15
ATOM     15  C   UNL     1       5.780  -3.591  -2.590  0.00  0.00    +0.078 C 
ATOM     16  C   UNL     1       6.145  -2.755  -3.818  0.00  0.00    +0.032 C 
ATOM     17  C   UNL     1       6.684  -1.395  -3.364  0.00  0.00    +0.112 C 
ATOM     18  N   UNL     1       7.798  -1.616  -2.432  0.00  0.00    -0.267 N 
ATOM     19  C   UNL     1       7.582  -2.479  -1.264  0.00  0.00    +0.112 C 
ATOM     20  C   UNL     1       7.032  -3.827  -1.742  0.00  0.00    +0.032 C 
ATOM     21  C   UNL     1       8.997  -1.037  -2.646  0.00  0.00    +0.403 C 
ATOM     22  O   UNL     1       9.164  -0.326  -3.617  0.00  0.00    -0.226 OA
BRANCH  21  23
ATOM     23  O   UNL     1      10.009  -1.248  -1.784  0.00  0.00    -0.445 OA
BRANCH  23  24
ATOM     24  C   UNL     1      11.252  -0.604  -2.072  0.00  0.00    +0.269 C 
BRANCH  24  25
ATOM     25  C   UNL     1      12.258  -0.953  -1.007  0.00  0.00    -0.010 A 
ATOM     26  C   UNL     1      12.370  -0.165   0.123  0.00  0.00    +0.007 A 
ATOM     27  C   UNL     1      13.294  -0.486   1.101  0.00  0.00    +0.000 A 
ATOM     28  C   UNL     1      14.104  -1.595   0.949  0.00  0.00    +0.000 A 
ATOM     29  C   UNL     1      13.992  -2.384  -0.181  0.00  0.00    +0.000 A 
ATOM     30  C   UNL     1      13.066  -2.066  -1.157  0.00  0.00    +0.007 A 
ENDBRANCH  24  25
ENDBRANCH  23  24
ENDBRANCH  21  23
ENDBRANCH  11  15
BRANCH   1  32
ATOM     31  N   UNL     1      -0.083  -3.580  -2.784  0.00  0.00    -0.315 N 
ATOM     32  C   UNL     1       1.243  -3.804  -2.875  0.00  0.00    +0.218 C 
ATOM     33  O   UNL     1       1.956  -3.622  -1.911  0.00  0.00    -0.275 OA
ATOM     34  H   UNL     1      -0.653  -3.727  -3.555  0.00  0.00    +0.149 HD
BRANCH  31  35
ATOM     35  C   UNL     1      -0.663  -3.117  -1.521  0.00  0.00    +0.107 C 
BRANCH  35  36
ATOM     36  C   UNL     1      -2.174  -2.943  -1.688  0.00  0.00    +0.003 C 
ATOM     37  C   UNL     1      -2.451  -1.825  -2.695  0.00  0.00    +0.009 C 
BRANCH  36  39
ATOM     38  C   UNL     1      -4.320  -2.527  -0.478  0.00  0.00    +0.004 C 
ATOM     39  C   UNL     1      -2.797  -2.579  -0.339  0.00  0.00    +0.001 C 
ENDBRANCH  36  39
ENDBRANCH  35  36
ENDBRANCH  31  35
ENDBRANCH   1  32
TORSDOF 8
