REMARK  Name = ZINC18196969
REMARK  4 active torsions:
REMARK  status: ('A' for Active; 'I' for Inactive)
REMARK    1  A    between atoms: C_4  and  O_30
REMARK    2  A    between atoms: C_5  and  C_7
REMARK    3  A    between atoms: C_14  and  O_15
REMARK    4  A    between atoms: C_22  and  C_25
REMARK                            x       y       z     vdW  Elec       q    Type
REMARK                         _______ _______ _______ _____ _____    ______ ____
ROOT
ATOM      1  C   UNL     1      -0.013   1.086   0.008  0.00  0.00    +0.096 C 
ATOM      2  C   UNL     1      -0.721   1.569   1.241  0.00  0.00    +0.067 A 
ATOM      3  C   UNL     1      -0.218   2.567   2.033  0.00  0.00    +0.126 A 
ATOM      4  N   UNL     1      -1.085   2.766   3.044  0.00  0.00    -0.260 N 
ATOM      5  H   UNL     1      -0.988   3.435   3.781  0.00  0.00    +0.190 HD
ATOM      6  N   UNL     1      -2.150   1.866   2.878  0.00  0.00    -0.134 NA
ATOM      7  C   UNL     1      -1.927   1.152   1.797  0.00  0.00    +0.237 A 
ATOM      8  N   UNL     1       0.990   3.187   1.737  0.00  0.00    -0.303 N 
ATOM      9  C   UNL     1       1.825   2.590   0.826  0.00  0.00    +0.017 C 
ATOM     10  C   UNL     1       1.408   1.609  -0.003  0.00  0.00    +0.024 C 
ATOM     11  C   UNL     1       2.290   1.022  -0.928  0.00  0.00    +0.162 C 
ATOM     12  O   UNL     1       1.886   0.135  -1.654  0.00  0.00    -0.292 OA
ATOM     13  C   UNL     1       3.721   1.468  -1.040  0.00  0.00    +0.088 C 
ATOM     14  C   UNL     1       3.813   2.941  -0.627  0.00  0.00    +0.039 C 
ATOM     15  C   UNL     1       3.255   3.079   0.790  0.00  0.00    +0.060 C 
ATOM     16  H   UNL     1       1.238   4.021   2.165  0.00  0.00    +0.153 HD
ENDROOT
BRANCH   1  21
ATOM     17  C   UNL     1      -1.554   3.399  -2.547  0.00  0.00    +0.001 A 
ATOM     18  C   UNL     1      -2.074   2.500  -3.460  0.00  0.00    +0.004 A 
ATOM     19  C   UNL     1      -1.929   1.142  -3.253  0.00  0.00    +0.046 A 
ATOM     20  C   UNL     1      -1.256   0.680  -2.131  0.00  0.00    +0.121 A 
ATOM     21  C   UNL     1      -0.740   1.584  -1.214  0.00  0.00    +0.006 A 
ATOM     22  C   UNL     1      -0.887   2.942  -1.426  0.00  0.00    +0.008 A 
BRANCH  20  23
ATOM     23  O   UNL     1      -1.108  -0.655  -1.928  0.00  0.00    -0.506 OA
ATOM     24  H   UNL     1      -1.827  -1.058  -1.423  0.00  0.00    +0.292 HD
ENDBRANCH  20  23
ENDBRANCH   1  21
BRANCH  14  25
ATOM     25  C   UNL     1       5.253   3.386  -0.651  0.00  0.00    -0.006 A 
ATOM     26  C   UNL     1       5.832   4.366  -1.388  0.00  0.00    +0.011 A 
ATOM     27  C   UNL     1       7.185   4.604  -1.242  0.00  0.00    +0.008 A 
ATOM     28  C   UNL     1       7.897   3.843  -0.374  0.00  0.00    +0.045 A 
ATOM     29  S   UNL     1       6.641   2.754   0.277  0.00  0.00    -0.101 S 
ENDBRANCH  14  25
BRANCH   7  30
ATOM     30  O   UNL     1      -2.735   0.174   1.306  0.00  0.00    -0.491 OA
ATOM     31  H   UNL     1      -3.536   0.076   1.897  0.00  0.00    +0.294 HD
ENDBRANCH   7  30
TORSDOF 4
