REMARK  Name = ZINC14461536
REMARK  7 active torsions:
REMARK  status: ('A' for Active; 'I' for Inactive)
REMARK    1  A    between atoms: C_1  and  C_2
REMARK    2  A    between atoms: C_2  and  N_3
REMARK    3  A    between atoms: N_3  and  C_4
REMARK    4  A    between atoms: N_3  and  C_6
REMARK    5  A    between atoms: C_4  and  C_5
REMARK    6  A    between atoms: C_9  and  C_12
REMARK    7  A    between atoms: C_22  and  N_29
REMARK                            x       y       z     vdW  Elec       q    Type
REMARK                         _______ _______ _______ _____ _____    ______ ____
ROOT
ATOM      1  C   UNL     1      -0.882  -7.217   1.350  0.00  0.00    +0.105 C 
ATOM      2  C   UNL     1      -2.211  -7.776   0.871  0.00  0.00    +0.029 C 
ATOM      3  C   UNL     1      -2.370  -8.010  -0.637  0.00  0.00    +0.033 C 
ATOM      4  C   UNL     1      -3.362  -9.174  -0.664  0.00  0.00    -0.030 C 
ATOM      5  C   UNL     1      -3.275  -9.872   0.462  0.00  0.00    -0.023 C 
ATOM      6  C   UNL     1      -2.229  -9.262   1.338  0.00  0.00    +0.051 C 
ATOM      7  C   UNL     1      -2.309  -9.272   2.815  0.00  0.00    +0.014 A 
ATOM      8  C   UNL     1      -3.010 -10.234   3.512  0.00  0.00    +0.132 A 
ATOM      9  C   UNL     1      -3.045 -10.209   4.893  0.00  0.00    +0.036 A 
ATOM     10  C   UNL     1      -2.373  -9.217   5.584  0.00  0.00    +0.042 A 
ATOM     11  C   UNL     1      -1.672  -8.246   4.896  0.00  0.00    +0.145 A 
ATOM     12  C   UNL     1      -1.637  -8.258   3.505  0.00  0.00    +0.069 A 
ATOM     13  N   UNL     1      -0.945  -7.243   2.827  0.00  0.00    -0.334 N 
ATOM     14  F   UNL     1      -1.017  -7.280   5.577  0.00  0.00    -0.204 F 
ATOM     15  H   UNL     1      -0.503  -6.545   3.335  0.00  0.00    +0.147 HD
ENDROOT
BRANCH   1  19
ATOM     16  C   UNL     1      -0.385  -3.208  -0.037  0.00  0.00    +0.013 A 
ATOM     17  C   UNL     1       0.272  -4.245  -0.672  0.00  0.00    +0.022 A 
ATOM     18  C   UNL     1       0.111  -5.543  -0.223  0.00  0.00    +0.007 A 
ATOM     19  C   UNL     1      -0.706  -5.802   0.861  0.00  0.00    -0.027 A 
ATOM     20  C   UNL     1      -1.363  -4.765   1.496  0.00  0.00    +0.007 A 
ATOM     21  C   UNL     1      -1.198  -3.467   1.050  0.00  0.00    +0.022 A 
BRANCH  16  22
ATOM     22  N   UNL     1      -0.222  -1.895  -0.491  0.00  0.00    -0.394 NA
ATOM     23  H   UNL     1      -0.765  -1.270   0.085  0.00  0.00    +0.126 HD
BRANCH  22  25
ATOM     24  C   UNL     1       1.633  -1.475   1.051  0.00  0.00    +0.022 C 
ATOM     25  C   UNL     1       1.197  -1.523  -0.415  0.00  0.00    +0.081 C 
ENDBRANCH  22  25
BRANCH  22  26
ATOM     26  C   UNL     1      -0.679  -1.799  -1.884  0.00  0.00    +0.081 C 
ATOM     27  C   UNL     1      -2.176  -2.106  -1.952  0.00  0.00    +0.022 C 
ENDBRANCH  22  26
ENDBRANCH  16  22
ENDBRANCH   1  19
BRANCH   8  28
ATOM     28  N   UNL     1      -3.730 -11.298   2.776  0.00  0.00    +0.057 N 
ATOM     29  O   UNL     1      -4.901 -11.499   2.997  0.00  0.00    -0.126 OA
ATOM     30  O   UNL     1      -3.146 -11.965   1.954  0.00  0.00    -0.126 OA
ENDBRANCH   8  28
TORSDOF 5
