REMARK  Name = ZINC36614493
REMARK  14 active torsions:
REMARK  status: ('A' for Active; 'I' for Inactive)
REMARK    1  A    between atoms: C_1  and  C_2
REMARK    2  A    between atoms: C_2  and  O_3
REMARK    3  A    between atoms: O_3  and  C_4
REMARK    4  A    between atoms: C_6  and  C_11
REMARK    5  A    between atoms: C_9  and  O_10
REMARK    6  A    between atoms: C_19  and  O_39
REMARK    7  A    between atoms: C_23  and  C_25
REMARK    8  A    between atoms: C_26  and  C_27
REMARK    9  A    between atoms: C_29  and  O_37
REMARK   10  A    between atoms: C_30  and  O_35
REMARK   11  A    between atoms: C_31  and  O_33
REMARK   12  A    between atoms: O_33  and  C_34
REMARK   13  A    between atoms: O_35  and  C_36
REMARK   14  A    between atoms: O_37  and  C_38
REMARK                            x       y       z     vdW  Elec       q    Type
REMARK                         _______ _______ _______ _____ _____    ______ ____
ROOT
ATOM      1  C   UNL     1      -0.218  -4.961   0.473  0.00  0.00    +0.112 C 
ATOM      2  C   UNL     1      -1.625  -5.385   0.040  0.00  0.00    +0.046 C 
ATOM      3  C   UNL     1      -2.466  -4.134  -0.226  0.00  0.00    +0.008 C 
ATOM      4  C   UNL     1      -3.870  -4.546  -0.671  0.00  0.00    +0.001 C 
ATOM      5  C   UNL     1      -3.774  -5.376  -1.953  0.00  0.00    +0.003 C 
ATOM      6  C   UNL     1      -2.938  -6.629  -1.686  0.00  0.00    +0.035 C 
ATOM      7  C   UNL     1      -1.532  -6.226  -1.234  0.00  0.00    +0.072 C 
ATOM      8  C   UNL     1      -0.706  -7.486  -0.957  0.00  0.00    +0.054 C 
ATOM      9  C   UNL     1       0.711  -7.083  -0.538  0.00  0.00    +0.111 C 
ATOM     10  N   UNL     1       0.624  -6.158   0.597  0.00  0.00    -0.290 N 
ATOM     11  C   UNL     1       1.299  -6.408   1.737  0.00  0.00    +0.240 C 
ATOM     12  O   UNL     1       2.067  -7.351   1.795  0.00  0.00    -0.271 OA
ENDROOT
BRANCH   1  15
ATOM     13  C   UNL     1       0.326  -1.952  -1.746  0.00  0.00    +0.162 A 
ATOM     14  C   UNL     1      -0.213  -2.804  -0.796  0.00  0.00    +0.055 A 
ATOM     15  C   UNL     1       0.370  -4.035  -0.560  0.00  0.00    -0.023 A 
ATOM     16  C   UNL     1       1.493  -4.418  -1.271  0.00  0.00    +0.009 A 
ATOM     17  C   UNL     1       2.037  -3.572  -2.220  0.00  0.00    +0.049 A 
ATOM     18  C   UNL     1       1.453  -2.340  -2.465  0.00  0.00    +0.158 A 
BRANCH  18  19
ATOM     19  O   UNL     1       1.983  -1.509  -3.402  0.00  0.00    -0.503 OA
ATOM     20  H   UNL     1       2.655  -0.905  -3.057  0.00  0.00    +0.292 HD
ENDBRANCH  18  19
BRANCH  13  21
ATOM     21  O   UNL     1      -0.247  -0.741  -1.978  0.00  0.00    -0.489 OA
BRANCH  21  23
ATOM     22  C   UNL     1      -1.901   0.981  -1.602  0.00  0.00    +0.048 C 
ATOM     23  C   UNL     1      -1.400  -0.409  -1.203  0.00  0.00    +0.226 C 
ENDBRANCH  21  23
ENDBRANCH  13  21
ENDBRANCH   1  15
BRANCH  11  24
ATOM     24  C   UNL     1       1.107  -5.548   2.904  0.00  0.00    +0.068 C 
ATOM     25  C   UNL     1       1.859  -5.734   4.010  0.00  0.00    +0.013 C 
BRANCH  25  26
ATOM     26  C   UNL     1       1.666  -4.869   5.183  0.00  0.00    -0.018 A 
ATOM     27  C   UNL     1       0.701  -3.857   5.157  0.00  0.00    +0.057 A 
ATOM     28  C   UNL     1       0.522  -3.046   6.262  0.00  0.00    +0.166 A 
ATOM     29  C   UNL     1       1.302  -3.235   7.400  0.00  0.00    +0.204 A 
ATOM     30  C   UNL     1       2.265  -4.242   7.429  0.00  0.00    +0.166 A 
ATOM     31  C   UNL     1       2.444  -5.060   6.331  0.00  0.00    +0.057 A 
BRANCH  30  32
ATOM     32  O   UNL     1       3.025  -4.423   8.543  0.00  0.00    -0.491 OA
ATOM     33  C   UNL     1       3.992  -5.473   8.504  0.00  0.00    +0.277 C 
ENDBRANCH  30  32
BRANCH  29  34
ATOM     34  O   UNL     1       1.125  -2.436   8.485  0.00  0.00    -0.488 OA
ATOM     35  C   UNL     1       0.174  -2.868   9.460  0.00  0.00    +0.277 C 
ENDBRANCH  29  34
BRANCH  28  36
ATOM     36  O   UNL     1      -0.415  -2.061   6.238  0.00  0.00    -0.491 OA
ATOM     37  C   UNL     1      -1.179  -1.923   5.038  0.00  0.00    +0.277 C 
ENDBRANCH  28  36
ENDBRANCH  25  26
ENDBRANCH  11  24
BRANCH   7  38
ATOM     38  O   UNL     1      -0.906  -5.461  -2.266  0.00  0.00    -0.388 OA
ATOM     39  H   UNL     1      -0.813  -5.933  -3.105  0.00  0.00    +0.210 HD
ENDBRANCH   7  38
TORSDOF 10
