REMARK  Name = ZINC67173840
REMARK  2 active torsions:
REMARK  status: ('A' for Active; 'I' for Inactive)
REMARK    1  A    between atoms: C_1  and  C_2
REMARK    2  A    between atoms: C_9  and  C_12
REMARK                            x       y       z     vdW  Elec       q    Type
REMARK                         _______ _______ _______ _____ _____    ______ ____
ROOT
ATOM      1  C   UNL     1      -0.018   1.503   0.010  0.00  0.00    +0.046 C 
ATOM      2  C   UNL     1       0.002  -0.004   0.002  0.00  0.00    -0.023 A 
ATOM      3  C   UNL     1       0.006  -0.680  -1.179  0.00  0.00    +0.025 A 
ATOM      4  C   UNL     1       0.024  -2.074  -1.209  0.00  0.00    +0.042 A 
ATOM      5  C   UNL     1       0.039  -2.798  -0.054  0.00  0.00    +0.030 A 
ATOM      6  C   UNL     1       0.036  -2.134   1.182  0.00  0.00    +0.002 A 
ATOM      7  C   UNL     1       0.023  -0.716   1.215  0.00  0.00    +0.075 A 
ATOM      8  N   UNL     1       0.026  -0.076   2.387  0.00  0.00    -0.243 NA
ATOM      9  C   UNL     1       0.045  -0.738   3.528  0.00  0.00    +0.109 A 
ATOM     10  C   UNL     1       0.065  -2.142   3.562  0.00  0.00    +0.032 A 
ATOM     11  C   UNL     1       0.051  -2.848   2.396  0.00  0.00    +0.012 A 
ATOM     12 CL   UNL     1       0.028  -2.898  -2.737  0.00  0.00    -0.084 Cl
ENDROOT
BRANCH   9  13
ATOM     13  C   UNL     1       0.048   0.018   4.804  0.00  0.00    +0.189 A 
ATOM     14  N   UNL     1       0.025   1.340   4.814  0.00  0.00    -0.203 NA
ATOM     15  C   UNL     1       0.029   1.944   5.989  0.00  0.00    +0.176 A 
ATOM     16  S   UNL     1       0.063   0.655   7.066  0.00  0.00    +0.049 S 
ATOM     17  N   UNL     1       0.067  -0.607   5.964  0.00  0.00    -0.186 NA
ATOM     18  N   UNL     1       0.009   3.299   6.263  0.00  0.00    -0.336 N 
ATOM     19  H   UNL     1      -0.010   3.941   5.536  0.00  0.00    +0.144 HD
ATOM     20  H   UNL     1       0.014   3.608   7.182  0.00  0.00    +0.144 HD
ENDBRANCH   9  13
TORSDOF 1
