REMARK  Name = ZINC57353824
REMARK  6 active torsions:
REMARK  status: ('A' for Active; 'I' for Inactive)
REMARK    1  A    between atoms: C_1  and  C_2
REMARK    2  A    between atoms: C_2  and  O_3
REMARK    3  A    between atoms: O_3  and  C_4
REMARK    4  A    between atoms: C_4  and  C_6
REMARK    5  A    between atoms: C_9  and  N_12
REMARK    6  A    between atoms: C_17  and  N_22
REMARK                            x       y       z     vdW  Elec       q    Type
REMARK                         _______ _______ _______ _____ _____    ______ ____
ROOT
ATOM      1  N   UNL     1       3.372  -3.896  -5.889  0.00  0.00    -0.149 N 
ATOM      2  N   UNL     1       3.896  -3.166  -6.809  0.00  0.00    -0.147 NA
ATOM      3  C   UNL     1       4.423  -3.954  -7.733  0.00  0.00    +0.114 A 
ATOM      4  C   UNL     1       5.114  -3.780  -8.946  0.00  0.00    +0.033 A 
ATOM      5  C   UNL     1       5.515  -4.869  -9.651  0.00  0.00    +0.026 A 
ATOM      6  C   UNL     1       5.259  -6.171  -9.202  0.00  0.00    +0.041 A 
ATOM      7  C   UNL     1       4.593  -6.407  -8.033  0.00  0.00    +0.068 A 
ATOM      8  C   UNL     1       4.152  -5.320  -7.258  0.00  0.00    +0.129 A 
ATOM      9  N   UNL     1       3.507  -5.157  -6.114  0.00  0.00    -0.146 NA
ATOM     10 BR   UNL     1       4.266  -8.179  -7.462  0.00  0.00    -0.046 Br
ENDROOT
BRANCH   1  14
ATOM     11  C   UNL     1       1.454  -2.347  -2.526  0.00  0.00    +0.059 A 
ATOM     12  C   UNL     1       1.993  -1.485  -3.484  0.00  0.00    +0.017 A 
ATOM     13  C   UNL     1       2.626  -2.000  -4.593  0.00  0.00    +0.030 A 
ATOM     14  C   UNL     1       2.728  -3.377  -4.761  0.00  0.00    +0.086 A 
ATOM     15  C   UNL     1       2.193  -4.238  -3.809  0.00  0.00    +0.030 A 
ATOM     16  C   UNL     1       1.564  -3.730  -2.694  0.00  0.00    +0.017 A 
BRANCH  11  17
ATOM     17  C   UNL     1       0.776  -1.798  -1.335  0.00  0.00    +0.339 C 
ATOM     18  O   UNL     1       0.312  -2.549  -0.500  0.00  0.00    -0.245 OA
BRANCH  17  19
ATOM     19  O   UNL     1       0.671  -0.465  -1.174  0.00  0.00    -0.461 OA
BRANCH  19  21
ATOM     20  C   UNL     1      -0.019   1.526   0.010  0.00  0.00    +0.048 C 
ATOM     21  C   UNL     1       0.002  -0.004   0.002  0.00  0.00    +0.229 C 
ENDBRANCH  19  21
ENDBRANCH  17  19
ENDBRANCH  11  17
ENDBRANCH   1  14
BRANCH   6  22
ATOM     22  N   UNL     1       5.695  -7.256  -9.968  0.00  0.00    -0.357 N 
ATOM     23  H   UNL     1       6.169  -7.102 -10.801  0.00  0.00    +0.142 HD
ATOM     24  H   UNL     1       5.524  -8.162  -9.668  0.00  0.00    +0.142 HD
ENDBRANCH   6  22
TORSDOF 5
