REMARK  Name = ZINC54624504
REMARK  12 active torsions:
REMARK  status: ('A' for Active; 'I' for Inactive)
REMARK    1  A    between atoms: C_1  and  C_2
REMARK    2  A    between atoms: C_3  and  C_31
REMARK    3  A    between atoms: C_4  and  C_21
REMARK    4  A    between atoms: C_9  and  S_11
REMARK    5  A    between atoms: S_11  and  C_12
REMARK    6  A    between atoms: C_12  and  C_13
REMARK    7  A    between atoms: C_24  and  O_30
REMARK    8  A    between atoms: C_25  and  N_27
REMARK    9  A    between atoms: C_31  and  O_33
REMARK   10  A    between atoms: O_33  and  C_34
REMARK   11  A    between atoms: C_34  and  C_35
REMARK   12  A    between atoms: C_34  and  C_36
REMARK                            x       y       z     vdW  Elec       q    Type
REMARK                         _______ _______ _______ _____ _____    ______ ____
ROOT
ATOM      1  C   UNL     1      -0.018   1.503   0.010  0.00  0.00    +0.061 C 
ATOM      2  C   UNL     1       0.002  -0.004   0.002  0.00  0.00    +0.020 C 
ATOM      3  C   UNL     1      -1.164  -0.669   0.004  0.00  0.00    +0.082 C 
ATOM      4  C   UNL     1      -1.253  -2.171  -0.016  0.00  0.00    +0.179 C 
ATOM      5  N   UNL     1       0.065  -2.740   0.256  0.00  0.00    -0.220 N 
ATOM      6  C   UNL     1       1.210  -2.015   0.250  0.00  0.00    +0.219 A 
ATOM      7  N   UNL     1       2.201  -2.820   0.521  0.00  0.00    -0.187 NA
ATOM      8  C   UNL     1       1.731  -4.062   0.710  0.00  0.00    +0.211 A 
ATOM      9  N   UNL     1       0.424  -4.053   0.557  0.00  0.00    -0.141 NA
ATOM     10  N   UNL     1       1.212  -0.651  -0.013  0.00  0.00    -0.287 N 
ATOM     11  H   UNL     1       2.037  -0.173  -0.196  0.00  0.00    +0.155 HD
ENDROOT
BRANCH   4  12
ATOM     12  C   UNL     1      -1.728  -2.629  -1.371  0.00  0.00    -0.016 A 
ATOM     13  C   UNL     1      -0.989  -2.327  -2.500  0.00  0.00    +0.010 A 
ATOM     14  C   UNL     1      -1.423  -2.745  -3.743  0.00  0.00    +0.048 A 
ATOM     15  C   UNL     1      -2.601  -3.469  -3.858  0.00  0.00    +0.147 A 
ATOM     16  C   UNL     1      -3.341  -3.771  -2.724  0.00  0.00    +0.168 A 
ATOM     17  C   UNL     1      -2.900  -3.354  -1.482  0.00  0.00    +0.042 A 
BRANCH  16  18
ATOM     18  N   UNL     1      -4.598  -4.542  -2.843  0.00  0.00    +0.060 N 
ATOM     19  O   UNL     1      -5.242  -4.804  -1.854  0.00  0.00    -0.126 OA
ATOM     20  O   UNL     1      -4.981  -4.909  -3.929  0.00  0.00    -0.126 OA
ENDBRANCH  16  18
BRANCH  15  21
ATOM     21  O   UNL     1      -3.030  -3.881  -5.080  0.00  0.00    -0.504 OA
ATOM     22  H   UNL     1      -2.701  -4.753  -5.338  0.00  0.00    +0.292 HD
ENDBRANCH  15  21
ENDBRANCH   4  12
BRANCH   3  23
ATOM     23  C   UNL     1      -2.364   0.077   0.026  0.00  0.00    +0.339 C 
ATOM     24  O   UNL     1      -2.324   1.293   0.043  0.00  0.00    -0.245 OA
BRANCH  23  25
ATOM     25  O   UNL     1      -3.554  -0.560   0.029  0.00  0.00    -0.459 OA
BRANCH  25  26
ATOM     26  C   UNL     1      -4.726   0.257   0.052  0.00  0.00    +0.171 C 
ATOM     27  C   UNL     1      -5.159   0.568  -1.383  0.00  0.00    +0.052 C 
ATOM     28  C   UNL     1      -5.852  -0.487   0.773  0.00  0.00    +0.052 C 
ENDBRANCH  25  26
ENDBRANCH  23  25
ENDBRANCH   3  23
BRANCH   8  29
ATOM     29  S   UNL     1       2.706  -5.476   1.101  0.00  0.00    -0.080 S 
BRANCH  29  30
ATOM     30  C   UNL     1       4.401  -4.835   1.173  0.00  0.00    +0.114 C 
BRANCH  30  31
ATOM     31  C   UNL     1       5.349  -5.959   1.504  0.00  0.00    -0.019 A 
ATOM     32  C   UNL     1       5.644  -6.249   2.823  0.00  0.00    +0.006 A 
ATOM     33  C   UNL     1       6.514  -7.279   3.127  0.00  0.00    +0.000 A 
ATOM     34  C   UNL     1       7.090  -8.020   2.112  0.00  0.00    +0.001 A 
ATOM     35  C   UNL     1       6.796  -7.731   0.792  0.00  0.00    +0.020 A 
ATOM     36  C   UNL     1       5.921  -6.704   0.488  0.00  0.00    +0.045 A 
ATOM     37 CL   UNL     1       5.546  -6.344  -1.169  0.00  0.00    -0.083 Cl
ENDBRANCH  30  31
ENDBRANCH  29  30
ENDBRANCH   8  29
TORSDOF 9
