REMARK  Name = ZINC01131852
REMARK  4 active torsions:
REMARK  status: ('A' for Active; 'I' for Inactive)
REMARK    1  A    between atoms: C_2  and  C_3
REMARK    2  A    between atoms: C_3  and  N_4
REMARK    3  A    between atoms: C_8  and  C_9
REMARK    4  A    between atoms: C_12  and  O_16
REMARK                            x       y       z     vdW  Elec       q    Type
REMARK                         _______ _______ _______ _____ _____    ______ ____
ROOT
ATOM      1  N   UNL     1      -6.024   2.028   0.349  0.00  0.00    -0.225 N 
ATOM      2  C   UNL     1      -5.049   1.141   0.249  0.00  0.00    +0.261 C 
ATOM      3  O   UNL     1      -5.270  -0.056   0.258  0.00  0.00    -0.269 OA
ATOM      4  C   UNL     1      -3.678   1.675   0.131  0.00  0.00    +0.080 C 
ATOM      5  C   UNL     1      -2.498   1.013   0.019  0.00  0.00    +0.028 C 
ATOM      6  S   UNL     1      -3.999   3.433   0.168  0.00  0.00    -0.026 S 
ATOM      7  C   UNL     1      -5.775   3.354   0.332  0.00  0.00    +0.286 C 
ATOM      8  O   UNL     1      -6.569   4.272   0.408  0.00  0.00    -0.262 OA
ENDROOT
BRANCH   5   9
ATOM      9  C   UNL     1      -1.232   1.755   0.075  0.00  0.00    -0.021 A 
ATOM     10  C   UNL     1      -0.025   1.107  -0.216  0.00  0.00    +0.031 A 
ATOM     11  C   UNL     1       1.160   1.809  -0.168  0.00  0.00    +0.084 A 
ATOM     12  C   UNL     1       1.158   3.158   0.175  0.00  0.00    +0.149 A 
ATOM     13  C   UNL     1      -0.037   3.804   0.470  0.00  0.00    +0.061 A 
ATOM     14  C   UNL     1      -1.227   3.111   0.426  0.00  0.00    +0.027 A 
ATOM     15 BR   UNL     1      -0.029   5.636   0.935  0.00  0.00    -0.046 Br
ATOM     16 CL   UNL     1       2.656   1.010  -0.536  0.00  0.00    -0.080 Cl
BRANCH  12  17
ATOM     17  O   UNL     1       2.329   3.845   0.222  0.00  0.00    -0.504 OA
ATOM     18  H   UNL     1       2.574   4.260  -0.616  0.00  0.00    +0.292 HD
ENDBRANCH  12  17
ENDBRANCH   5   9
BRANCH   1  19
ATOM     19  C   UNL     1      -7.407   1.561   0.475  0.00  0.00    +0.144 C 
BRANCH  19  21
ATOM     20  C   UNL     1      -8.540   0.262  -1.254  0.00  0.00    +0.005 C 
ATOM     21  C   UNL     1      -8.012   1.406  -0.896  0.00  0.00    -0.015 C 
ENDBRANCH  19  21
ENDBRANCH   1  19
TORSDOF 4
