REMARK  Name = ZINC12635575
REMARK  13 active torsions:
REMARK  status: ('A' for Active; 'I' for Inactive)
REMARK    1  A    between atoms: C_1  and  C_2
REMARK    2  A    between atoms: C_2  and  N_70
REMARK    3  A    between atoms: C_6  and  C_8
REMARK    4  A    between atoms: C_8  and  N_9
REMARK    5  A    between atoms: N_9  and  C_10
REMARK    6  A    between atoms: N_9  and  C_25
REMARK    7  A    between atoms: C_10  and  C_11
REMARK    8  A    between atoms: C_16  and  C_24
REMARK    9  A    between atoms: C_17  and  C_23
REMARK   10  A    between atoms: C_25  and  N_27
REMARK   11  A    between atoms: N_27  and  C_28
REMARK   12  A    between atoms: C_31  and  C_35
REMARK   13  A    between atoms: C_33  and  C_34
REMARK                            x       y       z     vdW  Elec       q    Type
REMARK                         _______ _______ _______ _____ _____    ______ ____
ROOT
ATOM      1  N   UNL     1      -2.778   3.610  -1.624  0.00  0.00    -0.309 N 
ENDROOT
BRANCH   1   2
ATOM      2  C   UNL     1      -2.631   4.692  -2.414  0.00  0.00    +0.137 C 
ATOM      3  S   UNL     1      -1.396   5.831  -2.086  0.00  0.00    -0.018 S 
BRANCH   2   4
ATOM      4  N   UNL     1      -3.458   4.877  -3.462  0.00  0.00    -0.297 N 
ATOM      5  H   UNL     1      -4.132   4.212  -3.672  0.00  0.00    +0.154 HD
BRANCH   4   6
ATOM      6  C   UNL     1      -3.344   6.029  -4.248  0.00  0.00    +0.036 A 
ATOM      7  C   UNL     1      -3.073   7.254  -3.652  0.00  0.00    +0.024 A 
ATOM      8  C   UNL     1      -2.956   8.388  -4.431  0.00  0.00    +0.005 A 
ATOM      9  C   UNL     1      -3.119   8.307  -5.802  0.00  0.00    -0.050 A 
ATOM     10  C   UNL     1      -3.393   7.090  -6.398  0.00  0.00    +0.008 A 
ATOM     11  C   UNL     1      -3.506   5.951  -5.625  0.00  0.00    -0.029 A 
ATOM     12  C   UNL     1      -3.805   4.625  -6.275  0.00  0.00    +0.045 C 
ATOM     13  C   UNL     1      -2.997   9.548  -6.648  0.00  0.00    +0.044 C 
ENDBRANCH   4   6
ENDBRANCH   2   4
ENDBRANCH   1   2
BRANCH   1  14
ATOM     14  C   UNL     1      -3.835   2.635  -1.904  0.00  0.00    +0.092 C 
BRANCH  14  18
ATOM     15  C   UNL     1      -7.255   2.413  -0.523  0.00  0.00    -0.078 C 
ATOM     16  C   UNL     1      -6.427   2.647   0.759  0.00  0.00    -0.020 C 
ATOM     17  C   UNL     1      -5.041   3.106   0.263  0.00  0.00    -0.016 C 
ATOM     18  C   UNL     1      -5.147   3.111  -1.277  0.00  0.00    -0.051 C 
ATOM     19  N   UNL     1      -6.241   2.173  -1.549  0.00  0.00    +0.382 N 
ATOM     20  H   UNL     1      -5.900   1.207  -1.484  0.00  0.00    -0.081 HD
BRANCH  19  22
ATOM     21  C   UNL     1      -7.792   1.295  -3.272  0.00  0.00    -0.017 C 
ATOM     22  C   UNL     1      -6.802   2.406  -2.918  0.00  0.00    -0.082 C 
ENDBRANCH  19  22
ENDBRANCH  14  18
ENDBRANCH   1  14
BRANCH   1  23
ATOM     23  C   UNL     1      -1.879   3.409  -0.484  0.00  0.00    +0.147 C 
BRANCH  23  24
ATOM     24  C   UNL     1      -0.679   2.611  -0.925  0.00  0.00    +0.035 A 
ATOM     25  C   UNL     1       0.458   3.251  -1.295  0.00  0.00    +0.020 A 
ATOM     26  C   UNL     1       1.606   2.447  -1.718  0.00  0.00    -0.001 A 
ATOM     27  C   UNL     1       2.806   3.050  -2.111  0.00  0.00    +0.010 A 
ATOM     28  C   UNL     1       3.859   2.271  -2.500  0.00  0.00    +0.004 A 
ATOM     29  C   UNL     1       3.749   0.887  -2.509  0.00  0.00    -0.046 A 
ATOM     30  C   UNL     1       2.577   0.272  -2.127  0.00  0.00    -0.024 A 
ATOM     31  C   UNL     1       1.491   1.044  -1.726  0.00  0.00    +0.052 A 
ATOM     32  N   UNL     1       0.306   0.455  -1.339  0.00  0.00    -0.322 N 
ATOM     33  H   UNL     1       0.229  -0.512  -1.345  0.00  0.00    +0.169 HD
ATOM     34  C   UNL     1      -0.745   1.202  -0.958  0.00  0.00    +0.254 A 
ATOM     35  O   UNL     1      -1.779   0.647  -0.627  0.00  0.00    -0.268 OA
ATOM     36  C   UNL     1       2.472  -1.231  -2.142  0.00  0.00    +0.046 C 
ATOM     37  C   UNL     1       4.924   0.049  -2.942  0.00  0.00    +0.044 C 
ENDBRANCH  23  24
ENDBRANCH   1  23
TORSDOF 8
