REMARK  Name = ZINC51097278
REMARK  9 active torsions:
REMARK  status: ('A' for Active; 'I' for Inactive)
REMARK    1  A    between atoms: C_1  and  C_2
REMARK    2  A    between atoms: C_2  and  N_3
REMARK    3  A    between atoms: N_3  and  C_4
REMARK    4  A    between atoms: C_10  and  C_12
REMARK    5  A    between atoms: C_12  and  C_14
REMARK    6  A    between atoms: C_12  and  N_15
REMARK    7  A    between atoms: C_18  and  N_21
REMARK    8  A    between atoms: C_22  and  C_24
REMARK    9  A    between atoms: C_27  and  C_29
REMARK                            x       y       z     vdW  Elec       q    Type
REMARK                         _______ _______ _______ _____ _____    ______ ____
ROOT
ATOM      1  N   UNL     1       4.285  -1.102   0.467  0.00  0.00    +0.387 N 
ATOM      2  C   UNL     1       5.212  -0.810  -0.633  0.00  0.00    -0.076 C 
ATOM      3  C   UNL     1       6.619  -1.282  -0.259  0.00  0.00    +0.004 C 
ATOM      4  C   UNL     1       7.077  -0.549   1.005  0.00  0.00    +0.070 C 
ATOM      5  C   UNL     1       6.063  -0.800   2.125  0.00  0.00    +0.004 C 
ATOM      6  C   UNL     1       4.677  -0.346   1.662  0.00  0.00    -0.076 C 
ATOM      7  H   UNL     1       4.309  -2.090   0.671  0.00  0.00    -0.081 HD
ENDROOT
BRANCH   4   8
ATOM      8  N   UNL     1       8.392  -1.051   1.413  0.00  0.00    -0.306 N 
ATOM      9  C   UNL     1       9.213  -0.272   2.144  0.00  0.00    +0.280 C 
ATOM     10  O   UNL     1       8.863   0.848   2.466  0.00  0.00    -0.267 OA
ATOM     11  H   UNL     1       8.671  -1.944   1.157  0.00  0.00    +0.149 HD
BRANCH   9  12
ATOM     12  C   UNL     1      10.529  -0.774   2.552  0.00  0.00    +0.189 A 
ATOM     13  C   UNL     1      11.453  -0.095   3.295  0.00  0.00    +0.055 A 
ATOM     14  C   UNL     1      12.556  -0.950   3.446  0.00  0.00    +0.045 A 
ATOM     15  C   UNL     1      12.262  -2.098   2.798  0.00  0.00    +0.103 A 
ATOM     16  O   UNL     1      11.038  -1.990   2.265  0.00  0.00    -0.455 OA
ATOM     17  C   UNL     1      13.161  -3.303   2.695  0.00  0.00    +0.086 C 
ENDBRANCH   9  12
ENDBRANCH   4   8
BRANCH   1  18
ATOM     18  C   UNL     1       2.923  -0.719   0.072  0.00  0.00    +0.017 C 
ATOM     19  C   UNL     1       2.474  -1.579  -1.111  0.00  0.00    -0.004 C 
BRANCH  18  21
ATOM     20  N   UNL     1       0.856  -0.202   1.329  0.00  0.00    -0.273 N 
ATOM     21  C   UNL     1       1.985  -0.932   1.232  0.00  0.00    +0.206 C 
ATOM     22  O   UNL     1       2.246  -1.760   2.079  0.00  0.00    -0.277 OA
BRANCH  20  23
ATOM     23  C   UNL     1       0.049  -0.308   2.467  0.00  0.00    +0.036 A 
ATOM     24  C   UNL     1       0.493  -1.027   3.570  0.00  0.00    +0.023 A 
ATOM     25  C   UNL     1      -0.306  -1.130   4.692  0.00  0.00    +0.002 A 
ATOM     26  C   UNL     1      -1.546  -0.519   4.718  0.00  0.00    +0.000 A 
ATOM     27  C   UNL     1      -1.990   0.197   3.622  0.00  0.00    +0.002 A 
ATOM     28  C   UNL     1      -1.194   0.308   2.499  0.00  0.00    +0.023 A 
ENDBRANCH  20  23
BRANCH  20  30
ATOM     29  C   UNL     1       0.973   2.115   0.555  0.00  0.00    +0.025 C 
ATOM     30  C   UNL     1       0.474   0.703   0.242  0.00  0.00    +0.110 C 
ENDBRANCH  20  30
ENDBRANCH  18  21
ENDBRANCH   1  18
TORSDOF 6
