REMARK  Name = ZINC01831773
REMARK  9 active torsions:
REMARK  status: ('A' for Active; 'I' for Inactive)
REMARK    1  A    between atoms: C_1  and  C_2
REMARK    2  A    between atoms: C_2  and  C_3
REMARK    3  A    between atoms: C_2  and  C_4
REMARK    4  A    between atoms: C_7  and  C_10
REMARK    5  A    between atoms: N_11  and  N_12
REMARK    6  A    between atoms: C_13  and  C_15
REMARK    7  A    between atoms: C_15  and  N_58
REMARK    8  A    between atoms: N_18  and  S_21
REMARK    9  A    between atoms: S_21  and  C_24
REMARK                            x       y       z     vdW  Elec       q    Type
REMARK                         _______ _______ _______ _____ _____    ______ ____
ROOT
ATOM      1  C   UNL     1       0.059   3.392  -1.277  0.00  0.00    -0.061 C 
ATOM      2  C   UNL     1       0.933   2.670  -0.247  0.00  0.00    +0.091 C 
ATOM      3  N   UNL     1       1.727   3.671   0.481  0.00  0.00    -0.180 NA
ATOM      4  C   UNL     1       2.493   4.654  -0.301  0.00  0.00    +0.091 C 
ATOM      5  C   UNL     1       1.557   5.299  -1.329  0.00  0.00    -0.061 C 
ATOM      6  N   UNL     1       0.927   4.229  -2.134  0.00  0.00    +0.387 N 
ATOM      7  H   UNL     1       1.664   3.639  -2.538  0.00  0.00    -0.081 HD
ENDROOT
BRANCH   3   8
ATOM      8  S   UNL     1       1.754   3.694   2.137  0.00  0.00    +0.061 S 
ATOM      9  O   UNL     1       2.100   5.018   2.519  0.00  0.00    -0.153 OA
ATOM     10  O   UNL     1       0.557   3.064   2.571  0.00  0.00    -0.153 OA
BRANCH   8  11
ATOM     11  C   UNL     1       3.083   2.658   2.651  0.00  0.00    +0.106 A 
ATOM     12  C   UNL     1       2.862   1.313   2.883  0.00  0.00    +0.029 A 
ATOM     13  C   UNL     1       3.906   0.500   3.281  0.00  0.00    +0.017 A 
ATOM     14  C   UNL     1       5.170   1.033   3.458  0.00  0.00    +0.018 A 
ATOM     15  C   UNL     1       5.390   2.380   3.231  0.00  0.00    +0.017 A 
ATOM     16  C   UNL     1       4.347   3.192   2.827  0.00  0.00    +0.029 A 
ATOM     17 BR   UNL     1       6.597  -0.079   4.010  0.00  0.00    -0.050 Br
ENDBRANCH   8  11
ENDBRANCH   3   8
BRANCH   6  18
ATOM     18  C   UNL     1       0.133   4.823  -3.229  0.00  0.00    +0.020 C 
BRANCH  18  20
ATOM     19  N   UNL     1      -1.819   6.316  -3.511  0.00  0.00    -0.209 N 
ATOM     20  C   UNL     1      -0.938   5.728  -2.678  0.00  0.00    +0.216 C 
ATOM     21  O   UNL     1      -1.007   5.928  -1.483  0.00  0.00    -0.276 OA
ATOM     22  H   UNL     1      -1.764   6.156  -4.467  0.00  0.00    +0.177 HD
BRANCH  19  24
ATOM     23  C   UNL     1      -3.752   7.603  -3.778  0.00  0.00    +0.138 C 
ATOM     24  N   UNL     1      -2.815   7.157  -2.999  0.00  0.00    -0.188 NA
BRANCH  23  28
ATOM     25  C   UNL     1      -4.434   5.768  -7.543  0.00  0.00    -0.045 A 
ATOM     26  C   UNL     1      -3.770   5.072  -6.549  0.00  0.00    +0.004 A 
ATOM     27  C   UNL     1      -3.545   5.662  -5.322  0.00  0.00    +0.010 A 
ATOM     28  C   UNL     1      -3.988   6.966  -5.086  0.00  0.00    -0.005 A 
ATOM     29  C   UNL     1      -4.662   7.661  -6.094  0.00  0.00    +0.010 A 
ATOM     30  C   UNL     1      -4.876   7.060  -7.317  0.00  0.00    +0.004 A 
BRANCH  25  32
ATOM     31  C   UNL     1      -6.181   5.047  -9.149  0.00  0.00    +0.012 C 
ATOM     32  C   UNL     1      -4.676   5.117  -8.881  0.00  0.00    +0.013 C 
ATOM     33  C   UNL     1      -4.000   5.940  -9.979  0.00  0.00    +0.012 C 
ENDBRANCH  25  32
ENDBRANCH  23  28
ENDBRANCH  19  24
ENDBRANCH  18  20
ENDBRANCH   6  18
TORSDOF 7
