REMARK  Name = ZINC66204548
REMARK  4 active torsions:
REMARK  status: ('A' for Active; 'I' for Inactive)
REMARK    1  A    between atoms: N_10  and  C_11
REMARK    2  A    between atoms: C_11  and  C_12
REMARK    3  A    between atoms: C_12  and  C_13
REMARK    4  A    between atoms: C_13  and  C_14
REMARK                            x       y       z     vdW  Elec       q    Type
REMARK                         _______ _______ _______ _____ _____    ______ ____
ROOT
ATOM      1  C   UNL     1      -1.426   0.638   5.221  0.00  0.00    +0.106 C 
ENDROOT
BRANCH   1  11
ATOM      2  C   UNL     1       2.749  -1.703   1.826  0.00  0.00    +0.002 C 
ATOM      3  C   UNL     1       1.577  -2.393   1.134  0.00  0.00    +0.002 C 
ATOM      4  C   UNL     1       0.257  -2.029   1.670  0.00  0.00    +0.019 C 
ATOM      5  C   UNL     1      -0.010  -0.518   1.460  0.00  0.00    +0.109 C 
ATOM      6  N   UNL     1       0.832   0.252   2.348  0.00  0.00    -0.286 N 
ATOM      7  C   UNL     1       2.176   0.725   1.962  0.00  0.00    +0.109 C 
ATOM      8  C   UNL     1       2.973  -0.349   1.199  0.00  0.00    +0.019 C 
ATOM      9  C   UNL     1       0.371   0.549   3.579  0.00  0.00    +0.302 C 
ATOM     10  O   UNL     1       1.092   1.118   4.377  0.00  0.00    -0.253 OA
ATOM     11  N   UNL     1      -0.888   0.216   3.926  0.00  0.00    -0.299 N 
ATOM     12  H   UNL     1      -1.437  -0.302   3.318  0.00  0.00    +0.150 HD
ENDBRANCH   1  11
BRANCH   1  13
ATOM     13  C   UNL     1      -2.864   0.134   5.365  0.00  0.00    +0.025 C 
BRANCH  13  14
ATOM     14  C   UNL     1      -3.426   0.574   6.718  0.00  0.00    +0.064 C 
BRANCH  14  15
ATOM     15  C   UNL     1      -4.842   0.077   6.859  0.00  0.00    +0.079 A 
ATOM     16  N   UNL     1      -5.260  -1.055   7.366  0.00  0.00    -0.249 NA
ATOM     17  C   UNL     1      -6.548  -1.368   7.429  0.00  0.00    +0.052 A 
ATOM     18  C   UNL     1      -7.389  -0.425   6.926  0.00  0.00    +0.013 A 
ATOM     19  S   UNL     1      -6.272   0.847   6.409  0.00  0.00    -0.077 S 
ATOM     20  C   UNL     1      -8.877  -0.479   6.850  0.00  0.00    +0.044 C 
ATOM     21  C   UNL     1      -9.318  -1.931   7.096  0.00  0.00    +0.006 C 
ATOM     22  C   UNL     1      -8.581  -2.469   8.326  0.00  0.00    +0.006 C 
ATOM     23  C   UNL     1      -7.097  -2.664   8.008  0.00  0.00    +0.056 C 
ENDBRANCH  14  15
ENDBRANCH  13  14
ENDBRANCH   1  13
TORSDOF 4
