REMARK  Name = ZINC02403110
REMARK  11 active torsions:
REMARK  status: ('A' for Active; 'I' for Inactive)
REMARK    1  A    between atoms: C_1  and  N_57
REMARK    2  A    between atoms: C_2  and  C_3
REMARK    3  A    between atoms: C_2  and  N_57
REMARK    4  A    between atoms: C_9  and  C_10
REMARK    5  A    between atoms: C_9  and  N_57
REMARK    6  A    between atoms: C_11  and  O_34
REMARK    7  A    between atoms: C_17  and  C_30
REMARK    8  A    between atoms: C_18  and  O_21
REMARK    9  A    between atoms: O_21  and  C_22
REMARK   10  A    between atoms: C_25  and  O_28
REMARK   11  A    between atoms: O_28  and  C_29
REMARK                            x       y       z     vdW  Elec       q    Type
REMARK                         _______ _______ _______ _____ _____    ______ ____
ROOT
ATOM      1  C   UNL     1      -1.088   7.581  -0.166  0.00  0.00    +0.020 A 
ATOM      2  C   UNL     1      -1.067   8.343   0.990  0.00  0.00    +0.122 A 
ATOM      3  C   UNL     1      -1.073   7.732   2.242  0.00  0.00    +0.046 A 
ATOM      4  C   UNL     1      -1.101   6.371   2.346  0.00  0.00    +0.019 A 
ATOM      5  C   UNL     1      -1.123   5.589   1.191  0.00  0.00    +0.068 A 
ATOM      6  C   UNL     1      -1.116   6.197  -0.077  0.00  0.00    +0.144 A 
ATOM      7  O   UNL     1      -1.137   5.431  -1.187  0.00  0.00    -0.447 OA
ATOM      8  C   UNL     1      -1.165   4.092  -1.135  0.00  0.00    +0.254 A 
ATOM      9  C   UNL     1      -1.174   3.408   0.026  0.00  0.00    +0.222 A 
ATOM     10  C   UNL     1      -1.159   4.118   1.260  0.00  0.00    +0.235 A 
ATOM     11  O   UNL     1      -1.171   3.532   2.330  0.00  0.00    -0.283 OA
ENDROOT
BRANCH   8  12
ATOM     12  C   UNL     1      -1.187   3.320  -2.429  0.00  0.00    +0.454 C 
ATOM     13  F   UNL     1      -2.512   3.108  -2.823  0.00  0.00    -0.163 F 
ATOM     14  F   UNL     1      -0.516   4.048  -3.418  0.00  0.00    -0.163 F 
ATOM     15  F   UNL     1      -0.552   2.087  -2.246  0.00  0.00    -0.163 F 
ENDBRANCH   8  12
BRANCH   2  16
ATOM     16  O   UNL     1      -1.039   9.698   0.902  0.00  0.00    -0.506 OA
ATOM     17  H   UNL     1      -1.914  10.108   0.881  0.00  0.00    +0.292 HD
ENDBRANCH   2  16
BRANCH   1  18
ATOM     18  C   UNL     1      -1.080   8.252  -1.515  0.00  0.00    -0.035 C 
BRANCH  18  20
ATOM     19  C   UNL     1      -3.120   9.479  -1.072  0.00  0.00    -0.095 C 
ATOM     20  N   UNL     1      -2.477   8.475  -1.945  0.00  0.00    +0.383 N 
ATOM     21  H   UNL     1      -2.993   7.590  -1.871  0.00  0.00    -0.081 HD
BRANCH  20  22
ATOM     22  C   UNL     1      -2.507   8.933  -3.350  0.00  0.00    -0.043 C 
BRANCH  22  23
ATOM     23  C   UNL     1      -3.936   8.939  -3.829  0.00  0.00    -0.064 A 
ATOM     24  C   UNL     1      -4.475   7.806  -4.409  0.00  0.00    +0.002 A 
ATOM     25  C   UNL     1      -5.787   7.811  -4.844  0.00  0.00    +0.000 A 
ATOM     26  C   UNL     1      -6.557   8.951  -4.708  0.00  0.00    +0.000 A 
ATOM     27  C   UNL     1      -6.015  10.086  -4.134  0.00  0.00    +0.000 A 
ATOM     28  C   UNL     1      -4.705  10.080  -3.694  0.00  0.00    +0.002 A 
ENDBRANCH  22  23
ENDBRANCH  20  22
ENDBRANCH  18  20
ENDBRANCH   1  18
BRANCH   9  29
ATOM     29  O   UNL     1      -1.203   2.047   0.019  0.00  0.00    -0.448 OA
BRANCH  29  30
ATOM     30  C   UNL     1      -0.017   1.383   0.010  0.00  0.00    +0.129 A 
ATOM     31  C   UNL     1       1.175   2.093   0.002  0.00  0.00    +0.050 A 
ATOM     32  C   UNL     1       2.381   1.419  -0.013  0.00  0.00    +0.049 A 
ATOM     33  C   UNL     1       2.399   0.032  -0.021  0.00  0.00    +0.120 A 
ATOM     34  C   UNL     1       1.208  -0.678  -0.013  0.00  0.00    +0.049 A 
ATOM     35  C   UNL     1       0.002  -0.004   0.002  0.00  0.00    +0.050 A 
BRANCH  33  36
ATOM     36  O   UNL     1       3.586  -0.632  -0.036  0.00  0.00    -0.495 OA
ATOM     37  C   UNL     1       4.774   0.162  -0.043  0.00  0.00    +0.277 C 
ENDBRANCH  33  36
ENDBRANCH  29  30
ENDBRANCH   9  29
TORSDOF 9
