REMARK  Name = ZINC15958567
REMARK  13 active torsions:
REMARK  status: ('A' for Active; 'I' for Inactive)
REMARK    1  A    between atoms: C_1  and  C_2
REMARK    2  A    between atoms: C_2  and  C_4
REMARK    3  A    between atoms: C_4  and  O_40
REMARK    4  A    between atoms: C_9  and  C_39
REMARK    5  A    between atoms: N_21  and  O_22
REMARK    6  A    between atoms: O_22  and  C_23
REMARK    7  A    between atoms: C_23  and  C_24
REMARK    8  A    between atoms: N_26  and  CA_27
REMARK    9  A    between atoms: CA_27  and  CB_29
REMARK   10  A    between atoms: CA_27  and  C_33
REMARK   11  A    between atoms: CB_29  and  CG_30
REMARK   12  A    between atoms: CG_30  and  CD_31
REMARK   13  A    between atoms: C_37  and  C_38
REMARK                            x       y       z     vdW  Elec       q    Type
REMARK                         _______ _______ _______ _____ _____    ______ ____
ROOT
ATOM      1  C   UNK A   0      -4.464  -2.190  -1.921  0.00  0.00    +0.129 C 
ATOM      2  C   UNK A   0      -3.380  -2.424  -3.003  0.00  0.00    +0.043 C 
ATOM      3  C   UNK A   0      -2.523  -1.130  -3.058  0.00  0.00    +0.008 C 
ATOM      4  C   UNK A   0      -2.813  -0.473  -1.700  0.00  0.00    +0.002 C 
ATOM      5  C   UNK A   0      -4.336  -0.705  -1.559  0.00  0.00    +0.007 C 
ATOM      6  C   UNK A   0      -4.750  -0.325  -0.158  0.00  0.00    +0.010 C 
ATOM      7  C   UNK A   0      -4.379   1.124   0.142  0.00  0.00    +0.005 C 
ATOM      8  C   UNK A   0      -2.971   1.554  -0.244  0.00  0.00    +0.002 C 
ATOM      9  C   UNK A   0      -2.514   0.996  -1.584  0.00  0.00    -0.003 C 
ATOM     10  C   UNK A   0      -1.056   1.299  -1.910  0.00  0.00    +0.008 C 
ATOM     11  C   UNK A   0      -0.134   0.832  -0.779  0.00  0.00    +0.031 C 
ATOM     12  C   UNK A   0      -0.582   1.589   0.461  0.00  0.00    -0.062 C 
ATOM     13  C   UNK A   0       0.303   2.352   1.086  0.00  0.00    +0.026 C 
ATOM     14  C   UNK A   0      -0.142   3.139   2.251  0.00  0.00    +0.080 C 
ATOM     15  N   UNK A   0       0.670   3.503   3.192  0.00  0.00    -0.089 NA
ATOM     16  C   UNK A   0      -1.617   3.491   2.274  0.00  0.00    +0.059 C 
ATOM     17  C   UNK A   0      -2.412   2.200   2.115  0.00  0.00    +0.017 C 
ATOM     18  C   UNK A   0      -1.996   1.384   0.905  0.00  0.00    -0.007 C 
ATOM     19  C   UNK A   0      -2.054  -0.065   1.403  0.00  0.00    +0.016 C 
ATOM     20  C   UNK A   0      -5.136   0.105  -2.580  0.00  0.00    +0.015 C 
ENDROOT
BRANCH   1  22
ATOM     21  C   UNK A   0      -6.979  -2.774  -1.549  0.00  0.00    +0.089 C 
ATOM     22  C   UNK A   0      -5.833  -2.470  -2.480  0.00  0.00    +0.162 C 
ATOM     23  O   UNK A   0      -6.014  -2.450  -3.674  0.00  0.00    -0.295 OA
ENDBRANCH   1  22
BRANCH   1  24
ATOM     24  O   UNK A   0      -4.211  -3.003  -0.777  0.00  0.00    -0.381 OA
ATOM     25  H   UNK A   0      -4.278  -3.952  -0.947  0.00  0.00    +0.211 HD
ENDBRANCH   1  24
BRANCH  15  26
ATOM     26  O   UNK A   0       0.189   4.255   4.290  0.00  0.00    -0.384 OA
BRANCH  26  27
ATOM     27  C   UNK A   0       1.193   4.587   5.252  0.00  0.00    +0.358 C 
BRANCH  27  28
ATOM     28  C   UNK A   0       0.573   5.384   6.371  0.00  0.00    +0.254 C 
ATOM     29  O   UNK A   0      -0.612   5.642   6.347  0.00  0.00    -0.272 OA
ATOM     30  N   GLU A   1       1.335   5.809   7.398  0.00  0.00    -0.299 N 
ATOM     31  H   GLU A   1       2.283   5.602   7.416  0.00  0.00    +0.150 HD
BRANCH  30  32
ATOM     32  CA  GLU A   1       0.733   6.583   8.486  0.00  0.00    +0.187 C 
BRANCH  32  33
ATOM     33  C   GLU A   1       0.691   8.040   8.102  0.00  0.00    +0.376 C 
ATOM     34  O   GLU A   1       1.121   8.395   7.030  0.00  0.00    -0.244 OA
ATOM     35  OXT GLU A   1       0.177   8.943   8.951  0.00  0.00    -0.244 OA
ENDBRANCH  32  33
BRANCH  32  36
ATOM     36  CB  GLU A   1       1.569   6.414   9.756  0.00  0.00    +0.045 C 
BRANCH  36  37
ATOM     37  CG  GLU A   1       1.508   4.956  10.215  0.00  0.00    +0.127 C 
BRANCH  37  38
ATOM     38  CD  GLU A   1       2.332   4.789  11.466  0.00  0.00    +0.356 C 
ATOM     39  OE1 GLU A   1       2.908   5.739  11.942  0.00  0.00    -0.246 OA
ATOM     40  OE2 GLU A   1       2.426   3.586  12.053  0.00  0.00    -0.246 OA
ENDBRANCH  37  38
ENDBRANCH  36  37
ENDBRANCH  32  36
ENDBRANCH  30  32
ENDBRANCH  27  28
ENDBRANCH  26  27
ENDBRANCH  15  26
TORSDOF 10
