REMARK  Name = ZINC13524830
REMARK  6 active torsions:
REMARK  status: ('A' for Active; 'I' for Inactive)
REMARK    1  A    between atoms: C_1  and  C_2
REMARK    2  A    between atoms: C_8  and  C_10
REMARK    3  A    between atoms: C_10  and  O_11
REMARK    4  A    between atoms: O_11  and  C_12
REMARK    5  A    between atoms: C_12  and  C_14
REMARK    6  A    between atoms: C_28  and  C_29
REMARK                            x       y       z     vdW  Elec       q    Type
REMARK                         _______ _______ _______ _____ _____    ______ ____
ROOT
ATOM      1  C   UNL     1      -7.297  -4.438   0.047  0.00  0.00    +0.073 A 
ATOM      2  C   UNL     1      -8.078  -4.516  -1.187  0.00  0.00    +0.015 A 
ATOM      3  C   UNL     1      -7.468  -4.734  -2.427  0.00  0.00    +0.011 A 
ATOM      4  C   UNL     1      -8.235  -4.801  -3.553  0.00  0.00    +0.001 A 
ATOM      5  C   UNL     1      -9.619  -4.654  -3.484  0.00  0.00    +0.002 A 
ATOM      6  C   UNL     1     -10.244  -4.440  -2.294  0.00  0.00    +0.028 A 
ATOM      7  C   UNL     1      -9.486  -4.365  -1.111  0.00  0.00    +0.072 A 
ATOM      8  N   UNL     1     -10.069  -4.155   0.069  0.00  0.00    -0.247 NA
ATOM      9  C   UNL     1      -9.386  -4.080   1.199  0.00  0.00    +0.072 A 
ATOM     10  C   UNL     1      -7.988  -4.227   1.234  0.00  0.00    -0.007 A 
ATOM     11  C   UNL     1      -7.214  -4.163   2.522  0.00  0.00    +0.038 C 
ATOM     12  C   UNL     1      -7.991  -3.409   3.597  0.00  0.00    +0.009 C 
ATOM     13  C   UNL     1      -9.377  -4.045   3.762  0.00  0.00    +0.037 C 
ATOM     14  C   UNL     1     -10.123  -3.837   2.459  0.00  0.00    -0.021 C 
ATOM     15  C   UNL     1     -11.414  -3.460   2.447  0.00  0.00    +0.013 C 
ENDROOT
BRANCH  15  16
ATOM     16  C   UNL     1     -12.172  -3.392   3.708  0.00  0.00    -0.025 A 
ATOM     17  C   UNL     1     -13.171  -2.429   3.875  0.00  0.00    +0.008 A 
ATOM     18  C   UNL     1     -13.877  -2.370   5.059  0.00  0.00    +0.001 A 
ATOM     19  C   UNL     1     -13.599  -3.263   6.079  0.00  0.00    +0.000 A 
ATOM     20  C   UNL     1     -12.611  -4.219   5.921  0.00  0.00    +0.001 A 
ATOM     21  C   UNL     1     -11.900  -4.293   4.742  0.00  0.00    +0.008 A 
ENDBRANCH  15  16
BRANCH   1  22
ATOM     22  C   UNL     1      -5.827  -4.585   0.033  0.00  0.00    +0.341 C 
ATOM     23  O   UNL     1      -5.325  -5.684   0.153  0.00  0.00    -0.245 OA
BRANCH  22  24
ATOM     24  O   UNL     1      -5.043  -3.499  -0.112  0.00  0.00    -0.452 OA
BRANCH  24  25
ATOM     25  C   UNL     1      -3.630  -3.714  -0.117  0.00  0.00    +0.328 C 
BRANCH  25  33
ATOM     26  C   UNL     1      -0.778   2.538  -0.919  0.00  0.00    +0.089 C 
ATOM     27  C   UNL     1      -0.568   1.056  -0.748  0.00  0.00    +0.136 A 
ATOM     28  C   UNL     1      -1.535   0.132  -0.617  0.00  0.00    +0.091 A 
ATOM     29  C   UNL     1      -0.919  -1.132  -0.481  0.00  0.00    +0.168 A 
ATOM     30  N   UNL     1       0.377  -0.955  -0.529  0.00  0.00    -0.063 NA
ATOM     31  O   UNL     1       0.619   0.430  -0.704  0.00  0.00    -0.358 OA
ATOM     32  N   UNL     1      -1.575  -2.353  -0.322  0.00  0.00    -0.265 N 
ATOM     33  C   UNL     1      -2.921  -2.395  -0.288  0.00  0.00    +0.256 C 
ATOM     34  O   UNL     1      -3.563  -1.372  -0.396  0.00  0.00    -0.272 OA
ATOM     35  H   UNL     1      -1.062  -3.172  -0.236  0.00  0.00    +0.156 HD
ENDBRANCH  25  33
ENDBRANCH  24  25
ENDBRANCH  22  24
ENDBRANCH   1  22
TORSDOF 5
