REMARK  Name = ZINC65074652
REMARK  7 active torsions:
REMARK  status: ('A' for Active; 'I' for Inactive)
REMARK    1  A    between atoms: C_1  and  C_2
REMARK    2  A    between atoms: C_4  and  C_33
REMARK    3  A    between atoms: C_5  and  S_9
REMARK    4  A    between atoms: C_6  and  C_8
REMARK    5  A    between atoms: S_9  and  N_12
REMARK    6  A    between atoms: N_23  and  C_24
REMARK    7  A    between atoms: C_24  and  C_25
REMARK                            x       y       z     vdW  Elec       q    Type
REMARK                         _______ _______ _______ _____ _____    ______ ____
ROOT
ATOM      1  N   UNL     1       0.400  -5.328   0.167  0.00  0.00    -0.176 NA
ATOM      2  C   UNL     1       1.079  -5.802  -1.047  0.00  0.00    +0.111 C 
ATOM      3  C   UNL     1       1.215  -7.326  -0.972  0.00  0.00    +0.047 C 
ATOM      4  C   UNL     1       1.923  -7.707   0.332  0.00  0.00    +0.075 C 
ATOM      5  C   UNL     1       1.083  -7.239   1.523  0.00  0.00    +0.047 C 
ATOM      6  C   UNL     1       0.947  -5.709   1.476  0.00  0.00    +0.111 C 
ATOM      7  C   UNL     1       2.094  -9.199   0.393  0.00  0.00    +0.089 C 
ATOM      8  N   UNL     1       3.204  -9.793   0.170  0.00  0.00    -0.374 N 
ATOM      9  C   UNL     1       4.444  -9.099  -0.161  0.00  0.00    +0.129 C 
ATOM     10  C   UNL     1       4.141  -7.667  -0.609  0.00  0.00    +0.102 C 
ATOM     11  N   UNL     1       3.238  -7.051   0.378  0.00  0.00    -0.303 NA
ATOM     12  N   UNL     1       1.001  -9.964   0.704  0.00  0.00    -0.329 N 
ATOM     13  H   UNL     1       3.153  -6.058   0.220  0.00  0.00    +0.123 HD
ATOM     14  H   UNL     1       0.146  -9.540   0.878  0.00  0.00    +0.147 HD
ATOM     15  H   UNL     1       3.223 -10.762   0.224  0.00  0.00    +0.161 HD
ENDROOT
BRANCH   1  16
ATOM     16  S   UNL     1      -0.950  -4.376   0.061  0.00  0.00    +0.061 S 
ATOM     17  O   UNL     1      -1.662  -4.544   1.280  0.00  0.00    -0.153 OA
ATOM     18  O   UNL     1      -1.536  -4.641  -1.206  0.00  0.00    -0.153 OA
BRANCH  16  23
ATOM     19  C   UNL     1       0.919   1.360  -0.067  0.00  0.00    +0.044 C 
ATOM     20  C   UNL     1       0.452  -0.073  -0.035  0.00  0.00    -0.050 A 
ATOM     21  C   UNL     1       0.175  -0.682   1.174  0.00  0.00    +0.008 A 
ATOM     22  C   UNL     1      -0.254  -1.996   1.204  0.00  0.00    -0.024 A 
ATOM     23  C   UNL     1      -0.405  -2.700   0.024  0.00  0.00    +0.111 A 
ATOM     24  C   UNL     1      -0.129  -2.090  -1.185  0.00  0.00    -0.024 A 
ATOM     25  C   UNL     1       0.295  -0.775  -1.215  0.00  0.00    +0.008 A 
ATOM     26  C   UNL     1      -0.294  -2.858  -2.472  0.00  0.00    +0.046 C 
ATOM     27  C   UNL     1      -0.555  -2.661   2.522  0.00  0.00    +0.046 C 
ENDBRANCH  16  23
ENDBRANCH   1  16
BRANCH  12  28
ATOM     28  C   UNL     1       1.123 -11.422   0.774  0.00  0.00    +0.138 C 
BRANCH  28  29
ATOM     29  C   UNL     1      -0.213 -12.021   1.132  0.00  0.00    -0.029 A 
ATOM     30  C   UNL     1      -0.551 -12.211   2.459  0.00  0.00    +0.008 A 
ATOM     31  C   UNL     1      -1.776 -12.761   2.789  0.00  0.00    +0.040 A 
ATOM     32  C   UNL     1      -2.664 -13.120   1.791  0.00  0.00    +0.142 A 
ATOM     33  C   UNL     1      -2.325 -12.929   0.461  0.00  0.00    +0.076 A 
ATOM     34  C   UNL     1      -1.101 -12.375   0.134  0.00  0.00    +0.028 A 
ATOM     35 CL   UNL     1      -3.438 -13.380  -0.793  0.00  0.00    -0.081 Cl
ATOM     36  F   UNL     1      -3.862 -13.658   2.112  0.00  0.00    -0.204 F 
ENDBRANCH  28  29
ENDBRANCH  12  28
TORSDOF 4
