REMARK  Name = ZINC09344980
REMARK  10 active torsions:
REMARK  status: ('A' for Active; 'I' for Inactive)
REMARK    1  A    between atoms: C_1  and  C_2
REMARK    2  A    between atoms: C_2  and  O_3
REMARK    3  A    between atoms: O_3  and  C_4
REMARK    4  A    between atoms: C_7  and  C_10
REMARK    5  A    between atoms: C_27  and  C_29
REMARK    6  A    between atoms: C_32  and  O_37
REMARK    7  A    between atoms: C_33  and  O_35
REMARK    8  A    between atoms: O_35  and  C_36
REMARK    9  A    between atoms: O_37  and  C_38
REMARK   10  A    between atoms: C_38  and  C_39
REMARK                            x       y       z     vdW  Elec       q    Type
REMARK                         _______ _______ _______ _____ _____    ______ ____
ROOT
ATOM      1  C   UNL     1       1.109  -6.040  -1.847  0.00  0.00    +0.234 C 
ATOM      2  C   UNL     1       0.051  -6.509  -2.802  0.00  0.00    +0.028 C 
ATOM      3  C   UNL     1       0.295  -6.558  -4.129  0.00  0.00    +0.083 C 
ATOM      4  C   UNL     1       1.643  -6.143  -4.593  0.00  0.00    +0.042 A 
ATOM      5  C   UNL     1       1.892  -5.848  -5.926  0.00  0.00    +0.013 A 
ATOM      6  C   UNL     1       3.162  -5.463  -6.314  0.00  0.00    +0.001 A 
ATOM      7  C   UNL     1       4.179  -5.373  -5.379  0.00  0.00    +0.004 A 
ATOM      8  C   UNL     1       3.938  -5.666  -4.049  0.00  0.00    +0.046 A 
ATOM      9  C   UNL     1       2.672  -6.054  -3.647  0.00  0.00    +0.131 A 
ATOM     10  O   UNL     1       2.408  -6.354  -2.354  0.00  0.00    -0.479 OA
ATOM     11  N   UNL     1      -0.653  -6.972  -5.004  0.00  0.00    -0.216 NA
ATOM     12  C   UNL     1      -1.859  -7.362  -4.656  0.00  0.00    +0.209 C 
ATOM     13  N   UNL     1      -2.925  -7.809  -5.393  0.00  0.00    -0.275 N 
ATOM     14  C   UNL     1      -3.955  -8.091  -4.528  0.00  0.00    +0.208 C 
ATOM     15  N   UNL     1      -3.577  -7.841  -3.316  0.00  0.00    -0.169 NA
ATOM     16  N   UNL     1      -2.261  -7.377  -3.352  0.00  0.00    -0.182 N 
ATOM     17  C   UNL     1      -1.314  -6.940  -2.316  0.00  0.00    +0.163 C 
ATOM     18  H   UNL     1      -2.948  -7.909  -6.357  0.00  0.00    +0.156 HD
ENDROOT
BRANCH   1  22
ATOM     19  C   UNL     1       0.777  -1.810  -1.336  0.00  0.00    +0.121 A 
ATOM     20  C   UNL     1       0.243  -2.669  -0.386  0.00  0.00    +0.046 A 
ATOM     21  C   UNL     1       0.351  -4.036  -0.554  0.00  0.00    +0.011 A 
ATOM     22  C   UNL     1       0.992  -4.548  -1.667  0.00  0.00    -0.003 A 
ATOM     23  C   UNL     1       1.525  -3.694  -2.615  0.00  0.00    +0.011 A 
ATOM     24  C   UNL     1       1.414  -2.327  -2.455  0.00  0.00    +0.046 A 
BRANCH  19  25
ATOM     25  O   UNL     1       0.671  -0.465  -1.174  0.00  0.00    -0.492 OA
BRANCH  25  27
ATOM     26  C   UNL     1      -0.019   1.526   0.010  0.00  0.00    +0.048 C 
ATOM     27  C   UNL     1       0.002  -0.004   0.002  0.00  0.00    +0.225 C 
ENDBRANCH  25  27
ENDBRANCH  19  25
ENDBRANCH   1  22
BRANCH  17  28
ATOM     28  C   UNL     1      -1.933  -5.786  -1.570  0.00  0.00    -0.017 A 
ATOM     29  C   UNL     1      -2.534  -4.756  -2.270  0.00  0.00    +0.009 A 
ATOM     30  C   UNL     1      -3.103  -3.695  -1.590  0.00  0.00    +0.050 A 
ATOM     31  C   UNL     1      -3.073  -3.663  -0.205  0.00  0.00    +0.162 A 
ATOM     32  C   UNL     1      -2.470  -4.700   0.499  0.00  0.00    +0.162 A 
ATOM     33  C   UNL     1      -1.905  -5.763  -0.188  0.00  0.00    +0.055 A 
BRANCH  32  34
ATOM     34  O   UNL     1      -2.438  -4.673   1.858  0.00  0.00    -0.491 OA
ATOM     35  C   UNL     1      -1.802  -5.772   2.514  0.00  0.00    +0.277 C 
ENDBRANCH  32  34
BRANCH  31  36
ATOM     36  O   UNL     1      -3.633  -2.620   0.464  0.00  0.00    -0.489 OA
BRANCH  36  37
ATOM     37  C   UNL     1      -4.234  -1.590  -0.324  0.00  0.00    +0.226 C 
ATOM     38  C   UNL     1      -4.805  -0.510   0.597  0.00  0.00    +0.048 C 
ENDBRANCH  36  37
ENDBRANCH  31  36
ENDBRANCH  17  28
TORSDOF 7
