REMARK  Name = ZINC12438182
REMARK  11 active torsions:
REMARK  status: ('A' for Active; 'I' for Inactive)
REMARK    1  A    between atoms: C_1  and  C_2
REMARK    2  A    between atoms: C_2  and  C_3
REMARK    3  A    between atoms: C_2  and  C_4
REMARK    4  A    between atoms: C_2  and  N_6
REMARK    5  A    between atoms: C_4  and  O_5
REMARK    6  A    between atoms: C_7  and  C_9
REMARK    7  A    between atoms: C_9  and  C_10
REMARK    8  A    between atoms: C_17  and  C_18
REMARK    9  A    between atoms: C_17  and  N_52
REMARK   10  A    between atoms: C_23  and  O_24
REMARK   11  A    between atoms: O_24  and  C_25
REMARK                            x       y       z     vdW  Elec       q    Type
REMARK                         _______ _______ _______ _____ _____    ______ ____
ROOT
ATOM      1  C   UNL     1       3.058   1.512   3.910  0.00  0.00    +0.028 C 
ATOM      2  C   UNL     1       3.675   0.862   5.116  0.00  0.00    +0.200 C 
ATOM      3  O   UNL     1       3.509  -0.328   5.283  0.00  0.00    -0.278 OA
ATOM      4  N   UNL     1       4.398   1.541   6.013  0.00  0.00    -0.318 N 
ATOM      5  C   UNL     1       4.626   2.980   5.923  0.00  0.00    +0.085 C 
ATOM      6  C   UNL     1       4.335   3.470   4.503  0.00  0.00    -0.058 C 
ATOM      7  H   UNL     1       4.789   1.055   6.756  0.00  0.00    +0.149 HD
ATOM      8  N   UNL     1       3.001   2.972   4.112  0.00  0.00    +0.391 N 
ATOM      9  H   UNL     1       2.332   3.181   4.862  0.00  0.00    -0.080 HD
ENDROOT
BRANCH   1  10
ATOM     10  C   UNL     1       1.636   0.980   3.717  0.00  0.00    +0.089 C 
BRANCH  10  12
ATOM     11  N   UNL     1      -0.529   1.090   4.908  0.00  0.00    -0.308 N 
ATOM     12  C   UNL     1       0.788   1.378   4.898  0.00  0.00    +0.212 C 
ATOM     13  O   UNL     1       1.289   1.957   5.838  0.00  0.00    -0.276 OA
ATOM     14  H   UNL     1      -0.930   0.627   4.156  0.00  0.00    +0.149 HD
BRANCH  11  16
ATOM     15  C   UNL     1      -1.306   2.996   6.229  0.00  0.00    +0.033 C 
ATOM     16  C   UNL     1      -1.354   1.477   6.056  0.00  0.00    +0.052 C 
ATOM     17  C   UNL     1      -0.818   0.802   7.320  0.00  0.00    +0.033 C 
BRANCH  16  18
ATOM     18  C   UNL     1      -2.799   1.036   5.816  0.00  0.00    +0.181 C 
BRANCH  18  19
ATOM     19  O   UNL     1      -3.604   1.413   6.935  0.00  0.00    -0.393 OA
ATOM     20  H   UNL     1      -4.535   1.164   6.852  0.00  0.00    +0.209 HD
ENDBRANCH  18  19
ENDBRANCH  16  18
ENDBRANCH  11  16
ENDBRANCH  10  12
ENDBRANCH   1  10
BRANCH   8  21
ATOM     21  C   UNL     1       2.554   3.639   2.868  0.00  0.00    -0.038 C 
BRANCH  21  22
ATOM     22  C   UNL     1       2.345   5.105   3.147  0.00  0.00    -0.022 A 
ATOM     23  C   UNL     1       1.096   5.568   3.512  0.00  0.00    +0.005 A 
ATOM     24  C   UNL     1       0.903   6.913   3.767  0.00  0.00    +0.000 A 
ATOM     25  C   UNL     1       1.960   7.798   3.658  0.00  0.00    +0.004 A 
ATOM     26  C   UNL     1       3.212   7.340   3.295  0.00  0.00    +0.046 A 
ATOM     27  C   UNL     1       3.408   5.990   3.042  0.00  0.00    +0.121 A 
BRANCH  27  28
ATOM     28  O   UNL     1       4.639   5.536   2.688  0.00  0.00    -0.495 OA
ATOM     29  C   UNL     1       5.687   6.504   2.600  0.00  0.00    +0.277 C 
ENDBRANCH  27  28
ENDBRANCH  21  22
ENDBRANCH   8  21
TORSDOF 8
