REMARK  Name = ZINC10475411
REMARK  10 active torsions:
REMARK  status: ('A' for Active; 'I' for Inactive)
REMARK    1  A    between atoms: C_4  and  C_7
REMARK    2  A    between atoms: C_7  and  O_8
REMARK    3  A    between atoms: O_8  and  C_9
REMARK    4  A    between atoms: C_12  and  C_16
REMARK    5  A    between atoms: C_16  and  N_52
REMARK    6  A    between atoms: C_17  and  C_18
REMARK    7  A    between atoms: C_17  and  N_52
REMARK    8  A    between atoms: C_18  and  S_19
REMARK    9  A    between atoms: S_19  and  C_20
REMARK   10  A    between atoms: N_24  and  C_25
REMARK                            x       y       z     vdW  Elec       q    Type
REMARK                         _______ _______ _______ _____ _____    ______ ____
ROOT
ATOM      1  N   UNL     1       2.856   4.189  -1.396  0.00  0.00    +0.382 N 
ATOM      2  H   UNL     1       2.124   4.734  -1.865  0.00  0.00    -0.085 HD
ATOM      3  H   UNL     1       2.979   3.292  -1.881  0.00  0.00    -0.085 HD
ENDROOT
BRANCH   1   4
ATOM      4  C   UNL     1       2.453   3.935   0.000  0.00  0.00    -0.047 C 
BRANCH   4   8
ATOM      5  C   UNL     1      -1.223   1.754   0.017  0.00  0.00    +0.135 A 
ATOM      6  C   UNL     1      -0.013   1.076   0.008  0.00  0.00    +0.047 A 
ATOM      7  C   UNL     1       1.174   1.783   0.000  0.00  0.00    +0.005 A 
ATOM      8  C   UNL     1       1.156   3.166   0.008  0.00  0.00    -0.063 A 
ATOM      9  C   UNL     1      -0.048   3.844   0.023  0.00  0.00    +0.020 A 
ATOM     10  C   UNL     1      -1.238   3.141   0.031  0.00  0.00    +0.060 A 
ATOM     11 BR   UNL     1      -2.886   4.069   0.052  0.00  0.00    -0.047 Br
BRANCH   5  12
ATOM     12  O   UNL     1      -2.392   1.060   0.019  0.00  0.00    -0.486 OA
BRANCH  12  13
ATOM     13  C   UNL     1      -2.300  -0.366   0.010  0.00  0.00    +0.264 C 
BRANCH  13  17
ATOM     14  C   UNL     1      -6.227  -2.047   0.018  0.00  0.00    +0.000 A 
ATOM     15  C   UNL     1      -5.597  -1.768  -1.180  0.00  0.00    +0.000 A 
ATOM     16  C   UNL     1      -4.326  -1.224  -1.183  0.00  0.00    +0.007 A 
ATOM     17  C   UNL     1      -3.685  -0.959   0.013  0.00  0.00    -0.010 A 
ATOM     18  C   UNL     1      -4.313  -1.243   1.211  0.00  0.00    +0.007 A 
ATOM     19  C   UNL     1      -5.586  -1.782   1.214  0.00  0.00    +0.000 A 
ENDBRANCH  13  17
ENDBRANCH  12  13
ENDBRANCH   5  12
ENDBRANCH   4   8
ENDBRANCH   1   4
BRANCH   1  20
ATOM     20  C   UNL     1       4.124   4.941  -1.434  0.00  0.00    -0.071 C 
BRANCH  20  21
ATOM     21  C   UNL     1       4.516   5.189  -2.892  0.00  0.00    +0.058 C 
BRANCH  21  22
ATOM     22  S   UNL     1       6.072   6.113  -2.949  0.00  0.00    -0.086 S 
BRANCH  22  23
ATOM     23  C   UNL     1       6.279   6.255  -4.693  0.00  0.00    +0.214 A 
ATOM     24  N   UNL     1       5.469   5.785  -5.618  0.00  0.00    -0.101 NA
ATOM     25  N   UNL     1       5.915   6.063  -6.790  0.00  0.00    -0.022 NA
ATOM     26  N   UNL     1       7.022   6.718  -6.706  0.00  0.00    -0.038 NA
ATOM     27  N   UNL     1       7.300   6.874  -5.337  0.00  0.00    -0.187 N 
BRANCH  27  28
ATOM     28  C   UNL     1       8.399   7.527  -4.760  0.00  0.00    +0.070 A 
ATOM     29  C   UNL     1       8.245   8.232  -3.574  0.00  0.00    +0.028 A 
ATOM     30  C   UNL     1       9.330   8.870  -3.005  0.00  0.00    +0.002 A 
ATOM     31  C   UNL     1      10.567   8.816  -3.622  0.00  0.00    +0.000 A 
ATOM     32  C   UNL     1      10.722   8.119  -4.806  0.00  0.00    +0.002 A 
ATOM     33  C   UNL     1       9.642   7.475  -5.377  0.00  0.00    +0.028 A 
ENDBRANCH  27  28
ENDBRANCH  22  23
ENDBRANCH  21  22
ENDBRANCH  20  21
ENDBRANCH   1  20
TORSDOF 10
