REMARK  Name = ZINC40717755
REMARK  3 active torsions:
REMARK  status: ('A' for Active; 'I' for Inactive)
REMARK    1  A    between atoms: C_1  and  C_2
REMARK    2  A    between atoms: N_6  and  C_8
REMARK    3  A    between atoms: C_13  and  N_14
REMARK                            x       y       z     vdW  Elec       q    Type
REMARK                         _______ _______ _______ _____ _____    ______ ____
ROOT
ATOM      1  C   UNL     1       0.709  -2.964   2.148  0.00  0.00    +0.052 A 
ATOM      2  C   UNL     1       1.555  -3.839   1.485  0.00  0.00    +0.048 A 
ATOM      3  C   UNL     1       2.151  -4.884   2.176  0.00  0.00    +0.038 A 
ATOM      4  C   UNL     1       1.901  -5.053   3.532  0.00  0.00    -0.024 A 
ATOM      5  C   UNL     1       1.058  -4.183   4.195  0.00  0.00    +0.030 A 
ATOM      6  C   UNL     1       0.464  -3.133   3.511  0.00  0.00    +0.046 A 
ATOM      7  C   UNL     1       2.552  -6.189   4.278  0.00  0.00    +0.046 C 
ATOM      8  C   UNL     1       2.689  -7.398   3.351  0.00  0.00    +0.101 C 
ATOM      9  C   UNL     1       3.293  -6.973   2.040  0.00  0.00    +0.218 C 
ATOM     10  O   UNL     1       4.047  -7.722   1.456  0.00  0.00    -0.275 OA
ATOM     11  N   UNL     1       3.007  -5.770   1.508  0.00  0.00    -0.285 N 
ATOM     12  H   UNL     1       3.395  -5.515   0.657  0.00  0.00    +0.155 HD
ENDROOT
BRANCH   1  17
ATOM     13  C   UNL     1      -0.019   1.526   0.010  0.00  0.00    +0.009 C 
ATOM     14  C   UNL     1       0.002  -0.004   0.002  0.00  0.00    +0.005 C 
ATOM     15  C   UNL     1      -1.433  -0.580   0.128  0.00  0.00    +0.023 C 
ATOM     16  C   UNL     1      -1.195  -1.962   0.773  0.00  0.00    +0.105 C 
ATOM     17  N   UNL     1       0.107  -1.908   1.453  0.00  0.00    -0.328 N 
ATOM     18  C   UNL     1       0.674  -0.557   1.283  0.00  0.00    +0.108 C 
ENDBRANCH   1  17
BRANCH   6  19
ATOM     19  N   UNL     1      -0.387  -2.247   4.186  0.00  0.00    -0.357 N 
ATOM     20  H   UNL     1      -0.805  -1.515   3.706  0.00  0.00    +0.142 HD
ATOM     21  H   UNL     1      -0.557  -2.365   5.134  0.00  0.00    +0.142 HD
ENDBRANCH   6  19
TORSDOF 2
