REMARK  Name = ZINC14539441
REMARK  8 active torsions:
REMARK  status: ('A' for Active; 'I' for Inactive)
REMARK    1  A    between atoms: C_1  and  O_2
REMARK    2  A    between atoms: O_2  and  C_3
REMARK    3  A    between atoms: C_3  and  C_4
REMARK    4  A    between atoms: C_4  and  N_5
REMARK    5  A    between atoms: N_8  and  C_29
REMARK    6  A    between atoms: C_16  and  C_17
REMARK    7  A    between atoms: C_16  and  N_70
REMARK    8  A    between atoms: C_22  and  C_23
REMARK                            x       y       z     vdW  Elec       q    Type
REMARK                         _______ _______ _______ _____ _____    ______ ____
ROOT
ATOM      1  N   UNL     1      -0.632   1.948   1.272  0.00  0.00    -0.269 N 
ATOM      2  C   UNL     1       0.008   2.281   2.409  0.00  0.00    +0.312 C 
ATOM      3  O   UNL     1       1.217   2.271   2.532  0.00  0.00    -0.252 OA
ATOM      4  N   UNL     1      -0.837   2.624   3.389  0.00  0.00    -0.220 N 
ATOM      5  C   UNL     1      -2.123   2.549   2.986  0.00  0.00    +0.247 C 
ATOM      6  O   UNL     1      -3.113   2.796   3.640  0.00  0.00    -0.273 OA
ATOM      7  C   UNL     1      -2.067   2.099   1.544  0.00  0.00    +0.112 C 
ATOM      8  C   UNL     1      -2.787   0.764   1.376  0.00  0.00    +0.017 C 
ATOM      9  C   UNL     1      -2.739   0.344  -0.096  0.00  0.00    -0.076 C 
ATOM     10  C   UNL     1      -2.634   2.657  -0.819  0.00  0.00    -0.076 C 
ATOM     11  C   UNL     1      -2.679   3.154   0.629  0.00  0.00    +0.017 C 
ATOM     12  N   UNL     1      -3.392   1.390  -0.913  0.00  0.00    +0.383 N 
ATOM     13  H   UNL     1      -4.343   1.544  -0.558  0.00  0.00    -0.081 HD
ENDROOT
BRANCH   4  14
ATOM     14  C   UNL     1      -0.418   3.032   4.732  0.00  0.00    +0.094 C 
ATOM     15  C   UNL     1       0.559   4.225   4.664  0.00  0.00    +0.058 C 
ATOM     16  C   UNL     1       1.543   3.992   5.795  0.00  0.00    -0.042 A 
ATOM     17  C   UNL     1       2.427   4.865   6.407  0.00  0.00    +0.004 A 
ATOM     18  C   UNL     1       3.237   4.426   7.436  0.00  0.00    +0.000 A 
ATOM     19  C   UNL     1       3.166   3.111   7.857  0.00  0.00    +0.000 A 
ATOM     20  C   UNL     1       2.285   2.239   7.248  0.00  0.00    +0.004 A 
ATOM     21  C   UNL     1       1.471   2.678   6.216  0.00  0.00    -0.042 A 
ATOM     22  C   UNL     1       0.439   1.933   5.397  0.00  0.00    +0.058 C 
ENDBRANCH   4  14
BRANCH   1  23
ATOM     23  C   UNL     1      -0.019   1.526   0.010  0.00  0.00    +0.138 C 
BRANCH  23  24
ATOM     24  C   UNL     1       0.716   0.200   0.220  0.00  0.00    +0.178 C 
BRANCH  24  26
ATOM     25  C   UNL     1       0.364  -2.093   0.825  0.00  0.00    +0.194 C 
ATOM     26  O   UNL     1      -0.222  -0.808   0.603  0.00  0.00    -0.381 OA
ENDBRANCH  24  26
ENDBRANCH  23  24
ENDBRANCH   1  23
BRANCH  12  27
ATOM     27  C   UNL     1      -3.471   0.953  -2.322  0.00  0.00    -0.039 C 
BRANCH  27  28
ATOM     28  C   UNL     1      -3.999  -0.457  -2.372  0.00  0.00    -0.019 A 
ATOM     29  C   UNL     1      -3.264  -1.577  -2.548  0.00  0.00    +0.107 A 
ATOM     30  N   UNL     1      -4.104  -2.634  -2.532  0.00  0.00    -0.284 N 
ATOM     31  H   UNL     1      -3.842  -3.593  -2.639  0.00  0.00    +0.188 HD
ATOM     32  N   UNL     1      -5.406  -2.154  -2.340  0.00  0.00    -0.174 NA
ATOM     33  C   UNL     1      -5.347  -0.843  -2.237  0.00  0.00    +0.094 A 
BRANCH  33  34
ATOM     34  C   UNL     1      -6.499   0.068  -2.022  0.00  0.00    +0.002 A 
ATOM     35  C   UNL     1      -6.348   1.214  -1.244  0.00  0.00    +0.010 A 
ATOM     36  C   UNL     1      -7.420   2.061  -1.052  0.00  0.00    +0.001 A 
ATOM     37  C   UNL     1      -8.647   1.768  -1.620  0.00  0.00    +0.000 A 
ATOM     38  C   UNL     1      -8.804   0.629  -2.389  0.00  0.00    +0.001 A 
ATOM     39  C   UNL     1      -7.737  -0.222  -2.592  0.00  0.00    +0.010 A 
ENDBRANCH  33  34
ENDBRANCH  27  28
ENDBRANCH  12  27
TORSDOF 7
