REMARK  Name = ZINC02314617
REMARK  5 active torsions:
REMARK  status: ('A' for Active; 'I' for Inactive)
REMARK    1  A    between atoms: C_6  and  C_7
REMARK    2  A    between atoms: C_8  and  C_9
REMARK    3  A    between atoms: C_9  and  C_11
REMARK    4  A    between atoms: C_11  and  C_12
REMARK    5  A    between atoms: C_12  and  O_23
REMARK                            x       y       z     vdW  Elec       q    Type
REMARK                         _______ _______ _______ _____ _____    ______ ____
ROOT
ATOM      1  C   UNL     1      -4.966  -0.088   0.049  0.00  0.00    +0.128 C 
ENDROOT
BRANCH   1   2
ATOM      2  C   UNL     1      -6.114  -1.101   0.055  0.00  0.00    +0.175 C 
ATOM      3  C   UNL     1      -7.438  -0.401  -0.148  0.00  0.00    +0.015 A 
ATOM      4  C   UNL     1      -8.112   0.555   0.578  0.00  0.00    +0.024 A 
ATOM      5  C   UNL     1      -9.340   1.019   0.136  0.00  0.00    +0.018 A 
ATOM      6  C   UNL     1      -9.884   0.518  -1.033  0.00  0.00    +0.017 A 
ATOM      7  C   UNL     1      -9.210  -0.441  -1.761  0.00  0.00    +0.025 A 
ATOM      8  C   UNL     1      -7.974  -0.912  -1.323  0.00  0.00    +0.040 A 
ATOM      9  N   UNL     1      -7.113  -1.862  -1.873  0.00  0.00    -0.282 N 
ATOM     10  C   UNL     1      -6.004  -2.033  -1.133  0.00  0.00    +0.254 C 
ATOM     11  O   UNL     1      -5.089  -2.792  -1.372  0.00  0.00    -0.272 OA
ATOM     12 BR   UNL     1     -10.270   2.332   1.129  0.00  0.00    -0.050 Br
ATOM     13  H   UNL     1      -7.293  -2.344  -2.696  0.00  0.00    +0.155 HD
BRANCH   2  14
ATOM     14  O   UNL     1      -6.118  -1.844   1.275  0.00  0.00    -0.374 OA
ATOM     15  H   UNL     1      -5.302  -2.336   1.439  0.00  0.00    +0.211 HD
ENDBRANCH   2  14
ENDBRANCH   1   2
BRANCH   1  16
ATOM     16  C   UNL     1      -3.650  -0.821   0.033  0.00  0.00    +0.160 C 
ATOM     17  O   UNL     1      -3.631  -2.036   0.026  0.00  0.00    -0.293 OA
BRANCH  16  19
ATOM     18  C   UNL     1      -1.257  -0.758   0.010  0.00  0.00    +0.011 C 
ATOM     19  C   UNL     1      -2.442  -0.098   0.025  0.00  0.00    +0.047 C 
BRANCH  18  25
ATOM     20  C   UNL     1      -0.017   1.396   0.010  0.00  0.00    +0.012 A 
ATOM     21  C   UNL     1       1.167   2.100   0.002  0.00  0.00    +0.050 A 
ATOM     22  C   UNL     1       2.381   1.427  -0.013  0.00  0.00    +0.166 A 
ATOM     23  C   UNL     1       2.409   0.030  -0.021  0.00  0.00    +0.167 A 
ATOM     24  C   UNL     1       1.228  -0.683  -0.014  0.00  0.00    +0.057 A 
ATOM     25  C   UNL     1       0.002  -0.004   0.002  0.00  0.00    -0.021 A 
ATOM     26  O   UNL     1       3.711  -0.379  -0.036  0.00  0.00    -0.453 OA
ATOM     27  C   UNL     1       4.470   0.772  -0.451  0.00  0.00    +0.466 C 
ATOM     28  O   UNL     1       3.665   1.886  -0.023  0.00  0.00    -0.453 OA
ENDBRANCH  18  25
ENDBRANCH  16  19
ENDBRANCH   1  16
TORSDOF 5
