REMARK  Name = ZINC11321279
REMARK  7 active torsions:
REMARK  status: ('A' for Active; 'I' for Inactive)
REMARK    1  A    between atoms: C_1  and  N_2
REMARK    2  A    between atoms: C_3  and  C_27
REMARK    3  A    between atoms: C_6  and  S_7
REMARK    4  A    between atoms: S_7  and  C_8
REMARK    5  A    between atoms: C_8  and  C_9
REMARK    6  A    between atoms: N_11  and  C_12
REMARK    7  A    between atoms: C_12  and  C_17
REMARK                            x       y       z     vdW  Elec       q    Type
REMARK                         _______ _______ _______ _____ _____    ______ ____
ROOT
ATOM      1  C   UNL     1       5.731   0.774  -0.060  0.00  0.00    +0.224 C 
ATOM      2  O   UNL     1       4.941   1.079  -0.929  0.00  0.00    -0.275 OA
ATOM      3  N   UNL     1       5.732  -0.477   0.441  0.00  0.00    -0.305 N 
ATOM      4  H   UNL     1       6.311  -0.700   1.187  0.00  0.00    +0.150 HD
ENDROOT
BRANCH   3   5
ATOM      5  C   UNL     1       4.859  -1.500  -0.141  0.00  0.00    +0.060 C 
ATOM      6  C   UNL     1       5.138  -1.633  -1.653  0.00  0.00    +0.030 C 
ATOM      7  C   UNL     1       6.134  -2.816  -1.752  0.00  0.00    +0.002 C 
ATOM      8  C   UNL     1       5.616  -3.792  -0.666  0.00  0.00    +0.002 C 
ATOM      9  C   UNL     1       5.164  -2.871   0.486  0.00  0.00    +0.030 C 
BRANCH   5  10
ATOM     10  C   UNL     1       3.415  -1.136   0.087  0.00  0.00    -0.020 A 
ATOM     11  C   UNL     1       3.085  -0.173   1.023  0.00  0.00    +0.009 A 
ATOM     12  C   UNL     1       1.762   0.161   1.238  0.00  0.00    +0.050 A 
ATOM     13  C   UNL     1       0.760  -0.469   0.514  0.00  0.00    +0.162 A 
ATOM     14  C   UNL     1       1.091  -1.434  -0.429  0.00  0.00    +0.162 A 
ATOM     15  C   UNL     1       2.422  -1.766  -0.638  0.00  0.00    +0.055 A 
ATOM     16  O   UNL     1       0.125  -2.059  -1.156  0.00  0.00    -0.485 OA
ATOM     17  C   UNL     1      -1.214  -1.971  -0.657  0.00  0.00    +0.270 C 
ATOM     18  C   UNL     1      -1.486  -0.512  -0.265  0.00  0.00    +0.270 C 
ATOM     19  O   UNL     1      -0.540  -0.135   0.742  0.00  0.00    -0.485 OA
ENDBRANCH   5  10
ENDBRANCH   3   5
BRANCH   1  20
ATOM     20  C   UNL     1       6.710   1.795   0.460  0.00  0.00    +0.173 C 
BRANCH  20  21
ATOM     21  S   UNL     1       6.460   3.366  -0.404  0.00  0.00    -0.077 S 
BRANCH  21  27
ATOM     22  C   UNL     1       7.316   6.527  -0.857  0.00  0.00    +0.153 C 
ATOM     23  N   UNL     1       7.978   5.657   0.118  0.00  0.00    -0.305 N 
ATOM     24  C   UNL     1       9.011   5.991   0.963  0.00  0.00    +0.165 A 
ATOM     25  N   UNL     1       9.298   4.918   1.663  0.00  0.00    -0.128 NA
ATOM     26  N   UNL     1       8.523   3.951   1.323  0.00  0.00    -0.122 NA
ATOM     27  C   UNL     1       7.699   4.345   0.378  0.00  0.00    +0.192 A 
BRANCH  24  28
ATOM     28  C   UNL     1       9.673   7.309   1.064  0.00  0.00    +0.019 A 
ATOM     29  C   UNL     1      10.922   7.421   1.676  0.00  0.00    +0.013 A 
ATOM     30  C   UNL     1      11.538   8.652   1.762  0.00  0.00    +0.021 A 
ATOM     31  C   UNL     1      10.913   9.778   1.252  0.00  0.00    +0.041 A 
ATOM     32  C   UNL     1       9.671   9.674   0.649  0.00  0.00    +0.021 A 
ATOM     33  C   UNL     1       9.049   8.447   0.552  0.00  0.00    +0.013 A 
ATOM     34 CL   UNL     1      11.690  11.326   1.371  0.00  0.00    -0.084 Cl
ENDBRANCH  24  28
ENDBRANCH  21  27
ENDBRANCH  20  21
ENDBRANCH   1  20
TORSDOF 6
