REMARK  Name = ZINC05854230
REMARK  5 active torsions:
REMARK  status: ('A' for Active; 'I' for Inactive)
REMARK    1  A    between atoms: C_4  and  C_7
REMARK    2  A    between atoms: N_9  and  C_10
REMARK    3  A    between atoms: C_10  and  C_21
REMARK    4  A    between atoms: C_11  and  C_12
REMARK    5  A    between atoms: N_23  and  C_24
REMARK                            x       y       z     vdW  Elec       q    Type
REMARK                         _______ _______ _______ _____ _____    ______ ____
ROOT
ATOM      1  C   UNL     1       3.731   1.383   0.950  0.00  0.00    +0.097 C 
ATOM      2  C   UNL     1       4.173   2.486   0.299  0.00  0.00    +0.036 C 
ENDROOT
BRANCH   2   3
ATOM      3  C   UNL     1       3.212   3.391  -0.348  0.00  0.00    -0.019 A 
ATOM      4  C   UNL     1       2.019   2.887  -0.877  0.00  0.00    +0.012 A 
ATOM      5  C   UNL     1       1.119   3.739  -1.478  0.00  0.00    +0.050 A 
ATOM      6  C   UNL     1       1.395   5.096  -1.571  0.00  0.00    +0.166 A 
ATOM      7  C   UNL     1       2.585   5.606  -1.051  0.00  0.00    +0.167 A 
ATOM      8  C   UNL     1       3.491   4.759  -0.442  0.00  0.00    +0.057 A 
ATOM      9  O   UNL     1       2.614   6.953  -1.268  0.00  0.00    -0.453 OA
ATOM     10  C   UNL     1       1.254   7.324  -1.558  0.00  0.00    +0.466 C 
ATOM     11  O   UNL     1       0.682   6.125  -2.113  0.00  0.00    -0.453 OA
ENDBRANCH   2   3
BRANCH   1  14
ATOM     12  C   UNL     1       4.218  -0.600   2.170  0.00  0.00    +0.248 C 
ATOM     13  O   UNL     1       3.028  -0.762   2.359  0.00  0.00    -0.270 OA
ATOM     14  N   UNL     1       4.647   0.438   1.425  0.00  0.00    -0.277 N 
ATOM     15  H   UNL     1       5.590   0.530   1.218  0.00  0.00    +0.155 HD
BRANCH  12  19
ATOM     16  C   UNL     1       7.024  -3.306   3.856  0.00  0.00    +0.000 A 
ATOM     17  C   UNL     1       5.671  -3.494   4.073  0.00  0.00    +0.001 A 
ATOM     18  C   UNL     1       4.754  -2.618   3.529  0.00  0.00    +0.013 A 
ATOM     19  C   UNL     1       5.195  -1.542   2.756  0.00  0.00    +0.037 A 
ATOM     20  C   UNL     1       6.561  -1.362   2.537  0.00  0.00    +0.013 A 
ATOM     21  C   UNL     1       7.468  -2.242   3.091  0.00  0.00    +0.001 A 
ENDBRANCH  12  19
ENDBRANCH   1  14
BRANCH   1  22
ATOM     22  C   UNL     1       2.292   1.180   1.157  0.00  0.00    +0.258 C 
ATOM     23  O   UNL     1       1.713   0.285   0.570  0.00  0.00    -0.269 OA
ATOM     24  N   UNL     1       1.611   1.985   1.997  0.00  0.00    -0.307 N 
ATOM     25  H   UNL     1       2.056   2.742   2.409  0.00  0.00    +0.149 HD
BRANCH  24  26
ATOM     26  C   UNL     1       0.201   1.716   2.288  0.00  0.00    +0.073 C 
ATOM     27  C   UNL     1       0.099   0.629   3.359  0.00  0.00    +0.022 C 
ATOM     28  C   UNL     1      -1.374   0.348   3.663  0.00  0.00    +0.002 C 
ATOM     29  C   UNL     1      -2.043   1.628   4.169  0.00  0.00    +0.000 C 
ATOM     30  C   UNL     1      -1.942   2.715   3.097  0.00  0.00    +0.002 C 
ATOM     31  C   UNL     1      -0.468   2.995   2.794  0.00  0.00    +0.022 C 
ENDBRANCH  24  26
ENDBRANCH   1  22
TORSDOF 5
