REMARK  Name = ZINC62794830
REMARK  4 active torsions:
REMARK  status: ('A' for Active; 'I' for Inactive)
REMARK    1  A    between atoms: C_1  and  N_2
REMARK    2  A    between atoms: C_6  and  S_7
REMARK    3  A    between atoms: S_7  and  C_8
REMARK    4  A    between atoms: C_11  and  C_15
REMARK                            x       y       z     vdW  Elec       q    Type
REMARK                         _______ _______ _______ _____ _____    ______ ____
ROOT
ATOM      1  C   UNL     1       0.102  -1.793   3.783  0.00  0.00    +0.034 A 
ATOM      2  C   UNL     1       0.215  -3.047   3.188  0.00  0.00    +0.017 A 
ATOM      3  C   UNL     1       0.268  -4.178   3.969  0.00  0.00    +0.012 A 
ATOM      4  C   UNL     1       0.209  -4.069   5.361  0.00  0.00    +0.014 A 
ATOM      5  C   UNL     1       0.096  -2.810   5.956  0.00  0.00    +0.032 A 
ATOM      6  C   UNL     1       0.048  -1.680   5.170  0.00  0.00    +0.055 A 
ATOM      7 CL   UNL     1      -0.086  -0.115   5.908  0.00  0.00    -0.082 Cl
ENDROOT
BRANCH   4   8
ATOM      8  C   UNL     1       0.266  -5.282   6.201  0.00  0.00    +0.094 C 
ATOM      9  N   UNL     1       0.209  -5.176   7.529  0.00  0.00    -0.387 N 
ATOM     10  N   UNL     1       0.373  -6.482   5.632  0.00  0.00    -0.345 N 
ATOM     11  H   UNL     1       0.246  -5.973   8.081  0.00  0.00    +0.157 HD
ATOM     12  H   UNL     1       0.414  -6.559   4.666  0.00  0.00    +0.144 HD
ATOM     13  H   UNL     1       0.410  -7.279   6.184  0.00  0.00    +0.144 HD
ATOM     14  H   UNL     1       0.131  -4.303   7.943  0.00  0.00    +0.157 HD
ENDBRANCH   4   8
BRANCH   1  15
ATOM     15  S   UNL     1       0.033  -0.346   2.779  0.00  0.00    -0.049 S 
BRANCH  15  21
ATOM     16  C   UNL     1      -1.512   2.296   1.529  0.00  0.00    +0.152 C 
ATOM     17  N   UNL     1      -2.212   1.242   2.266  0.00  0.00    -0.311 N 
ATOM     18  C   UNL     1      -3.550   1.175   2.539  0.00  0.00    +0.225 A 
ATOM     19  N   UNL     1      -3.754   0.079   3.213  0.00  0.00    -0.137 NA
ATOM     20  N   UNL     1      -2.645  -0.548   3.383  0.00  0.00    -0.122 NA
ATOM     21  C   UNL     1      -1.666   0.119   2.817  0.00  0.00    +0.196 A 
ENDBRANCH  15  21
ENDBRANCH   1  15
TORSDOF 3
