REMARK  Name = ZINC39943994
REMARK  12 active torsions:
REMARK  status: ('A' for Active; 'I' for Inactive)
REMARK    1  A    between atoms: C_1  and  C_2
REMARK    2  A    between atoms: C_4  and  C_12
REMARK    3  A    between atoms: C_12  and  C_14
REMARK    4  A    between atoms: C_14  and  C_16
REMARK    5  A    between atoms: C_14  and  O_17
REMARK    6  A    between atoms: O_17  and  C_18
REMARK    7  A    between atoms: C_18  and  C_20
REMARK    8  A    between atoms: C_20  and  C_21
REMARK    9  A    between atoms: C_21  and  N_22
REMARK   10  A    between atoms: N_22  and  S_23
REMARK   11  A    between atoms: S_23  and  C_26
REMARK   12  A    between atoms: C_30  and  C_32
REMARK                            x       y       z     vdW  Elec       q    Type
REMARK                         _______ _______ _______ _____ _____    ______ ____
ROOT
ATOM      1  C   UNL     1      -6.002  -0.272  -1.185  0.00  0.00    +0.309 C 
ATOM      2  O   UNL     1      -6.310  -0.732  -0.111  0.00  0.00    -0.251 OA
ENDROOT
BRANCH   1   3
ATOM      3  O   UNL     1      -4.727  -0.331  -1.600  0.00  0.00    -0.454 OA
BRANCH   3   4
ATOM      4  C   UNL     1      -3.787  -0.953  -0.721  0.00  0.00    +0.244 C 
ATOM      5  C   UNL     1      -3.714  -2.450  -1.030  0.00  0.00    +0.061 C 
BRANCH   4   6
ATOM      6  C   UNL     1      -2.428  -0.333  -0.919  0.00  0.00    +0.202 C 
ATOM      7  O   UNL     1      -2.209   0.349  -1.899  0.00  0.00    -0.288 OA
BRANCH   6  10
ATOM      8  C   UNL     1      -0.019   1.526   0.010  0.00  0.00    +0.035 C 
ATOM      9  C   UNL     1       0.002  -0.004   0.002  0.00  0.00    +0.111 C 
ATOM     10  C   UNL     1      -1.411  -0.544   0.036  0.00  0.00    +0.030 C 
ATOM     11  C   UNL     1      -1.496  -1.289   1.198  0.00  0.00    +0.007 A 
ATOM     12  C   UNL     1      -2.543  -2.035   1.788  0.00  0.00    +0.010 A 
ATOM     13  C   UNL     1      -2.344  -2.680   2.960  0.00  0.00    +0.001 A 
ATOM     14  C   UNL     1      -1.116  -2.646   3.640  0.00  0.00    +0.002 A 
ATOM     15  C   UNL     1      -0.053  -1.963   3.162  0.00  0.00    +0.026 A 
ATOM     16  C   UNL     1      -0.185  -1.232   1.891  0.00  0.00    +0.043 A 
ATOM     17  N   UNL     1       0.660  -0.506   1.212  0.00  0.00    -0.377 N 
ATOM     18  H   UNL     1       1.578  -0.327   1.468  0.00  0.00    +0.160 HD
ENDBRANCH   6  10
ENDBRANCH   4   6
ENDBRANCH   3   4
ENDBRANCH   1   3
BRANCH   1  19
ATOM     19  C   UNL     1      -7.050   0.370  -2.058  0.00  0.00    +0.137 C 
BRANCH  19  20
ATOM     20  C   UNL     1      -8.408   0.307  -1.355  0.00  0.00    +0.117 C 
BRANCH  20  21
ATOM     21  N   UNL     1      -9.426   0.930  -2.204  0.00  0.00    -0.189 NA
ATOM     22  H   UNL     1      -9.159   1.487  -2.953  0.00  0.00    +0.148 HD
BRANCH  21  23
ATOM     23  S   UNL     1     -11.033   0.685  -1.886  0.00  0.00    +0.058 S 
ATOM     24  O   UNL     1     -11.757   1.433  -2.853  0.00  0.00    -0.153 OA
ATOM     25  O   UNL     1     -11.205  -0.715  -1.720  0.00  0.00    -0.153 OA
BRANCH  23  26
ATOM     26  C   UNL     1     -11.372   1.423  -0.322  0.00  0.00    +0.106 A 
ATOM     27  C   UNL     1     -11.235   0.682   0.837  0.00  0.00    +0.028 A 
ATOM     28  C   UNL     1     -11.501   1.261   2.063  0.00  0.00    +0.002 A 
ATOM     29  C   UNL     1     -11.905   2.581   2.131  0.00  0.00    +0.012 A 
ATOM     30  C   UNL     1     -12.041   3.323   0.973  0.00  0.00    +0.057 A 
ATOM     31  C   UNL     1     -11.771   2.745  -0.254  0.00  0.00    +0.041 A 
BRANCH  30  32
ATOM     32  C   UNL     1     -12.482   4.762   1.047  0.00  0.00    +0.417 C 
ATOM     33  F   UNL     1     -12.690   5.118   2.384  0.00  0.00    -0.166 F 
ATOM     34  F   UNL     1     -11.491   5.582   0.495  0.00  0.00    -0.166 F 
ATOM     35  F   UNL     1     -13.673   4.923   0.331  0.00  0.00    -0.166 F 
ENDBRANCH  30  32
ENDBRANCH  23  26
ENDBRANCH  21  23
ENDBRANCH  20  21
ENDBRANCH  19  20
ENDBRANCH   1  19
TORSDOF 10
