REMARK  Name = ZINC41685590
REMARK  9 active torsions:
REMARK  status: ('A' for Active; 'I' for Inactive)
REMARK    1  A    between atoms: C_1  and  C_2
REMARK    2  A    between atoms: C_2  and  O_3
REMARK    3  A    between atoms: O_3  and  C_4
REMARK    4  A    between atoms: C_4  and  C_6
REMARK    5  A    between atoms: C_6  and  C_7
REMARK    6  A    between atoms: C_7  and  N_8
REMARK    7  A    between atoms: N_8  and  C_9
REMARK    8  A    between atoms: C_9  and  C_10
REMARK    9  A    between atoms: N_12  and  C_13
REMARK                            x       y       z     vdW  Elec       q    Type
REMARK                         _______ _______ _______ _____ _____    ______ ____
ROOT
ATOM      1  C   UNL     1       1.688  -7.207  -5.015  0.00  0.00    +0.200 C 
ATOM      2  O   UNL     1       1.110  -7.054  -6.070  0.00  0.00    -0.278 OA
ATOM      3  N   UNL     1       2.904  -7.790  -4.992  0.00  0.00    -0.285 N 
ATOM      4  H   UNL     1       3.398  -7.847  -4.159  0.00  0.00    +0.155 HD
ENDROOT
BRANCH   3   5
ATOM      5  C   UNL     1       3.453  -8.312  -6.169  0.00  0.00    +0.062 A 
ATOM      6  C   UNL     1       4.259  -7.516  -6.973  0.00  0.00    +0.041 A 
ATOM      7  C   UNL     1       4.800  -8.034  -8.135  0.00  0.00    +0.032 A 
ATOM      8  C   UNL     1       4.539  -9.344  -8.497  0.00  0.00    +0.020 A 
ATOM      9  C   UNL     1       3.736 -10.139  -7.698  0.00  0.00    +0.032 A 
ATOM     10  C   UNL     1       3.198  -9.628  -6.532  0.00  0.00    +0.041 A 
ATOM     11 BR   UNL     1       2.108 -10.718  -5.437  0.00  0.00    -0.048 Br
ATOM     12 BR   UNL     1       5.281 -10.049 -10.087  0.00  0.00    -0.050 Br
ATOM     13 BR   UNL     1       4.615  -5.726  -6.480  0.00  0.00    -0.048 Br
ENDBRANCH   3   5
BRANCH   1  14
ATOM     14  C   UNL     1       1.048  -6.747  -3.731  0.00  0.00    +0.015 C 
BRANCH  14  15
ATOM     15  N   UNL     1      -0.262  -6.151  -4.023  0.00  0.00    +0.385 N 
ATOM     16  H   UNL     1      -0.853  -6.839  -4.466  0.00  0.00    -0.085 HD
ATOM     17  H   UNL     1      -0.142  -5.362  -4.640  0.00  0.00    -0.085 HD
BRANCH  15  18
ATOM     18  C   UNL     1      -0.886  -5.703  -2.771  0.00  0.00    -0.071 C 
BRANCH  18  19
ATOM     19  C   UNL     1      -2.251  -5.082  -3.075  0.00  0.00    +0.101 C 
BRANCH  19  20
ATOM     20  C   UNL     1      -2.891  -4.622  -1.790  0.00  0.00    +0.305 C 
ATOM     21  O   UNL     1      -2.315  -4.775  -0.740  0.00  0.00    -0.251 OA
BRANCH  20  22
ATOM     22  O   UNL     1      -4.101  -4.042  -1.814  0.00  0.00    -0.465 OA
BRANCH  22  24
ATOM     23  C   UNL     1      -6.022  -2.996  -0.785  0.00  0.00    +0.048 C 
ATOM     24  C   UNL     1      -4.648  -3.631  -0.559  0.00  0.00    +0.229 C 
ENDBRANCH  22  24
ENDBRANCH  20  22
ENDBRANCH  19  20
ENDBRANCH  18  19
ENDBRANCH  15  18
ENDBRANCH  14  15
ENDBRANCH   1  14
TORSDOF 8
