REMARK  Name = ZINC09353991
REMARK  8 active torsions:
REMARK  status: ('A' for Active; 'I' for Inactive)
REMARK    1  A    between atoms: C_1  and  C_2
REMARK    2  A    between atoms: C_5  and  N_9
REMARK    3  A    between atoms: C_10  and  C_12
REMARK    4  A    between atoms: C_12  and  S_13
REMARK    5  A    between atoms: S_13  and  C_14
REMARK    6  A    between atoms: C_15  and  C_31
REMARK    7  A    between atoms: C_16  and  C_22
REMARK    8  A    between atoms: C_25  and  N_28
REMARK                            x       y       z     vdW  Elec       q    Type
REMARK                         _______ _______ _______ _____ _____    ______ ____
ROOT
ATOM      1  C   UNL     1       3.860  -6.551  -0.525  0.00  0.00    +0.082 C 
ATOM      2  C   UNL     1       4.922  -7.394  -0.650  0.00  0.00    +0.065 C 
ATOM      3  C   UNL     1       4.699  -8.880  -0.759  0.00  0.00    +0.070 C 
ATOM      4  C   UNL     1       3.484  -9.275   0.083  0.00  0.00    +0.109 C 
ATOM      5  C   UNL     1       2.341  -8.340  -0.212  0.00  0.00    +0.218 C 
ATOM      6  O   UNL     1       1.202  -8.758  -0.195  0.00  0.00    -0.275 OA
ATOM      7  N   UNL     1       2.574  -7.046  -0.489  0.00  0.00    -0.279 N 
ATOM      8  H   UNL     1       1.722  -6.379  -0.690  0.00  0.00    +0.155 HD
ENDROOT
BRANCH   3   9
ATOM      9  C   UNL     1       4.453  -9.248  -2.200  0.00  0.00    -0.039 A 
ATOM     10  C   UNL     1       3.379  -8.703  -2.878  0.00  0.00    +0.006 A 
ATOM     11  C   UNL     1       3.156  -9.037  -4.201  0.00  0.00    +0.033 A 
ATOM     12  C   UNL     1       4.002  -9.922  -4.842  0.00  0.00    +0.126 A 
ATOM     13  C   UNL     1       5.073 -10.471  -4.162  0.00  0.00    +0.033 A 
ATOM     14  C   UNL     1       5.298 -10.134  -2.841  0.00  0.00    +0.006 A 
BRANCH  12  15
ATOM     15  N   UNL     1       3.761 -10.283  -6.258  0.00  0.00    +0.056 N 
ATOM     16  O   UNL     1       4.506 -11.062  -6.823  0.00  0.00    -0.126 OA
ATOM     17  O   UNL     1       2.817  -9.799  -6.857  0.00  0.00    -0.126 OA
ENDBRANCH  12  15
ENDBRANCH   3   9
BRANCH   2  18
ATOM     18  C   UNL     1       6.253  -6.867  -0.680  0.00  0.00    +0.098 C 
ATOM     19  N   UNL     1       7.309  -6.449  -0.704  0.00  0.00    -0.191 NA
ENDBRANCH   2  18
BRANCH   1  20
ATOM     20  S   UNL     1       4.133  -4.815  -0.399  0.00  0.00    -0.100 S 
BRANCH  20  21
ATOM     21  C   UNL     1       2.423  -4.237  -0.260  0.00  0.00    +0.171 C 
BRANCH  21  23
ATOM     22  N   UNL     1       1.236  -2.080  -0.021  0.00  0.00    -0.285 N 
ATOM     23  C   UNL     1       2.408  -2.735  -0.138  0.00  0.00    +0.227 C 
ATOM     24  O   UNL     1       3.451  -2.116  -0.144  0.00  0.00    -0.275 OA
ATOM     25  H   UNL     1       0.297  -2.645   0.072  0.00  0.00    +0.155 HD
BRANCH  22  30
ATOM     26  C   UNL     1       1.149   3.593  -0.012  0.00  0.00    +0.045 C 
ATOM     27  C   UNL     1       1.172   2.086  -0.015  0.00  0.00    -0.032 A 
ATOM     28  C   UNL     1       2.114   1.411  -0.769  0.00  0.00    +0.006 A 
ATOM     29  C   UNL     1       2.138   0.031  -0.774  0.00  0.00    +0.023 A 
ATOM     30  C   UNL     1       1.214  -0.681  -0.019  0.00  0.00    +0.035 A 
ATOM     31  C   UNL     1       0.269  -0.002   0.738  0.00  0.00    +0.043 A 
ATOM     32  C   UNL     1       0.251   1.381   0.739  0.00  0.00    +0.046 A 
ATOM     33 CL   UNL     1      -0.930   2.232   1.685  0.00  0.00    -0.083 Cl
ENDBRANCH  22  30
ENDBRANCH  21  23
ENDBRANCH  20  21
ENDBRANCH   1  20
TORSDOF 7
