REMARK  Name = ZINC22572367
REMARK  9 active torsions:
REMARK  status: ('A' for Active; 'I' for Inactive)
REMARK    1  A    between atoms: C_1  and  C_2
REMARK    2  A    between atoms: C_5  and  N_9
REMARK    3  A    between atoms: C_6  and  C_8
REMARK    4  A    between atoms: C_18  and  S_19
REMARK    5  A    between atoms: S_19  and  C_20
REMARK    6  A    between atoms: C_20  and  C_22
REMARK    7  A    between atoms: C_20  and  C_25
REMARK    8  A    between atoms: C_22  and  C_23
REMARK    9  A    between atoms: C_22  and  C_24
REMARK                            x       y       z     vdW  Elec       q    Type
REMARK                         _______ _______ _______ _____ _____    ______ ____
ROOT
ATOM      1  N   UNL     1       0.804   1.761  -4.627  0.00  0.00    -0.255 N 
ATOM      2  C   UNL     1       0.796   1.725  -3.281  0.00  0.00    +0.268 A 
ATOM      3  O   UNL     1       1.720   1.216  -2.671  0.00  0.00    -0.267 OA
ATOM      4  C   UNL     1      -0.313   2.292  -2.580  0.00  0.00    +0.076 A 
ATOM      5  C   UNL     1      -0.525   2.360  -1.124  0.00  0.00    -0.023 A 
ATOM      6  C   UNL     1      -1.655   2.949  -0.702  0.00  0.00    -0.004 A 
ATOM      7  S   UNL     1      -2.500   3.442  -2.186  0.00  0.00    -0.073 S 
ATOM      8  C   UNL     1      -1.323   2.853  -3.375  0.00  0.00    +0.117 A 
ATOM      9  N   UNL     1      -1.257   2.858  -4.702  0.00  0.00    -0.215 NA
ATOM     10  C   UNL     1      -0.225   2.328  -5.326  0.00  0.00    +0.178 A 
ATOM     11  C   UNL     1      -1.762   2.964   0.800  0.00  0.00    +0.043 C 
ATOM     12  C   UNL     1      -0.323   2.682   1.294  0.00  0.00    +0.010 C 
ATOM     13  C   UNL     1       0.266   1.900   0.104  0.00  0.00    +0.037 C 
ENDROOT
BRANCH   1  18
ATOM     14  C   UNL     1       5.189  -0.479  -7.447  0.00  0.00    +0.044 C 
ATOM     15  C   UNL     1       4.025   0.116  -6.699  0.00  0.00    -0.050 A 
ATOM     16  C   UNL     1       4.052   1.447  -6.324  0.00  0.00    +0.005 A 
ATOM     17  C   UNL     1       2.987   1.995  -5.638  0.00  0.00    +0.027 A 
ATOM     18  C   UNL     1       1.886   1.208  -5.324  0.00  0.00    +0.055 A 
ATOM     19  C   UNL     1       1.863  -0.129  -5.697  0.00  0.00    -0.026 A 
ATOM     20  C   UNL     1       2.930  -0.670  -6.387  0.00  0.00    +0.008 A 
ATOM     21  C   UNL     1       0.674  -0.988  -5.353  0.00  0.00    +0.046 C 
ENDBRANCH   1  18
BRANCH  10  22
ATOM     22  S   UNL     1      -0.170   2.351  -7.087  0.00  0.00    -0.074 S 
BRANCH  22  23
ATOM     23  C   UNL     1      -1.802   3.049  -7.444  0.00  0.00    +0.143 C 
BRANCH  23  24
ATOM     24  C   UNL     1      -2.868   2.057  -7.055  0.00  0.00    +0.234 C 
ATOM     25  O   UNL     1      -2.588   0.884  -6.932  0.00  0.00    -0.274 OA
ATOM     26  N   UNL     1      -4.131   2.475  -6.844  0.00  0.00    -0.239 N 
ATOM     27  C   UNL     1      -5.085   1.588  -6.496  0.00  0.00    +0.303 C 
ATOM     28  O   UNL     1      -4.805   0.411  -6.373  0.00  0.00    -0.253 OA
ATOM     29  N   UNL     1      -6.349   2.005  -6.285  0.00  0.00    -0.313 N 
ATOM     30  H   UNL     1      -4.385   3.539  -6.955  0.00  0.00    +0.159 HD
ATOM     31  H   UNL     1      -7.127   1.281  -6.001  0.00  0.00    +0.146 HD
ATOM     32  H   UNL     1      -6.602   3.070  -6.396  0.00  0.00    +0.146 HD
ENDBRANCH  23  24
BRANCH  23  33
ATOM     33  C   UNL     1      -1.910   3.354  -8.939  0.00  0.00    +0.005 C 
ATOM     34  C   UNL     1      -3.301   3.913  -9.246  0.00  0.00    +0.009 C 
ATOM     35  C   UNL     1      -0.850   4.387  -9.327  0.00  0.00    +0.009 C 
ENDBRANCH  23  33
ENDBRANCH  22  23
ENDBRANCH  10  22
TORSDOF 5
