REMARK  Name = ZINC14752446
REMARK  11 active torsions:
REMARK  status: ('A' for Active; 'I' for Inactive)
REMARK    1  A    between atoms: C_1  and  C_2
REMARK    2  A    between atoms: C_2  and  C_3
REMARK    3  A    between atoms: C_2  and  C_4
REMARK    4  A    between atoms: C_4  and  N_5
REMARK    5  A    between atoms: C_8  and  C_10
REMARK    6  A    between atoms: C_19  and  N_67
REMARK    7  A    between atoms: C_23  and  C_24
REMARK    8  A    between atoms: C_23  and  N_67
REMARK    9  A    between atoms: C_24  and  C_25
REMARK   10  A    between atoms: C_28  and  O_31
REMARK   11  A    between atoms: O_31  and  C_32
REMARK                            x       y       z     vdW  Elec       q    Type
REMARK                         _______ _______ _______ _____ _____    ______ ____
ROOT
ATOM      1  N   UNL     1       1.292   0.702  -6.274  0.00  0.00    -0.267 N 
ATOM      2  C   UNL     1       0.998   1.019  -5.002  0.00  0.00    +0.043 A 
ATOM      3  C   UNL     1      -0.340   0.863  -4.848  0.00  0.00    +0.004 A 
ATOM      4  C   UNL     1      -0.825   0.439  -6.097  0.00  0.00    +0.151 A 
ATOM      5  N   UNL     1       0.220   0.365  -6.904  0.00  0.00    -0.166 NA
ATOM      6  C   UNL     1      -1.087   1.112  -3.568  0.00  0.00    +0.023 C 
ATOM      7  C   UNL     1      -0.071   1.159  -2.418  0.00  0.00    -0.067 C 
ATOM      8  C   UNL     1       1.076   2.103  -2.789  0.00  0.00    -0.009 C 
ATOM      9  C   UNL     1       1.923   1.473  -3.902  0.00  0.00    +0.054 C 
ENDROOT
BRANCH   4  10
ATOM     10  C   UNL     1      -2.228   0.135  -6.441  0.00  0.00    +0.267 C 
ATOM     11  O   UNL     1      -3.081   0.140  -5.575  0.00  0.00    -0.268 OA
ATOM     12  N   UNL     1      -2.564  -0.149  -7.715  0.00  0.00    -0.292 N 
ATOM     13  C   UNL     1      -3.967  -0.368  -8.098  0.00  0.00    +0.136 C 
ATOM     14  C   UNL     1      -4.276   0.518  -9.316  0.00  0.00    +0.179 C 
ATOM     15  O   UNL     1      -3.296   0.279 -10.330  0.00  0.00    -0.377 OA
ATOM     16  C   UNL     1      -1.962   0.621  -9.948  0.00  0.00    +0.179 C 
ATOM     17  C   UNL     1      -1.536  -0.254  -8.763  0.00  0.00    +0.136 C 
ENDBRANCH   4  10
BRANCH   7  18
ATOM     18  N   UNL     1      -0.741   1.653  -1.200  0.00  0.00    +0.381 N 
ATOM     19  H   UNL     1      -1.709   1.312  -1.184  0.00  0.00    -0.086 HD
ATOM     20  H   UNL     1      -0.740   2.680  -1.206  0.00  0.00    -0.086 HD
BRANCH  18  21
ATOM     21  C   UNL     1      -0.036   1.172   0.003  0.00  0.00    -0.078 C 
BRANCH  21  22
ATOM     22  C   UNL     1      -0.752   1.699   1.248  0.00  0.00    +0.016 C 
BRANCH  22  23
ATOM     23  C   UNL     1      -0.037   1.211   2.482  0.00  0.00    -0.049 A 
ATOM     24  C   UNL     1      -0.407   0.014   3.066  0.00  0.00    +0.007 A 
ATOM     25  C   UNL     1       0.250  -0.438   4.194  0.00  0.00    +0.046 A 
ATOM     26  C   UNL     1       1.274   0.317   4.748  0.00  0.00    +0.120 A 
ATOM     27  C   UNL     1       1.639   1.521   4.163  0.00  0.00    +0.046 A 
ATOM     28  C   UNL     1       0.983   1.966   3.032  0.00  0.00    +0.007 A 
BRANCH  26  29
ATOM     29  O   UNL     1       1.919  -0.123   5.860  0.00  0.00    -0.495 OA
ATOM     30  C   UNL     1       1.490  -1.371   6.408  0.00  0.00    +0.277 C 
ENDBRANCH  26  29
ENDBRANCH  22  23
ENDBRANCH  21  22
ENDBRANCH  18  21
ENDBRANCH   7  18
BRANCH   1  31
ATOM     31  C   UNL     1       2.635   0.733  -6.858  0.00  0.00    +0.146 C 
BRANCH  31  33
ATOM     32  C   UNL     1       2.539  -1.688  -7.471  0.00  0.00    +0.009 C 
ATOM     33  C   UNL     1       3.304  -0.631  -6.671  0.00  0.00    +0.004 C 
ATOM     34  C   UNL     1       4.750  -0.562  -7.169  0.00  0.00    +0.009 C 
ENDBRANCH  31  33
ENDBRANCH   1  31
TORSDOF 8
