REMARK  Name = ZINC65189864
REMARK  7 active torsions:
REMARK  status: ('A' for Active; 'I' for Inactive)
REMARK    1  A    between atoms: C_1  and  C_2
REMARK    2  A    between atoms: C_2  and  N_3
REMARK    3  A    between atoms: N_6  and  N_7
REMARK    4  A    between atoms: C_8  and  C_10
REMARK    5  A    between atoms: C_16  and  C_18
REMARK    6  A    between atoms: C_23  and  O_24
REMARK    7  A    between atoms: O_24  and  C_25
REMARK                            x       y       z     vdW  Elec       q    Type
REMARK                         _______ _______ _______ _____ _____    ______ ____
ROOT
ATOM      1  C   UNL     1       3.196  -0.776  -5.523  0.00  0.00    +0.094 C 
ATOM      2  C   UNL     1       3.871  -1.527  -6.674  0.00  0.00    +0.016 C 
ATOM      3  C   UNL     1       4.383  -0.523  -7.709  0.00  0.00    +0.020 C 
ATOM      4  C   UNL     1       5.422   0.394  -7.055  0.00  0.00    +0.108 C 
ATOM      5  N   UNL     1       4.825   1.009  -5.861  0.00  0.00    -0.297 N 
ATOM      6  C   UNL     1       4.222   0.137  -4.844  0.00  0.00    +0.120 C 
ATOM      7  C   UNL     1       4.832   2.347  -5.702  0.00  0.00    +0.250 C 
ATOM      8  O   UNL     1       4.244   2.851  -4.765  0.00  0.00    -0.270 OA
ENDROOT
BRANCH   7   9
ATOM      9  C   UNL     1       5.553   3.201  -6.666  0.00  0.00    +0.079 A 
ATOM     10  C   UNL     1       6.900   2.960  -6.947  0.00  0.00    +0.017 A 
ATOM     11  C   UNL     1       7.568   3.760  -7.848  0.00  0.00    +0.001 A 
ATOM     12  C   UNL     1       6.909   4.804  -8.478  0.00  0.00    +0.004 A 
ATOM     13  C   UNL     1       5.578   5.053  -8.209  0.00  0.00    +0.046 A 
ATOM     14  C   UNL     1       4.889   4.254  -7.309  0.00  0.00    +0.139 A 
BRANCH  14  15
ATOM     15  O   UNL     1       3.579   4.495  -7.048  0.00  0.00    -0.433 OA
BRANCH  15  16
ATOM     16  C   UNL     1       2.970   5.585  -7.740  0.00  0.00    +0.541 C 
ATOM     17  F   UNL     1       3.640   6.772  -7.424  0.00  0.00    -0.166 F 
ATOM     18  F   UNL     1       3.043   5.362  -9.119  0.00  0.00    -0.166 F 
ENDBRANCH  15  16
ENDBRANCH  14  15
ENDBRANCH   7   9
BRANCH   1  20
ATOM     19  N   UNL     1       2.029  -1.331  -3.414  0.00  0.00    -0.233 N 
ATOM     20  C   UNL     1       2.663  -1.767  -4.520  0.00  0.00    +0.234 C 
ATOM     21  O   UNL     1       2.806  -2.957  -4.709  0.00  0.00    -0.274 OA
ATOM     22  H   UNL     1       1.915  -0.380  -3.264  0.00  0.00    +0.173 HD
BRANCH  19  26
ATOM     23  N   UNL     1       0.740  -0.494  -1.167  0.00  0.00    -0.298 N 
ATOM     24  C   UNL     1       0.898  -1.816  -1.376  0.00  0.00    +0.316 C 
ATOM     25  O   UNL     1       0.468  -2.615  -0.567  0.00  0.00    -0.251 OA
ATOM     26  N   UNL     1       1.533  -2.252  -2.482  0.00  0.00    -0.218 N 
ATOM     27  H   UNL     1       1.083   0.144  -1.812  0.00  0.00    +0.150 HD
ATOM     28  H   UNL     1       1.647  -3.204  -2.633  0.00  0.00    +0.174 HD
BRANCH  23  30
ATOM     29  C   UNL     1       0.006   1.509   0.029  0.00  0.00    +0.024 C 
ATOM     30  C   UNL     1       0.050  -0.020   0.035  0.00  0.00    +0.102 C 
ENDBRANCH  23  30
ENDBRANCH  19  26
ENDBRANCH   1  20
TORSDOF 6
