REMARK  Name = ZINC42415332
REMARK  5 active torsions:
REMARK  status: ('A' for Active; 'I' for Inactive)
REMARK    1  A    between atoms: C_1  and  C_2
REMARK    2  A    between atoms: C_5  and  C_9
REMARK    3  A    between atoms: C_6  and  C_8
REMARK    4  A    between atoms: C_10  and  S_15
REMARK    5  A    between atoms: S_15  and  N_18
REMARK                            x       y       z     vdW  Elec       q    Type
REMARK                         _______ _______ _______ _____ _____    ______ ____
ROOT
ATOM      1  C   UNL     1       0.106  -4.258  -0.079  0.00  0.00    +0.119 A 
ATOM      2  C   UNL     1      -0.803  -5.092  -0.758  0.00  0.00    +0.150 A 
ATOM      3  C   UNL     1      -0.509  -6.371  -0.439  0.00  0.00    +0.134 A 
ATOM      4  N   UNL     1       0.542  -6.358   0.408  0.00  0.00    -0.282 N 
ATOM      5  H   UNL     1       0.967  -7.137   0.801  0.00  0.00    +0.188 HD
ATOM      6  N   UNL     1       0.917  -5.025   0.617  0.00  0.00    -0.172 NA
ENDROOT
BRANCH   1  11
ATOM      7  C   UNL     1       0.259   1.495  -0.327  0.00  0.00    +0.044 C 
ATOM      8  C   UNL     1       0.219  -0.011  -0.262  0.00  0.00    -0.050 A 
ATOM      9  C   UNL     1       0.332  -0.754  -1.424  0.00  0.00    +0.004 A 
ATOM     10  C   UNL     1       0.295  -2.132  -1.370  0.00  0.00    +0.010 A 
ATOM     11  C   UNL     1       0.146  -2.775  -0.143  0.00  0.00    +0.007 A 
ATOM     12  C   UNL     1       0.034  -2.022   1.023  0.00  0.00    -0.041 A 
ATOM     13  C   UNL     1       0.077  -0.644   0.959  0.00  0.00    +0.007 A 
ATOM     14  C   UNL     1      -0.128  -2.711   2.354  0.00  0.00    +0.044 C 
ENDBRANCH   1  11
BRANCH   2  15
ATOM     15  S   UNL     1      -2.094  -4.561  -1.833  0.00  0.00    +0.059 S 
ATOM     16  O   UNL     1      -1.506  -3.660  -2.761  0.00  0.00    -0.153 OA
ATOM     17  O   UNL     1      -2.788  -5.732  -2.244  0.00  0.00    -0.153 OA
BRANCH  15  18
ATOM     18  N   UNL     1      -3.158  -3.677  -0.923  0.00  0.00    -0.203 NA
ATOM     19  H   UNL     1      -2.992  -3.544   0.024  0.00  0.00    +0.144 HD
ATOM     20  H   UNL     1      -3.946  -3.292  -1.336  0.00  0.00    +0.144 HD
ENDBRANCH  15  18
ENDBRANCH   2  15
TORSDOF 3
