REMARK  Name = ZINC40701805
REMARK  6 active torsions:
REMARK  status: ('A' for Active; 'I' for Inactive)
REMARK    1  A    between atoms: C_1  and  C_2
REMARK    2  A    between atoms: C_3  and  C_26
REMARK    3  A    between atoms: C_9  and  N_25
REMARK    4  A    between atoms: C_10  and  N_14
REMARK    5  A    between atoms: N_14  and  C_15
REMARK    6  A    between atoms: C_20  and  C_21
REMARK                            x       y       z     vdW  Elec       q    Type
REMARK                         _______ _______ _______ _____ _____    ______ ____
ROOT
ATOM      1  C   UNL     1       0.029   1.500   0.008  0.00  0.00    +0.066 C 
ATOM      2  C   UNL     1       0.062  -0.006   0.000  0.00  0.00    +0.050 A 
ATOM      3  C   UNL     1       0.086  -0.708  -1.159  0.00  0.00    +0.011 A 
ATOM      4  S   UNL     1       0.117  -2.381  -0.536  0.00  0.00    -0.057 S 
ATOM      5  C   UNL     1       0.097  -2.017   1.108  0.00  0.00    +0.164 A 
ATOM      6  N   UNL     1       0.074  -0.702   1.123  0.00  0.00    -0.230 NA
ATOM      7  N   UNL     1       0.108  -2.892   2.184  0.00  0.00    -0.277 N 
ATOM      8  C   UNL     1       0.087  -2.397   3.484  0.00  0.00    +0.150 A 
ATOM      9  C   UNL     1       0.103  -3.267   4.575  0.00  0.00    +0.106 A 
ATOM     10  C   UNL     1       0.082  -2.717   5.858  0.00  0.00    +0.149 A 
ATOM     11  N   UNL     1       0.047  -1.393   5.990  0.00  0.00    -0.219 NA
ATOM     12  C   UNL     1       0.032  -0.606   4.934  0.00  0.00    +0.225 A 
ATOM     13  N   UNL     1       0.057  -1.085   3.706  0.00  0.00    -0.219 NA
ATOM     14  C   UNL     1       0.086  -0.212  -2.582  0.00  0.00    +0.053 C 
ATOM     15  H   UNL     1       0.130  -3.850   2.031  0.00  0.00    +0.156 HD
ENDROOT
BRANCH   9  16
ATOM     16  N   UNL     1       0.140  -4.658   4.388  0.00  0.00    -0.353 N 
ATOM     17  H   UNL     1       0.154  -5.026   3.490  0.00  0.00    +0.143 HD
ATOM     18  H   UNL     1       0.151  -5.251   5.155  0.00  0.00    +0.143 HD
ENDBRANCH   9  16
BRANCH  10  19
ATOM     19  N   UNL     1       0.096  -3.539   6.979  0.00  0.00    -0.297 N 
ATOM     20  H   UNL     1       0.034  -4.501   6.876  0.00  0.00    +0.154 HD
BRANCH  19  21
ATOM     21  C   UNL     1       0.201  -2.978   8.255  0.00  0.00    +0.044 A 
ATOM     22  C   UNL     1       0.786  -1.729   8.421  0.00  0.00    +0.024 A 
ATOM     23  C   UNL     1       0.887  -1.178   9.683  0.00  0.00    +0.002 A 
ATOM     24  C   UNL     1       0.407  -1.868  10.781  0.00  0.00    +0.001 A 
ATOM     25  C   UNL     1      -0.177  -3.111  10.620  0.00  0.00    +0.014 A 
ATOM     26  C   UNL     1      -0.286  -3.666   9.359  0.00  0.00    +0.076 A 
BRANCH  26  27
ATOM     27  C   UNL     1      -0.927  -5.018   9.184  0.00  0.00    +0.419 C 
ATOM     28  F   UNL     1      -1.335  -5.506  10.430  0.00  0.00    -0.166 F 
ATOM     29  F   UNL     1      -2.039  -4.902   8.342  0.00  0.00    -0.166 F 
ATOM     30  F   UNL     1      -0.003  -5.902   8.616  0.00  0.00    -0.166 F 
ENDBRANCH  26  27
ENDBRANCH  19  21
ENDBRANCH  10  19
TORSDOF 4
