REMARK  Name = ZINC20257605
REMARK  5 active torsions:
REMARK  status: ('A' for Active; 'I' for Inactive)
REMARK    1  A    between atoms: C_1  and  C_2
REMARK    2  A    between atoms: N_7  and  S_9
REMARK    3  A    between atoms: S_9  and  N_12
REMARK    4  A    between atoms: N_12  and  C_13
REMARK    5  A    between atoms: C_18  and  N_19
REMARK                            x       y       z     vdW  Elec       q    Type
REMARK                         _______ _______ _______ _____ _____    ______ ____
ROOT
ATOM      1  N   UNL     1      -2.347  -1.132   0.565  0.00  0.00    -0.205 N 
ATOM      2  H   UNL     1      -3.215  -0.689   1.075  0.00  0.00    +0.175 HD
ENDROOT
BRANCH   1   3
ATOM      3  C   UNL     1      -2.523  -1.843  -0.630  0.00  0.00    +0.070 A 
ATOM      4  C   UNL     1      -1.738  -2.953  -0.901  0.00  0.00    +0.029 A 
ATOM      5  C   UNL     1      -1.913  -3.653  -2.080  0.00  0.00    +0.040 A 
ATOM      6  C   UNL     1      -2.873  -3.250  -2.993  0.00  0.00    +0.125 A 
ATOM      7  C   UNL     1      -3.661  -2.143  -2.729  0.00  0.00    +0.063 A 
ATOM      8  C   UNL     1      -3.493  -1.439  -1.546  0.00  0.00    +0.050 A 
ATOM      9  F   UNL     1      -3.040  -3.938  -4.144  0.00  0.00    -0.205 F 
BRANCH   8  10
ATOM     10  N   UNL     1      -4.293  -0.322  -1.275  0.00  0.00    -0.356 N 
ATOM     11  H   UNL     1      -5.058  -0.004  -1.999  0.00  0.00    +0.142 HD
ATOM     12  H   UNL     1      -4.157   0.238  -0.338  0.00  0.00    +0.142 HD
ENDBRANCH   8  10
ENDBRANCH   1   3
BRANCH   1  13
ATOM     13  S   UNL     1      -0.831  -0.960   1.210  0.00  0.00    +0.112 S 
ATOM     14  O   UNL     1      -0.290  -2.268   1.332  0.00  0.00    -0.138 OA
ATOM     15  O   UNL     1      -0.959  -0.082   2.320  0.00  0.00    -0.138 OA
BRANCH  13  21
ATOM     16  C   UNL     1       3.092  -1.153  -2.006  0.00  0.00    +0.009 C 
ATOM     17  C   UNL     1       2.315  -0.481  -0.872  0.00  0.00    +0.002 C 
ATOM     18  C   UNL     1       2.393   1.039  -1.032  0.00  0.00    +0.006 C 
ATOM     19  C   UNL     1       1.644   1.714   0.120  0.00  0.00    +0.017 C 
ATOM     20  C   UNL     1       0.170   1.298   0.079  0.00  0.00    +0.111 C 
ATOM     21  N   UNL     1       0.092  -0.169   0.085  0.00  0.00    -0.164 NA
ATOM     22  C   UNL     1       0.849  -0.921  -0.925  0.00  0.00    +0.114 C 
ENDBRANCH  13  21
ENDBRANCH   1  13
TORSDOF 4
