REMARK  Name = ZINC63541328
REMARK  9 active torsions:
REMARK  status: ('A' for Active; 'I' for Inactive)
REMARK    1  A    between atoms: C_1  and  C_2
REMARK    2  A    between atoms: C_4  and  C_36
REMARK    3  A    between atoms: C_6  and  N_8
REMARK    4  A    between atoms: C_9  and  C_11
REMARK    5  A    between atoms: C_11  and  S_12
REMARK    6  A    between atoms: S_12  and  C_13
REMARK    7  A    between atoms: N_24  and  C_25
REMARK    8  A    between atoms: C_25  and  C_26
REMARK    9  A    between atoms: C_26  and  C_27
REMARK                            x       y       z     vdW  Elec       q    Type
REMARK                         _______ _______ _______ _____ _____    ______ ____
ROOT
ATOM      1  C   UNL     1       0.541  -2.801   7.699  0.00  0.00    +0.223 C 
ATOM      2  N   UNL     1       1.750  -3.623   7.578  0.00  0.00    -0.300 N 
ATOM      3  C   UNL     1       1.733  -4.716   6.729  0.00  0.00    +0.151 A 
ATOM      4  C   UNL     1       0.508  -5.375   6.514  0.00  0.00    +0.165 A 
ATOM      5  N   UNL     1       0.460  -6.440   5.727  0.00  0.00    -0.246 NA
ATOM      6  C   UNL     1       1.561  -6.867   5.139  0.00  0.00    +0.131 A 
ATOM      7  C   UNL     1       2.766  -6.209   5.339  0.00  0.00    +0.132 A 
ATOM      8  N   UNL     1       2.829  -5.149   6.128  0.00  0.00    -0.237 NA
ATOM      9  C   UNL     1      -0.704  -4.842   7.169  0.00  0.00    +0.270 C 
ATOM     10  O   UNL     1      -1.744  -5.470   7.140  0.00  0.00    -0.268 OA
ATOM     11  N   UNL     1      -0.643  -3.655   7.798  0.00  0.00    -0.268 N 
ATOM     12  H   UNL     1       2.548  -3.404   8.084  0.00  0.00    +0.150 HD
ENDROOT
BRANCH   1  13
ATOM     13  S   UNL     1       0.391  -1.734   6.239  0.00  0.00    -0.110 S 
BRANCH  13  14
ATOM     14  C   UNL     1       0.280  -2.900   4.854  0.00  0.00    +0.168 C 
BRANCH  14  16
ATOM     15  N   UNL     1       0.052  -2.797   2.393  0.00  0.00    -0.285 N 
ATOM     16  C   UNL     1       0.150  -2.134   3.562  0.00  0.00    +0.227 C 
ATOM     17  O   UNL     1       0.134  -0.922   3.575  0.00  0.00    -0.275 OA
ATOM     18  H   UNL     1      -0.012  -3.765   2.388  0.00  0.00    +0.155 HD
BRANCH  15  24
ATOM     19  C   UNL     1      -1.512  -2.365  -2.248  0.00  0.00    +0.044 C 
ATOM     20  C   UNL     1      -0.707  -1.857  -1.080  0.00  0.00    -0.048 A 
ATOM     21  C   UNL     1       0.025  -0.690  -1.201  0.00  0.00    +0.006 A 
ATOM     22  C   UNL     1       0.765  -0.220  -0.131  0.00  0.00    -0.048 A 
ATOM     23  C   UNL     1       0.776  -0.917   1.061  0.00  0.00    +0.026 A 
ATOM     24  C   UNL     1       0.043  -2.089   1.186  0.00  0.00    +0.034 A 
ATOM     25  C   UNL     1      -0.704  -2.555   0.112  0.00  0.00    +0.026 A 
ATOM     26  C   UNL     1       1.561   1.052  -0.268  0.00  0.00    +0.044 C 
ENDBRANCH  15  24
ENDBRANCH  14  16
ENDBRANCH  13  14
ENDBRANCH   1  13
BRANCH  11  27
ATOM     27  C   UNL     1      -1.788  -3.210   8.597  0.00  0.00    +0.115 C 
BRANCH  27  28
ATOM     28  C   UNL     1      -2.748  -2.412   7.712  0.00  0.00    +0.052 C 
BRANCH  28  29
ATOM     29  C   UNL     1      -3.925  -1.954   8.534  0.00  0.00    -0.040 C 
ATOM     30  C   UNL     1      -4.074  -0.756   9.144  0.00  0.00    -0.001 A 
ATOM     31  C   UNL     1      -3.217   0.433   9.224  0.00  0.00    +0.010 A 
ATOM     32  C   UNL     1      -3.646   1.505   9.927  0.00  0.00    +0.001 A 
ATOM     33  C   UNL     1      -4.886   1.510  10.580  0.00  0.00    +0.002 A 
ATOM     34  C   UNL     1      -5.729   0.456  10.552  0.00  0.00    +0.026 A 
ATOM     35  C   UNL     1      -5.379  -0.726   9.842  0.00  0.00    +0.043 A 
ATOM     36  N   UNL     1      -6.012  -1.861   9.670  0.00  0.00    -0.380 N 
ATOM     37  C   UNL     1      -5.182  -2.738   8.837  0.00  0.00    +0.144 C 
ATOM     38  H   UNL     1      -6.886  -2.082  10.029  0.00  0.00    +0.160 HD
ENDBRANCH  28  29
ENDBRANCH  27  28
ENDBRANCH  11  27
TORSDOF 7
