REMARK  Name = ZINC12042562
REMARK  9 active torsions:
REMARK  status: ('A' for Active; 'I' for Inactive)
REMARK    1  A    between atoms: C_1  and  C_2
REMARK    2  A    between atoms: C_5  and  S_8
REMARK    3  A    between atoms: S_8  and  N_11
REMARK    4  A    between atoms: N_13  and  C_31
REMARK    5  A    between atoms: C_16  and  C_19
REMARK    6  A    between atoms: C_19  and  C_20
REMARK    7  A    between atoms: N_22  and  C_23
REMARK    8  A    between atoms: C_27  and  O_29
REMARK    9  A    between atoms: O_29  and  C_30
REMARK                            x       y       z     vdW  Elec       q    Type
REMARK                         _______ _______ _______ _____ _____    ______ ____
ROOT
ATOM      1  N   UNL     1       1.938  -5.176   0.370  0.00  0.00    -0.105 NA
ATOM      2  C   UNL     1       2.170  -6.457   0.333  0.00  0.00    +0.189 C 
ATOM      3  N   UNL     1       3.389  -7.107   0.402  0.00  0.00    -0.217 N 
ATOM      4  C   UNL     1       3.492  -8.424   0.354  0.00  0.00    +0.239 C 
ATOM      5  O   UNL     1       4.563  -8.989   0.415  0.00  0.00    -0.274 OA
ATOM      6  C   UNL     1       2.184  -9.187   0.218  0.00  0.00    +0.149 C 
ATOM      7  S   UNL     1       0.987  -7.789   0.190  0.00  0.00    -0.075 S 
ENDROOT
BRANCH   3   8
ATOM      8  C   UNL     1       4.556  -6.342   0.527  0.00  0.00    +0.043 A 
ATOM      9  C   UNL     1       5.580  -6.479  -0.401  0.00  0.00    +0.024 A 
ATOM     10  C   UNL     1       6.729  -5.723  -0.276  0.00  0.00    +0.002 A 
ATOM     11  C   UNL     1       6.861  -4.832   0.773  0.00  0.00    +0.000 A 
ATOM     12  C   UNL     1       5.844  -4.694   1.699  0.00  0.00    +0.002 A 
ATOM     13  C   UNL     1       4.689  -5.442   1.575  0.00  0.00    +0.024 A 
ENDBRANCH   3   8
BRANCH   1  14
ATOM     14  S   UNL     1       0.383  -4.613   0.279  0.00  0.00    +0.101 S 
ATOM     15  O   UNL     1      -0.276  -5.045   1.461  0.00  0.00    -0.146 OA
ATOM     16  O   UNL     1      -0.091  -4.939  -1.020  0.00  0.00    -0.146 OA
BRANCH  14  21
ATOM     17  C   UNL     1       0.644   1.409   0.553  0.00  0.00    +0.044 C 
ATOM     18  C   UNL     1       0.579  -0.095   0.484  0.00  0.00    -0.050 A 
ATOM     19  C   UNL     1       0.639  -0.734  -0.740  0.00  0.00    +0.005 A 
ATOM     20  C   UNL     1       0.579  -2.114  -0.802  0.00  0.00    +0.029 A 
ATOM     21  C   UNL     1       0.460  -2.854   0.359  0.00  0.00    +0.113 A 
ATOM     22  C   UNL     1       0.402  -2.215   1.583  0.00  0.00    +0.029 A 
ATOM     23  C   UNL     1       0.466  -0.835   1.646  0.00  0.00    +0.005 A 
ENDBRANCH  14  21
ENDBRANCH   1  14
BRANCH   6  24
ATOM     24  C   UNL     1       1.942 -10.094   1.427  0.00  0.00    +0.120 C 
BRANCH  24  25
ATOM     25  C   UNL     1       0.703 -10.919   1.196  0.00  0.00    +0.219 C 
ATOM     26  O   UNL     1       0.075 -10.795   0.166  0.00  0.00    -0.275 OA
ATOM     27  N   UNL     1       0.293 -11.796   2.134  0.00  0.00    -0.285 N 
ATOM     28  H   UNL     1       0.747 -11.838   2.990  0.00  0.00    +0.155 HD
BRANCH  27  29
ATOM     29  C   UNL     1      -0.787 -12.646   1.872  0.00  0.00    +0.037 A 
ATOM     30  C   UNL     1      -1.663 -12.993   2.893  0.00  0.00    +0.023 A 
ATOM     31  C   UNL     1      -2.729 -13.832   2.635  0.00  0.00    +0.005 A 
ATOM     32  C   UNL     1      -2.927 -14.330   1.361  0.00  0.00    +0.046 A 
ATOM     33  C   UNL     1      -2.055 -13.988   0.337  0.00  0.00    +0.122 A 
ATOM     34  C   UNL     1      -0.987 -13.141   0.591  0.00  0.00    +0.069 A 
BRANCH  33  35
ATOM     35  O   UNL     1      -2.250 -14.479  -0.915  0.00  0.00    -0.495 OA
ATOM     36  C   UNL     1      -3.374 -15.341  -1.106  0.00  0.00    +0.277 C 
ENDBRANCH  33  35
ENDBRANCH  27  29
ENDBRANCH  24  25
ENDBRANCH   6  24
TORSDOF 7
