REMARK  Name = ZINC31047404
REMARK  10 active torsions:
REMARK  status: ('A' for Active; 'I' for Inactive)
REMARK    1  A    between atoms: C_1  and  C_2
REMARK    2  A    between atoms: C_2  and  C_3
REMARK    3  A    between atoms: C_3  and  C_5
REMARK    4  A    between atoms: C_3  and  N_15
REMARK    5  A    between atoms: C_8  and  S_11
REMARK    6  A    between atoms: S_11  and  C_14
REMARK    7  A    between atoms: C_16  and  C_18
REMARK    8  A    between atoms: N_23  and  C_25
REMARK    9  A    between atoms: C_25  and  C_26
REMARK   10  A    between atoms: C_28  and  C_31
REMARK                            x       y       z     vdW  Elec       q    Type
REMARK                         _______ _______ _______ _____ _____    ______ ____
ROOT
ATOM      1  C   UNL     1       1.280   1.980   0.001  0.00  0.00    +0.058 C 
ATOM      2  C   UNL     1       1.363   2.853   1.255  0.00  0.00    +0.009 C 
ATOM      3  C   UNL     1       2.707   3.587   1.269  0.00  0.00    -0.018 C 
ATOM      4  C   UNL     1       3.843   2.563   1.219  0.00  0.00    -0.078 C 
ATOM      5  N   UNL     1       3.719   1.753   0.000  0.00  0.00    +0.386 N 
ATOM      6  C   UNL     1       2.457   1.002  -0.014  0.00  0.00    -0.065 C 
ATOM      7  H   UNL     1       3.710   2.440  -0.859  0.00  0.00    -0.081 HD
ENDROOT
BRANCH   1   9
ATOM      8  N   UNL     1      -1.191   1.867   0.018  0.00  0.00    -0.308 N 
ATOM      9  C   UNL     1      -0.014   1.209   0.009  0.00  0.00    +0.215 C 
ATOM     10  O   UNL     1       0.002  -0.004   0.002  0.00  0.00    -0.276 OA
ATOM     11  H   UNL     1      -1.206   2.966   0.024  0.00  0.00    +0.149 HD
BRANCH   8  12
ATOM     12  C   UNL     1      -2.449   1.117   0.020  0.00  0.00    +0.103 C 
BRANCH  12  13
ATOM     13  C   UNL     1      -3.543   1.969  -0.571  0.00  0.00    -0.027 A 
ATOM     14  C   UNL     1      -3.610   3.316  -0.266  0.00  0.00    +0.007 A 
ATOM     15  C   UNL     1      -4.610   4.099  -0.811  0.00  0.00    +0.027 A 
ATOM     16  C   UNL     1      -5.549   3.533  -1.654  0.00  0.00    +0.088 A 
ATOM     17  C   UNL     1      -5.484   2.186  -1.955  0.00  0.00    +0.027 A 
ATOM     18  C   UNL     1      -4.481   1.404  -1.413  0.00  0.00    +0.007 A 
BRANCH  16  19
ATOM     19  S   UNL     1      -6.827   4.530  -2.345  0.00  0.00    -0.006 S 
ATOM     20  O   UNL     1      -6.288   5.845  -2.371  0.00  0.00    -0.170 OA
ATOM     21  O   UNL     1      -7.189   3.871  -3.551  0.00  0.00    -0.170 OA
ATOM     22  C   UNL     1      -8.188   4.437  -1.149  0.00  0.00    +0.200 C 
ENDBRANCH  16  19
ENDBRANCH  12  13
BRANCH  12  24
ATOM     23  C   UNL     1      -1.769  -0.226   2.014  0.00  0.00    +0.006 C 
ATOM     24  C   UNL     1      -2.816   0.740   1.456  0.00  0.00    +0.024 C 
ENDBRANCH  12  24
ENDBRANCH   8  12
ENDBRANCH   1   9
BRANCH   5  25
ATOM     25  C   UNL     1       4.870   0.852  -0.152  0.00  0.00    +0.022 C 
BRANCH  25  26
ATOM     26  C   UNL     1       4.860  -0.167   0.959  0.00  0.00    +0.211 A 
ATOM     27  N   UNL     1       4.271  -1.337   0.935  0.00  0.00    -0.193 NA
ATOM     28  C   UNL     1       4.530  -1.898   2.138  0.00  0.00    +0.202 A 
ATOM     29  N   UNL     1       5.253  -1.043   2.815  0.00  0.00    -0.056 NA
ATOM     30  O   UNL     1       5.454  -0.049   2.150  0.00  0.00    -0.340 OA
BRANCH  28  31
ATOM     31  C   UNL     1       4.077  -3.232   2.604  0.00  0.00    +0.023 A 
ATOM     32  C   UNL     1       3.302  -4.037   1.772  0.00  0.00    +0.013 A 
ATOM     33  C   UNL     1       2.889  -5.280   2.207  0.00  0.00    +0.021 A 
ATOM     34  C   UNL     1       3.233  -5.722   3.473  0.00  0.00    +0.041 A 
ATOM     35  C   UNL     1       3.998  -4.923   4.306  0.00  0.00    +0.021 A 
ATOM     36  C   UNL     1       4.421  -3.682   3.877  0.00  0.00    +0.013 A 
ATOM     37 CL   UNL     1       2.704  -7.283   4.017  0.00  0.00    -0.084 Cl
ENDBRANCH  28  31
ENDBRANCH  25  26
ENDBRANCH   5  25
TORSDOF 8
