REMARK  Name = ZINC34733251
REMARK  11 active torsions:
REMARK  status: ('A' for Active; 'I' for Inactive)
REMARK    1  A    between atoms: C_1  and  C_2
REMARK    2  A    between atoms: C_2  and  C_3
REMARK    3  A    between atoms: C_3  and  C_4
REMARK    4  A    between atoms: C_4  and  N_5
REMARK    5  A    between atoms: N_13  and  C_16
REMARK    6  A    between atoms: C_16  and  C_17
REMARK    7  A    between atoms: N_19  and  C_20
REMARK    8  A    between atoms: C_20  and  C_21
REMARK    9  A    between atoms: C_28  and  C_32
REMARK   10  A    between atoms: C_29  and  C_30
REMARK   11  A    between atoms: C_30  and  C_31
REMARK                            x       y       z     vdW  Elec       q    Type
REMARK                         _______ _______ _______ _____ _____    ______ ____
ROOT
ATOM      1  N   UNL     1       1.425  -2.500  -2.470  0.00  0.00    -0.260 N 
ATOM      2  C   UNL     1       0.707  -2.716  -3.588  0.00  0.00    +0.265 A 
ATOM      3  O   UNL     1      -0.494  -2.521  -3.597  0.00  0.00    -0.267 OA
ATOM      4  C   UNL     1       1.397  -3.192  -4.804  0.00  0.00    +0.078 A 
ATOM      5  C   UNL     1       0.811  -3.492  -6.129  0.00  0.00    +0.003 A 
ATOM      6  C   UNL     1       1.678  -3.920  -7.085  0.00  0.00    +0.004 A 
ATOM      7  S   UNL     1       3.263  -3.943  -6.293  0.00  0.00    -0.074 S 
ATOM      8  C   UNL     1       2.770  -3.382  -4.685  0.00  0.00    +0.098 A 
ATOM      9  N   UNL     1       3.427  -3.139  -3.510  0.00  0.00    -0.278 N 
ATOM     10  C   UNL     1       2.752  -2.700  -2.430  0.00  0.00    +0.333 A 
ATOM     11  O   UNL     1       3.356  -2.484  -1.397  0.00  0.00    -0.246 OA
ATOM     12  C   UNL     1       0.911  -4.173  -8.347  0.00  0.00    +0.073 C 
ATOM     13  C   UNL     1      -0.522  -3.836  -8.005  0.00  0.00    -0.064 C 
ATOM     14  C   UNL     1      -0.547  -3.453  -6.741  0.00  0.00    -0.040 C 
ATOM     15  C   UNL     1      -1.705  -3.920  -8.934  0.00  0.00    +0.039 C 
ENDROOT
BRANCH  14  16
ATOM     16  C   UNL     1      -1.794  -3.030  -6.009  0.00  0.00    +0.032 C 
ATOM     17  C   UNL     1      -2.372  -4.226  -5.251  0.00  0.00    +0.009 C 
ENDBRANCH  14  16
BRANCH   1  18
ATOM     18  C   UNL     1       0.739  -2.027  -1.265  0.00  0.00    +0.130 C 
BRANCH  18  19
ATOM     19  C   UNL     1       0.718  -0.497  -1.257  0.00  0.00    +0.022 C 
BRANCH  19  21
ATOM     20  C   UNL     1      -0.019   1.526   0.010  0.00  0.00    +0.004 C 
ATOM     21  C   UNL     1       0.002  -0.004   0.002  0.00  0.00    -0.002 C 
ENDBRANCH  19  21
ENDBRANCH  18  19
ENDBRANCH   1  18
BRANCH   9  22
ATOM     22  C   UNL     1       4.875  -3.352  -3.428  0.00  0.00    +0.223 C 
BRANCH  22  23
ATOM     23  C   UNL     1       5.591  -2.080  -3.801  0.00  0.00    +0.233 C 
ATOM     24  O   UNL     1       4.956  -1.093  -4.106  0.00  0.00    -0.274 OA
ATOM     25  N   UNL     1       6.938  -2.039  -3.797  0.00  0.00    -0.310 N 
ATOM     26  H   UNL     1       7.447  -2.828  -3.553  0.00  0.00    +0.149 HD
BRANCH  25  27
ATOM     27  C   UNL     1       7.635  -0.802  -4.160  0.00  0.00    +0.139 C 
BRANCH  27  28
ATOM     28  C   UNL     1       9.124  -1.021  -4.075  0.00  0.00    -0.030 A 
ATOM     29  C   UNL     1       9.791  -0.782  -2.888  0.00  0.00    +0.005 A 
ATOM     30  C   UNL     1      11.156  -0.983  -2.811  0.00  0.00    +0.000 A 
ATOM     31  C   UNL     1      11.855  -1.423  -3.920  0.00  0.00    +0.000 A 
ATOM     32  C   UNL     1      11.187  -1.662  -5.106  0.00  0.00    +0.000 A 
ATOM     33  C   UNL     1       9.821  -1.466  -5.183  0.00  0.00    +0.005 A 
ENDBRANCH  27  28
ENDBRANCH  25  27
ENDBRANCH  22  23
ENDBRANCH   9  22
TORSDOF 8
