REMARK  Name = ZINC00718505
REMARK  10 active torsions:
REMARK  status: ('A' for Active; 'I' for Inactive)
REMARK    1  A    between atoms: C_1  and  C_2
REMARK    2  A    between atoms: C_2  and  O_3
REMARK    3  A    between atoms: O_3  and  C_4
REMARK    4  A    between atoms: C_7  and  C_13
REMARK    5  A    between atoms: C_8  and  O_10
REMARK    6  A    between atoms: O_10  and  C_11
REMARK    7  A    between atoms: C_11  and  C_12
REMARK    8  A    between atoms: C_20  and  N_34
REMARK    9  A    between atoms: C_21  and  C_32
REMARK   10  A    between atoms: C_22  and  C_24
REMARK                            x       y       z     vdW  Elec       q    Type
REMARK                         _______ _______ _______ _____ _____    ______ ____
ROOT
ATOM      1  C   UNL     1       1.121  -6.056  -1.837  0.00  0.00    +0.104 A 
ATOM      2  C   UNL     1       0.701  -7.014  -0.910  0.00  0.00    +0.054 A 
ATOM      3  C   UNL     1       0.967  -8.249  -1.428  0.00  0.00    +0.223 A 
ATOM      4  N   UNL     1       1.537  -8.071  -2.639  0.00  0.00    -0.246 N 
ATOM      5  H   UNL     1       1.833  -8.774  -3.238  0.00  0.00    +0.192 HD
ATOM      6  N   UNL     1       1.620  -6.691  -2.881  0.00  0.00    -0.170 NA
ATOM      7  O   UNL     1       0.674  -9.398  -0.771  0.00  0.00    -0.423 OA
ATOM      8  C   UNL     1      -0.142  -9.314   0.300  0.00  0.00    +0.200 C 
ATOM      9  C   UNL     1      -0.469  -8.152   0.907  0.00  0.00    +0.098 C 
ATOM     10  C   UNL     1       0.061  -6.819   0.440  0.00  0.00    +0.106 C 
ENDROOT
BRANCH  10  11
ATOM     11  C   UNL     1       1.086  -6.308   1.419  0.00  0.00    +0.019 A 
ATOM     12  C   UNL     1       2.274  -6.996   1.601  0.00  0.00    +0.129 A 
ATOM     13  C   UNL     1       3.215  -6.525   2.501  0.00  0.00    +0.039 A 
ATOM     14  C   UNL     1       2.968  -5.369   3.218  0.00  0.00    +0.004 A 
ATOM     15  C   UNL     1       1.783  -4.682   3.036  0.00  0.00    +0.020 A 
ATOM     16  C   UNL     1       0.844  -5.148   2.133  0.00  0.00    +0.048 A 
ATOM     17 CL   UNL     1      -0.642  -4.281   1.900  0.00  0.00    -0.083 Cl
ATOM     18  F   UNL     1       2.514  -8.126   0.901  0.00  0.00    -0.205 F 
ENDBRANCH  10  11
BRANCH   1  22
ATOM     19  C   UNL     1       0.828  -1.833  -1.379  0.00  0.00    +0.124 A 
ATOM     20  C   UNL     1      -0.278  -2.638  -1.139  0.00  0.00    +0.046 A 
ATOM     21  C   UNL     1      -0.186  -4.006  -1.286  0.00  0.00    +0.017 A 
ATOM     22  C   UNL     1       1.019  -4.584  -1.678  0.00  0.00    +0.044 A 
ATOM     23  C   UNL     1       2.133  -3.774  -1.920  0.00  0.00    +0.133 A 
ATOM     24  C   UNL     1       2.030  -2.401  -1.775  0.00  0.00    +0.092 A 
BRANCH  19  25
ATOM     25  O   UNL     1       0.731  -0.486  -1.232  0.00  0.00    -0.492 OA
BRANCH  25  27
ATOM     26  C   UNL     1      -0.452   1.556  -0.710  0.00  0.00    +0.048 C 
ATOM     27  C   UNL     1      -0.536   0.032  -0.822  0.00  0.00    +0.225 C 
ENDBRANCH  25  27
ENDBRANCH  19  25
BRANCH  23  28
ATOM     28  O   UNL     1       3.311  -4.332  -2.302  0.00  0.00    -0.491 OA
BRANCH  28  29
ATOM     29  C   UNL     1       4.406  -3.443  -2.533  0.00  0.00    +0.226 C 
ATOM     30  C   UNL     1       5.638  -4.248  -2.951  0.00  0.00    +0.048 C 
ENDBRANCH  28  29
ENDBRANCH  23  28
ENDBRANCH   1  22
BRANCH   8  31
ATOM     31  N   UNL     1      -0.672 -10.477   0.801  0.00  0.00    -0.328 N 
ATOM     32  H   UNL     1      -0.456 -11.327   0.387  0.00  0.00    +0.145 HD
ATOM     33  H   UNL     1      -1.262 -10.449   1.571  0.00  0.00    +0.145 HD
ENDBRANCH   8  31
BRANCH   9  34
ATOM     34  C   UNL     1      -1.351  -8.187   2.035  0.00  0.00    +0.101 C 
ATOM     35  N   UNL     1      -2.050  -8.215   2.930  0.00  0.00    -0.191 NA
ENDBRANCH   9  34
TORSDOF 8
