REMARK  Name = ZINC67129699
REMARK  12 active torsions:
REMARK  status: ('A' for Active; 'I' for Inactive)
REMARK    1  A    between atoms: C_1  and  C_2
REMARK    2  A    between atoms: C_2  and  C_4
REMARK    3  A    between atoms: C_2  and  N_14
REMARK    4  A    between atoms: C_7  and  S_10
REMARK    5  A    between atoms: S_10  and  N_13
REMARK    6  A    between atoms: C_15  and  C_17
REMARK    7  A    between atoms: C_17  and  N_18
REMARK    8  A    between atoms: C_19  and  O_21
REMARK    9  A    between atoms: O_21  and  C_22
REMARK   10  A    between atoms: C_22  and  C_23
REMARK   11  A    between atoms: C_22  and  C_24
REMARK   12  A    between atoms: C_22  and  C_25
REMARK                            x       y       z     vdW  Elec       q    Type
REMARK                         _______ _______ _______ _____ _____    ______ ____
ROOT
ATOM      1  C   UNL     1      -0.019   1.526   0.010  0.00  0.00    +0.033 C 
ATOM      2  C   UNL     1       0.002  -0.004   0.002  0.00  0.00    +0.100 C 
ENDROOT
BRANCH   2   3
ATOM      3  C   UNL     1      -1.412  -0.526   0.013  0.00  0.00    -0.027 A 
ATOM      4  C   UNL     1      -2.123  -0.571   1.197  0.00  0.00    +0.007 A 
ATOM      5  C   UNL     1      -3.420  -1.049   1.207  0.00  0.00    +0.029 A 
ATOM      6  C   UNL     1      -4.006  -1.482   0.032  0.00  0.00    +0.105 A 
ATOM      7  C   UNL     1      -3.295  -1.436  -1.153  0.00  0.00    +0.029 A 
ATOM      8  C   UNL     1      -2.000  -0.954  -1.163  0.00  0.00    +0.007 A 
BRANCH   6   9
ATOM      9  S   UNL     1      -5.658  -2.093   0.045  0.00  0.00    +0.056 S 
ATOM     10  O   UNL     1      -5.785  -2.944  -1.086  0.00  0.00    -0.153 OA
ATOM     11  O   UNL     1      -5.915  -2.542   1.369  0.00  0.00    -0.153 OA
BRANCH   9  12
ATOM     12  N   UNL     1      -6.660  -0.801  -0.219  0.00  0.00    -0.204 NA
ATOM     13  H   UNL     1      -7.510  -0.930  -0.669  0.00  0.00    +0.144 HD
ATOM     14  H   UNL     1      -6.397   0.085   0.076  0.00  0.00    +0.144 HD
ENDBRANCH   9  12
ENDBRANCH   6   9
ENDBRANCH   2   3
BRANCH   2  15
ATOM     15  N   UNL     1       0.711  -0.489   1.189  0.00  0.00    -0.307 N 
ATOM     16  C   UNL     1       2.054  -0.600   1.174  0.00  0.00    +0.231 C 
ATOM     17  O   UNL     1       2.676  -0.297   0.177  0.00  0.00    -0.274 OA
ATOM     18  H   UNL     1       0.213  -0.731   1.986  0.00  0.00    +0.149 HD
BRANCH  16  19
ATOM     19  C   UNL     1       2.783  -1.099   2.395  0.00  0.00    +0.203 C 
BRANCH  19  20
ATOM     20  N   UNL     1       4.223  -1.127   2.126  0.00  0.00    -0.273 N 
ATOM     21  C   UNL     1       5.078  -1.542   3.081  0.00  0.00    +0.401 C 
ATOM     22  O   UNL     1       4.655  -1.893   4.165  0.00  0.00    -0.226 OA
ATOM     23  H   UNL     1       4.560  -0.847   1.261  0.00  0.00    +0.153 HD
BRANCH  21  24
ATOM     24  O   UNL     1       6.401  -1.568   2.835  0.00  0.00    -0.445 OA
BRANCH  24  25
ATOM     25  C   UNL     1       7.250  -2.020   3.892  0.00  0.00    +0.107 C 
ATOM     26  C   UNL     1       6.874  -3.454   4.271  0.00  0.00    +0.055 C 
ATOM     27  C   UNL     1       8.707  -1.980   3.429  0.00  0.00    +0.055 C 
ATOM     28  C   UNL     1       7.076  -1.109   5.109  0.00  0.00    +0.055 C 
ENDBRANCH  24  25
ENDBRANCH  21  24
ENDBRANCH  19  20
ENDBRANCH  16  19
ENDBRANCH   2  15
TORSDOF 8
