REMARK  Name = ZINC56227096
REMARK  9 active torsions:
REMARK  status: ('A' for Active; 'I' for Inactive)
REMARK    1  A    between atoms: C_1  and  C_2
REMARK    2  A    between atoms: C_2  and  C_3
REMARK    3  A    between atoms: C_2  and  C_4
REMARK    4  A    between atoms: C_2  and  N_5
REMARK    5  A    between atoms: N_5  and  S_6
REMARK    6  A    between atoms: S_6  and  C_9
REMARK    7  A    between atoms: C_12  and  C_15
REMARK    8  A    between atoms: N_17  and  C_18
REMARK    9  A    between atoms: N_17  and  C_19
REMARK                            x       y       z     vdW  Elec       q    Type
REMARK                         _______ _______ _______ _____ _____    ______ ____
ROOT
ATOM      1  C   UNL     1       3.964   0.150  -0.256  0.00  0.00    +0.105 A 
ATOM      2  C   UNL     1       3.438   0.229   1.022  0.00  0.00    +0.029 A 
ATOM      3  C   UNL     1       4.116  -0.328   2.086  0.00  0.00    +0.015 A 
ATOM      4  C   UNL     1       5.335  -0.973   1.872  0.00  0.00    +0.037 A 
ATOM      5  C   UNL     1       5.860  -1.050   0.580  0.00  0.00    +0.015 A 
ATOM      6  C   UNL     1       5.169  -0.493  -0.476  0.00  0.00    +0.029 A 
ENDROOT
BRANCH   4   7
ATOM      7  C   UNL     1       6.068  -1.572   3.007  0.00  0.00    +0.251 C 
ATOM      8  O   UNL     1       6.269  -0.919   4.013  0.00  0.00    -0.270 OA
ATOM      9  N   UNL     1       6.513  -2.841   2.928  0.00  0.00    -0.270 N 
ATOM     10  C   UNL     1       6.398  -3.580   1.668  0.00  0.00    +0.138 C 
BRANCH   9  11
ATOM     11  C   UNL     1       7.085  -3.454   4.049  0.00  0.00    +0.039 A 
ATOM     12  C   UNL     1       6.893  -2.910   5.312  0.00  0.00    +0.026 A 
ATOM     13  C   UNL     1       7.458  -3.515   6.418  0.00  0.00    +0.043 A 
ATOM     14  C   UNL     1       8.217  -4.663   6.268  0.00  0.00    +0.159 A 
ATOM     15  C   UNL     1       8.411  -5.208   5.008  0.00  0.00    +0.160 A 
ATOM     16  C   UNL     1       7.842  -4.608   3.900  0.00  0.00    +0.064 A 
ATOM     17  F   UNL     1       9.152  -6.329   4.864  0.00  0.00    -0.202 F 
ATOM     18  F   UNL     1       8.769  -5.253   7.351  0.00  0.00    -0.202 F 
ENDBRANCH   9  11
ENDBRANCH   4   7
BRANCH   1  19
ATOM     19  S   UNL     1       3.091   0.865  -1.609  0.00  0.00    +0.059 S 
ATOM     20  O   UNL     1       4.005   0.925  -2.696  0.00  0.00    -0.153 OA
ATOM     21  O   UNL     1       2.432   2.018  -1.104  0.00  0.00    -0.153 OA
BRANCH  19  22
ATOM     22  N   UNL     1       1.905  -0.205  -2.047  0.00  0.00    -0.185 NA
ATOM     23  H   UNL     1       0.973   0.017  -1.898  0.00  0.00    +0.149 HD
BRANCH  22  25
ATOM     24  C   UNL     1       3.261  -2.220  -1.760  0.00  0.00    +0.029 C 
ATOM     25  C   UNL     1       2.264  -1.486  -2.659  0.00  0.00    +0.032 C 
ATOM     26  C   UNL     1       2.901  -1.237  -4.028  0.00  0.00    +0.029 C 
ATOM     27  C   UNL     1       1.006  -2.341  -2.830  0.00  0.00    +0.029 C 
ENDBRANCH  22  25
ENDBRANCH  19  22
ENDBRANCH   1  19
TORSDOF 5
