REMARK  Name = ZINC20722735
REMARK  9 active torsions:
REMARK  status: ('A' for Active; 'I' for Inactive)
REMARK    1  A    between atoms: C_1  and  C_2
REMARK    2  A    between atoms: C_2  and  C_3
REMARK    3  A    between atoms: C_2  and  C_4
REMARK    4  A    between atoms: C_4  and  C_5
REMARK    5  A    between atoms: C_5  and  C_7
REMARK    6  A    between atoms: C_5  and  N_11
REMARK    7  A    between atoms: C_7  and  O_9
REMARK    8  A    between atoms: O_9  and  C_10
REMARK    9  A    between atoms: C_23  and  C_25
REMARK                            x       y       z     vdW  Elec       q    Type
REMARK                         _______ _______ _______ _____ _____    ______ ____
ROOT
ATOM      1  N   UNL     1      -2.253   1.773  -0.953  0.00  0.00    -0.286 N 
ATOM      2  C   UNL     1      -1.113   2.233  -1.506  0.00  0.00    +0.304 C 
ATOM      3  O   UNL     1      -0.316   1.454  -1.993  0.00  0.00    -0.253 OA
ATOM      4  N   UNL     1      -0.856   3.556  -1.518  0.00  0.00    -0.273 N 
ATOM      5  C   UNL     1      -1.744   4.503  -0.828  0.00  0.00    +0.116 C 
ATOM      6  C   UNL     1      -0.973   5.177   0.314  0.00  0.00    +0.076 C 
ATOM      7  C   UNL     1       0.382   5.598  -0.195  0.00  0.00    +0.066 A 
ATOM      8  C   UNL     1       0.960   5.115  -1.316  0.00  0.00    +0.064 A 
ATOM      9  N   UNL     1       2.169   5.725  -1.442  0.00  0.00    -0.346 N 
ATOM     10  H   UNL     1       2.817   5.581  -2.150  0.00  0.00    +0.167 HD
ATOM     11  C   UNL     1       2.296   6.570  -0.393  0.00  0.00    +0.197 A 
ATOM     12  N   UNL     1       1.222   6.487   0.347  0.00  0.00    -0.240 NA
ATOM     13  C   UNL     1       0.327   4.090  -2.218  0.00  0.00    +0.158 C 
ATOM     14  H   UNL     1      -2.922   2.397  -0.630  0.00  0.00    +0.151 HD
ENDROOT
BRANCH  13  15
ATOM     15  C   UNL     1      -0.093   4.740  -3.511  0.00  0.00    -0.003 A 
ATOM     16  C   UNL     1      -0.175   6.117  -3.598  0.00  0.00    +0.009 A 
ATOM     17  C   UNL     1      -0.559   6.714  -4.783  0.00  0.00    +0.020 A 
ATOM     18  C   UNL     1      -0.863   5.933  -5.885  0.00  0.00    +0.042 A 
ATOM     19  C   UNL     1      -0.780   4.555  -5.799  0.00  0.00    +0.040 A 
ATOM     20  C   UNL     1      -0.391   3.959  -4.613  0.00  0.00    +0.048 A 
ATOM     21 CL   UNL     1      -0.281   2.229  -4.506  0.00  0.00    -0.083 Cl
ATOM     22 CL   UNL     1      -1.347   6.683  -7.374  0.00  0.00    -0.083 Cl
ENDBRANCH  13  15
BRANCH   1  23
ATOM     23  C   UNL     1      -2.482   0.331  -0.840  0.00  0.00    +0.183 C 
BRANCH  23  24
ATOM     24  C   UNL     1      -3.958   0.067  -0.688  0.00  0.00    +0.327 C 
ATOM     25  O   UNL     1      -4.738   0.989  -0.675  0.00  0.00    -0.249 OA
BRANCH  24  26
ATOM     26  O   UNL     1      -4.405  -1.193  -0.566  0.00  0.00    -0.467 OA
ATOM     27  C   UNL     1      -5.816  -1.369  -0.426  0.00  0.00    +0.280 C 
ENDBRANCH  24  26
ENDBRANCH  23  24
BRANCH  23  28
ATOM     28  C   UNL     1      -1.738  -0.210   0.383  0.00  0.00    +0.036 C 
BRANCH  28  30
ATOM     29  C   UNL     1      -1.087  -2.305  -0.812  0.00  0.00    +0.007 C 
ATOM     30  C   UNL     1      -1.827  -1.737   0.401  0.00  0.00    -0.015 C 
ATOM     31  C   UNL     1      -1.187  -2.270   1.684  0.00  0.00    +0.007 C 
ENDBRANCH  28  30
ENDBRANCH  23  28
ENDBRANCH   1  23
TORSDOF 6
