REMARK  Name = ZINC35035867
REMARK  10 active torsions:
REMARK  status: ('A' for Active; 'I' for Inactive)
REMARK    1  A    between atoms: C_1  and  C_2
REMARK    2  A    between atoms: C_2  and  C_3
REMARK    3  A    between atoms: C_3  and  C_5
REMARK    4  A    between atoms: C_3  and  N_17
REMARK    5  A    between atoms: N_17  and  C_18
REMARK    6  A    between atoms: C_18  and  C_19
REMARK    7  A    between atoms: C_19  and  N_20
REMARK    8  A    between atoms: N_20  and  C_21
REMARK    9  A    between atoms: N_20  and  C_22
REMARK   10  A    between atoms: N_25  and  C_26
REMARK                            x       y       z     vdW  Elec       q    Type
REMARK                         _______ _______ _______ _____ _____    ______ ____
ROOT
ATOM      1  N   UNL     1      -2.085  -0.166  -1.384  0.00  0.00    -0.277 N 
ATOM      2  C   UNL     1      -3.190   0.605  -1.431  0.00  0.00    +0.307 C 
ATOM      3  O   UNL     1      -3.666   1.049  -0.404  0.00  0.00    -0.252 OA
ATOM      4  N   UNL     1      -3.767   0.884  -2.617  0.00  0.00    -0.268 N 
ATOM      5  H   UNL     1      -3.423   0.481  -3.430  0.00  0.00    +0.156 HD
ENDROOT
BRANCH   4   6
ATOM      6  C   UNL     1      -4.862   1.755  -2.675  0.00  0.00    +0.053 A 
ATOM      7  C   UNL     1      -5.709   1.881  -1.582  0.00  0.00    +0.026 A 
ATOM      8  C   UNL     1      -6.788   2.741  -1.642  0.00  0.00    +0.022 A 
ATOM      9  C   UNL     1      -7.027   3.476  -2.790  0.00  0.00    +0.042 A 
ATOM     10  C   UNL     1      -6.185   3.352  -3.881  0.00  0.00    +0.041 A 
ATOM     11  C   UNL     1      -5.100   2.498  -3.825  0.00  0.00    +0.064 A 
ATOM     12 CL   UNL     1      -4.039   2.349  -5.191  0.00  0.00    -0.082 Cl
ATOM     13 CL   UNL     1      -8.384   4.555  -2.861  0.00  0.00    -0.083 Cl
ENDBRANCH   4   6
BRANCH   1  14
ATOM     14  C   UNL     1      -1.458  -0.469  -0.095  0.00  0.00    +0.143 C 
BRANCH  14  15
ATOM     15  C   UNL     1      -0.972   0.809   0.540  0.00  0.00    +0.131 A 
ATOM     16  N   UNL     1      -0.471   0.751   1.802  0.00  0.00    -0.309 N 
ATOM     17  H   UNL     1      -0.434  -0.100   2.266  0.00  0.00    +0.170 HD
ATOM     18  C   UNL     1      -0.021   1.870   2.416  0.00  0.00    +0.259 A 
ATOM     19  O   UNL     1       0.431   1.833   3.546  0.00  0.00    -0.267 OA
ATOM     20  C   UNL     1      -0.101   3.132   1.666  0.00  0.00    +0.065 A 
ATOM     21  C   UNL     1       0.335   4.340   2.208  0.00  0.00    +0.015 A 
ATOM     22  C   UNL     1       0.237   5.494   1.461  0.00  0.00    +0.001 A 
ATOM     23  C   UNL     1      -0.291   5.461   0.176  0.00  0.00    +0.002 A 
ATOM     24  C   UNL     1      -0.727   4.278  -0.377  0.00  0.00    +0.028 A 
ATOM     25  C   UNL     1      -0.637   3.095   0.360  0.00  0.00    +0.078 A 
ATOM     26  N   UNL     1      -1.050   1.907  -0.148  0.00  0.00    -0.232 NA
ENDBRANCH  14  15
BRANCH  14  28
ATOM     27  C   UNL     1      -2.881  -2.495   0.240  0.00  0.00    +0.006 C 
ATOM     28  C   UNL     1      -2.481  -1.139   0.825  0.00  0.00    +0.027 C 
ENDBRANCH  14  28
ENDBRANCH   1  14
BRANCH   1  29
ATOM     29  C   UNL     1      -1.511  -0.700  -2.621  0.00  0.00    +0.091 C 
BRANCH  29  30
ATOM     30  C   UNL     1      -2.228  -1.999  -2.996  0.00  0.00    -0.060 C 
BRANCH  30  31
ATOM     31  N   UNL     1      -1.720  -2.483  -4.287  0.00  0.00    +0.377 N 
ATOM     32  C   UNL     1      -2.320  -3.789  -4.590  0.00  0.00    -0.097 C 
ATOM     33  C   UNL     1      -2.073  -1.525  -5.343  0.00  0.00    -0.097 C 
ATOM     34  H   UNL     1      -0.717  -2.577  -4.239  0.00  0.00    -0.083 HD
ENDBRANCH  30  31
ENDBRANCH  29  30
ENDBRANCH   1  29
TORSDOF 7
