REMARK  Name = ZINC20876983
REMARK  12 active torsions:
REMARK  status: ('A' for Active; 'I' for Inactive)
REMARK    1  A    between atoms: C_1  and  C_2
REMARK    2  A    between atoms: C_2  and  C_4
REMARK    3  A    between atoms: C_2  and  N_10
REMARK    4  A    between atoms: N_10  and  C_11
REMARK    5  A    between atoms: C_11  and  C_12
REMARK    6  A    between atoms: C_14  and  O_33
REMARK    7  A    between atoms: C_15  and  O_19
REMARK    8  A    between atoms: O_19  and  C_20
REMARK    9  A    between atoms: C_20  and  C_21
REMARK   10  A    between atoms: C_21  and  C_23
REMARK   11  A    between atoms: C_21  and  O_32
REMARK   12  A    between atoms: O_33  and  C_34
REMARK                            x       y       z     vdW  Elec       q    Type
REMARK                         _______ _______ _______ _____ _____    ______ ____
ROOT
ATOM      1  C   UNL     1       0.938   0.440   4.819  0.00  0.00    -0.060 A 
ATOM      2  C   UNL     1      -0.011  -0.365   4.215  0.00  0.00    +0.051 A 
ATOM      3  C   UNL     1      -0.561   0.005   2.998  0.00  0.00    +0.163 A 
ATOM      4  C   UNL     1      -0.148   1.182   2.381  0.00  0.00    +0.176 A 
ATOM      5  C   UNL     1       0.803   1.984   2.991  0.00  0.00    +0.063 A 
ATOM      6  C   UNL     1       1.344   1.611   4.208  0.00  0.00    +0.021 A 
ATOM      7 BR   UNL     1       1.362   3.587   2.159  0.00  0.00    -0.046 Br
ENDROOT
BRANCH   3   8
ATOM      8  O   UNL     1      -1.498  -0.783   2.406  0.00  0.00    -0.491 OA
ATOM      9  C   UNL     1      -1.873  -1.976   3.098  0.00  0.00    +0.277 C 
ENDBRANCH   3   8
BRANCH   1  10
ATOM     10  C   UNL     1       1.531   0.038   6.144  0.00  0.00    -0.046 C 
BRANCH  10  11
ATOM     11  N   UNL     1       0.719   0.598   7.234  0.00  0.00    +0.386 N 
ATOM     12  H   UNL     1      -0.307   0.212   7.143  0.00  0.00    -0.085 HD
ATOM     13  H   UNL     1       0.709   1.694   7.138  0.00  0.00    -0.085 HD
BRANCH  11  15
ATOM     14  C   UNL     1       0.739  -1.152   8.947  0.00  0.00    -0.009 C 
ATOM     15  C   UNL     1       1.269   0.226   8.544  0.00  0.00    -0.044 C 
BRANCH  15  16
ATOM     16  C   UNL     1       0.850   1.245   9.572  0.00  0.00    -0.062 A 
ATOM     17  C   UNL     1      -0.428   1.771   9.542  0.00  0.00    +0.002 A 
ATOM     18  C   UNL     1      -0.814   2.703  10.488  0.00  0.00    +0.000 A 
ATOM     19  C   UNL     1       0.081   3.115  11.458  0.00  0.00    +0.000 A 
ATOM     20  C   UNL     1       1.360   2.592  11.484  0.00  0.00    +0.000 A 
ATOM     21  C   UNL     1       1.745   1.657  10.541  0.00  0.00    +0.002 A 
ENDBRANCH  15  16
ENDBRANCH  11  15
ENDBRANCH  10  11
ENDBRANCH   1  10
BRANCH   4  22
ATOM     22  O   UNL     1      -0.682   1.547   1.184  0.00  0.00    -0.484 OA
BRANCH  22  23
ATOM     23  C   UNL     1      -0.013   1.086   0.008  0.00  0.00    +0.265 C 
BRANCH  23  24
ATOM     24  C   UNL     1      -0.753   1.593  -1.232  0.00  0.00    +0.182 C 
BRANCH  24  25
ATOM     25  C   UNL     1      -0.121   1.007  -2.468  0.00  0.00    -0.012 A 
ATOM     26  C   UNL     1       1.040   1.559  -2.977  0.00  0.00    +0.010 A 
ATOM     27  C   UNL     1       1.623   1.025  -4.111  0.00  0.00    +0.050 A 
ATOM     28  C   UNL     1       1.045  -0.065  -4.740  0.00  0.00    +0.166 A 
ATOM     29  C   UNL     1      -0.124  -0.621  -4.228  0.00  0.00    +0.167 A 
ATOM     30  C   UNL     1      -0.701  -0.084  -3.088  0.00  0.00    +0.055 A 
ATOM     31  O   UNL     1      -0.490  -1.673  -5.017  0.00  0.00    -0.453 OA
ATOM     32  C   UNL     1       0.685  -2.009  -5.778  0.00  0.00    +0.466 C 
ATOM     33  O   UNL     1       1.412  -0.768  -5.851  0.00  0.00    -0.453 OA
ENDBRANCH  24  25
BRANCH  24  34
ATOM     34  O   UNL     1      -0.672   3.018  -1.285  0.00  0.00    -0.384 OA
ATOM     35  H   UNL     1      -1.148   3.566  -2.111  0.00  0.00    +0.210 HD
ENDBRANCH  24  34
ENDBRANCH  23  24
ENDBRANCH  22  23
ENDBRANCH   4  22
TORSDOF 10
