REMARK  Name = ZINC15946383
REMARK  8 active torsions:
REMARK  status: ('A' for Active; 'I' for Inactive)
REMARK    1  A    between atoms: C_1  and  C_2
REMARK    2  A    between atoms: C_2  and  C_3
REMARK    3  A    between atoms: C_2  and  N_4
REMARK    4  A    between atoms: C_12  and  O_33
REMARK    5  A    between atoms: C_14  and  C_17
REMARK    6  A    between atoms: C_20  and  O_23
REMARK    7  A    between atoms: O_23  and  C_24
REMARK    8  A    between atoms: C_24  and  C_26
REMARK                            x       y       z     vdW  Elec       q    Type
REMARK                         _______ _______ _______ _____ _____    ______ ____
ROOT
ATOM      1  N   UNL     1      -1.706  -0.262   0.403  0.00  0.00    +0.384 N 
ATOM      2  C   UNL     1      -1.960  -1.683   0.673  0.00  0.00    -0.073 C 
ATOM      3  C   UNL     1      -3.442  -1.903   0.996  0.00  0.00    +0.018 C 
ATOM      4  C   UNL     1      -4.263  -1.271  -0.119  0.00  0.00    -0.027 A 
ATOM      5  C   UNL     1      -3.691  -0.371  -0.956  0.00  0.00    -0.021 A 
ATOM      6  S   UNL     1      -4.985   0.090  -2.072  0.00  0.00    -0.080 S 
ATOM      7  C   UNL     1      -6.215  -0.845  -1.469  0.00  0.00    +0.080 A 
ATOM      8  C   UNL     1      -5.659  -1.546  -0.391  0.00  0.00    +0.067 A 
ATOM      9  C   UNL     1      -6.545  -2.489   0.341  0.00  0.00    +0.220 C 
ATOM     10  N   UNL     1      -7.827  -2.423   0.105  0.00  0.00    -0.223 NA
ATOM     11  C   UNL     1      -8.456  -1.448  -0.777  0.00  0.00    +0.224 C 
ATOM     12  N   UNL     1      -7.533  -0.997  -1.834  0.00  0.00    -0.313 N 
ATOM     13  C   UNL     1      -2.274   0.102  -0.908  0.00  0.00    -0.035 C 
ATOM     14  H   UNL     1      -7.838  -0.817  -2.737  0.00  0.00    +0.149 HD
ATOM     15  H   UNL     1      -2.137   0.299   1.123  0.00  0.00    -0.081 HD
ENDROOT
BRANCH  11  16
ATOM     16  C   UNL     1      -8.889  -0.256   0.037  0.00  0.00    -0.005 A 
ATOM     17  C   UNL     1      -8.932   0.998  -0.544  0.00  0.00    +0.011 A 
ATOM     18  C   UNL     1      -9.329   2.092   0.200  0.00  0.00    +0.047 A 
ATOM     19  C   UNL     1      -9.686   1.932   1.531  0.00  0.00    +0.132 A 
ATOM     20  C   UNL     1      -9.643   0.673   2.111  0.00  0.00    +0.047 A 
ATOM     21  C   UNL     1      -9.250  -0.419   1.362  0.00  0.00    +0.011 A 
BRANCH  19  22
ATOM     22  O   UNL     1     -10.077   3.007   2.265  0.00  0.00    -0.422 OA
BRANCH  22  23
ATOM     23  C   UNL     1     -11.324   3.482   2.076  0.00  0.00    +0.346 C 
ATOM     24  O   UNL     1     -12.030   3.009   1.208  0.00  0.00    -0.244 OA
BRANCH  23  25
ATOM     25  C   UNL     1     -11.832   4.578   2.925  0.00  0.00    +0.078 A 
ATOM     26  C   UNL     1     -11.022   5.128   3.921  0.00  0.00    +0.016 A 
ATOM     27  C   UNL     1     -11.503   6.152   4.710  0.00  0.00    +0.001 A 
ATOM     28  C   UNL     1     -12.786   6.634   4.518  0.00  0.00    +0.001 A 
ATOM     29  C   UNL     1     -13.596   6.094   3.535  0.00  0.00    +0.021 A 
ATOM     30  C   UNL     1     -13.125   5.073   2.733  0.00  0.00    +0.055 A 
ATOM     31 CL   UNL     1     -14.139   4.401   1.495  0.00  0.00    -0.083 Cl
ENDBRANCH  23  25
ENDBRANCH  22  23
ENDBRANCH  19  22
ENDBRANCH  11  16
BRANCH   1  33
ATOM     32  C   UNL     1       0.011   1.441   0.015  0.00  0.00    -0.014 C 
ATOM     33  C   UNL     1      -0.258  -0.017   0.395  0.00  0.00    -0.074 C 
ATOM     34  C   UNL     1       0.315  -0.296   1.786  0.00  0.00    -0.014 C 
ENDBRANCH   1  33
BRANCH   9  35
ATOM     35  O   UNL     1      -6.040  -3.384   1.220  0.00  0.00    -0.492 OA
ATOM     36  H   UNL     1      -6.707  -3.945   1.637  0.00  0.00    +0.294 HD
ENDBRANCH   9  35
TORSDOF 6
