REMARK  Name = ZINC13499240
REMARK  11 active torsions:
REMARK  status: ('A' for Active; 'I' for Inactive)
REMARK    1  A    between atoms: C_1  and  C_2
REMARK    2  A    between atoms: C_2  and  C_3
REMARK    3  A    between atoms: C_3  and  C_4
REMARK    4  A    between atoms: C_4  and  C_6
REMARK    5  A    between atoms: C_4  and  N_75
REMARK    6  A    between atoms: N_10  and  C_11
REMARK    7  A    between atoms: C_16  and  C_17
REMARK    8  A    between atoms: C_16  and  N_75
REMARK    9  A    between atoms: C_21  and  C_29
REMARK   10  A    between atoms: C_29  and  C_30
REMARK   11  A    between atoms: C_31  and  N_75
REMARK                            x       y       z     vdW  Elec       q    Type
REMARK                         _______ _______ _______ _____ _____    ______ ____
ROOT
ATOM      1  N   UNL     1       2.504   3.096   0.984  0.00  0.00    +0.391 N 
ATOM      2  H   UNL     1       3.185   2.578   0.417  0.00  0.00    -0.080 HD
ENDROOT
BRANCH   1   3
ATOM      3  C   UNL     1       2.376   2.436   2.300  0.00  0.00    -0.067 C 
ATOM      4  C   UNL     1       1.383   3.193   3.186  0.00  0.00    -0.015 C 
ATOM      5  C   UNL     1       1.269   2.490   4.540  0.00  0.00    -0.002 C 
ATOM      6  C   UNL     1       2.640   2.463   5.218  0.00  0.00    -0.000 C 
ATOM      7  C   UNL     1       3.633   1.707   4.333  0.00  0.00    -0.002 C 
ATOM      8  C   UNL     1       3.747   2.409   2.978  0.00  0.00    -0.015 C 
ENDBRANCH   1   3
BRANCH   1   9
ATOM      9  C   UNL     1       1.200   3.095   0.289  0.00  0.00    +0.003 C 
BRANCH   9  10
ATOM     10  C   UNL     1       0.347   4.241   0.767  0.00  0.00    +0.138 A 
ATOM     11  N   UNL     1       0.426   4.845   1.928  0.00  0.00    -0.115 NA
ATOM     12  N   UNL     1      -0.470   5.770   1.957  0.00  0.00    -0.023 NA
ATOM     13  N   UNL     1      -1.118   5.773   0.845  0.00  0.00    -0.044 NA
ATOM     14  N   UNL     1      -0.644   4.845   0.084  0.00  0.00    -0.228 N 
BRANCH  14  15
ATOM     15  C   UNL     1      -1.102   4.507  -1.265  0.00  0.00    +0.111 C 
ATOM     16  C   UNL     1      -1.149   5.776  -2.141  0.00  0.00    +0.027 C 
ATOM     17  C   UNL     1      -2.404   5.579  -3.028  0.00  0.00    +0.002 C 
ATOM     18  C   UNL     1      -3.408   4.909  -2.057  0.00  0.00    +0.002 C 
ATOM     19  C   UNL     1      -2.538   3.956  -1.212  0.00  0.00    +0.027 C 
ENDBRANCH  14  15
ENDBRANCH   9  10
BRANCH   9  20
ATOM     20  C   UNL     1       0.480   1.773   0.566  0.00  0.00    -0.008 C 
BRANCH  20  22
ATOM     21  C   UNL     1       0.513  -0.691   0.153  0.00  0.00    +0.004 C 
ATOM     22  C   UNL     1       1.280   0.619  -0.042  0.00  0.00    -0.005 C 
ENDBRANCH  20  22
ENDBRANCH   9  20
ENDBRANCH   1   9
BRANCH   1  23
ATOM     23  C   UNL     1       2.981   4.484   1.160  0.00  0.00    -0.036 C 
BRANCH  23  24
ATOM     24  C   UNL     1       3.549   4.968  -0.149  0.00  0.00    +0.001 A 
ATOM     25  C   UNL     1       2.786   5.723  -0.979  0.00  0.00    +0.017 A 
ATOM     26  C   UNL     1       3.369   6.182  -2.241  0.00  0.00    -0.001 A 
ATOM     27  C   UNL     1       2.633   6.969  -3.133  0.00  0.00    +0.013 A 
ATOM     28  C   UNL     1       3.204   7.378  -4.305  0.00  0.00    -0.047 A 
ATOM     29  C   UNL     1       4.509   7.020  -4.617  0.00  0.00    +0.005 A 
ATOM     30  C   UNL     1       5.252   6.246  -3.753  0.00  0.00    +0.026 A 
ATOM     31  C   UNL     1       4.692   5.818  -2.554  0.00  0.00    +0.049 A 
ATOM     32  N   UNL     1       5.413   5.043  -1.670  0.00  0.00    -0.322 N 
ATOM     33  H   UNL     1       6.324   4.793  -1.888  0.00  0.00    +0.169 HD
ATOM     34  C   UNL     1       4.871   4.630  -0.511  0.00  0.00    +0.251 A 
ATOM     35  O   UNL     1       5.537   3.947   0.246  0.00  0.00    -0.268 OA
BRANCH  28  36
ATOM     36  C   UNL     1       2.412   8.225  -5.267  0.00  0.00    +0.032 C 
ATOM     37  C   UNL     1       2.626   9.704  -4.940  0.00  0.00    +0.009 C 
ENDBRANCH  28  36
ENDBRANCH  23  24
ENDBRANCH   1  23
TORSDOF 9
