REMARK  Name = ZINC58385151
REMARK  10 active torsions:
REMARK  status: ('A' for Active; 'I' for Inactive)
REMARK    1  A    between atoms: C_1  and  C_2
REMARK    2  A    between atoms: C_2  and  C_3
REMARK    3  A    between atoms: C_3  and  C_4
REMARK    4  A    between atoms: C_3  and  C_5
REMARK    5  A    between atoms: C_5  and  C_6
REMARK    6  A    between atoms: C_5  and  N_23
REMARK    7  A    between atoms: N_8  and  C_9
REMARK    8  A    between atoms: C_9  and  C_10
REMARK    9  A    between atoms: C_9  and  C_11
REMARK   10  A    between atoms: C_24  and  C_26
REMARK                            x       y       z     vdW  Elec       q    Type
REMARK                         _______ _______ _______ _____ _____    ______ ____
ROOT
ATOM      1  C   UNL     1      -2.080   1.614  -1.393  0.00  0.00    +0.234 C 
ATOM      2  O   UNL     1      -2.978   2.408  -1.201  0.00  0.00    -0.274 OA
ATOM      3  N   UNL     1      -0.809   2.049  -1.502  0.00  0.00    -0.307 N 
ATOM      4  H   UNL     1      -0.102   1.425  -1.728  0.00  0.00    +0.149 HD
ENDROOT
BRANCH   3   5
ATOM      5  C   UNL     1      -0.496   3.462  -1.280  0.00  0.00    +0.100 C 
ATOM      6  C   UNL     1      -0.300   3.712   0.217  0.00  0.00    +0.033 C 
BRANCH   5   7
ATOM      7  C   UNL     1       0.768   3.819  -2.018  0.00  0.00    -0.025 A 
ATOM      8  C   UNL     1       1.869   2.983  -1.944  0.00  0.00    +0.007 A 
ATOM      9  C   UNL     1       3.032   3.301  -2.617  0.00  0.00    +0.028 A 
ATOM     10  C   UNL     1       3.098   4.463  -3.371  0.00  0.00    +0.067 A 
ATOM     11  C   UNL     1       1.987   5.306  -3.446  0.00  0.00    +0.067 A 
ATOM     12  C   UNL     1       0.822   4.975  -2.771  0.00  0.00    +0.033 A 
ATOM     13  N   UNL     1       2.348   6.375  -4.263  0.00  0.00    -0.306 N 
ATOM     14  H   UNL     1       1.780   7.125  -4.501  0.00  0.00    +0.170 HD
ATOM     15  C   UNL     1       3.619   6.191  -4.666  0.00  0.00    +0.325 A 
ATOM     16  O   UNL     1       4.241   6.944  -5.391  0.00  0.00    -0.247 OA
ATOM     17  N   UNL     1       4.099   5.046  -4.144  0.00  0.00    -0.306 N 
ATOM     18  H   UNL     1       4.989   4.688  -4.283  0.00  0.00    +0.170 HD
ENDBRANCH   5   7
ENDBRANCH   3   5
BRANCH   1  19
ATOM     19  C   UNL     1      -2.387   0.143  -1.508  0.00  0.00    +0.162 C 
BRANCH  19  20
ATOM     20  N   UNL     1      -3.802  -0.036  -1.843  0.00  0.00    -0.300 N 
ATOM     21  C   UNL     1      -4.207  -1.154  -2.478  0.00  0.00    +0.245 C 
ATOM     22  O   UNL     1      -3.400  -2.013  -2.771  0.00  0.00    -0.270 OA
ATOM     23  H   UNL     1      -4.446   0.650  -1.609  0.00  0.00    +0.150 HD
BRANCH  21  24
ATOM     24  C   UNL     1      -5.635  -1.335  -2.816  0.00  0.00    +0.037 A 
ATOM     25  C   UNL     1      -6.564  -0.347  -2.485  0.00  0.00    +0.013 A 
ATOM     26  C   UNL     1      -7.895  -0.522  -2.805  0.00  0.00    +0.001 A 
ATOM     27  C   UNL     1      -8.309  -1.673  -3.451  0.00  0.00    +0.000 A 
ATOM     28  C   UNL     1      -7.393  -2.656  -3.781  0.00  0.00    +0.001 A 
ATOM     29  C   UNL     1      -6.059  -2.491  -3.473  0.00  0.00    +0.013 A 
ENDBRANCH  21  24
ENDBRANCH  19  20
BRANCH  19  30
ATOM     30  C   UNL     1      -2.088  -0.546  -0.175  0.00  0.00    +0.015 C 
ATOM     31  C   UNL     1      -3.058  -0.035   0.892  0.00  0.00    +0.010 C 
BRANCH  30  33
ATOM     32  C   UNL     1      -1.171  -2.595  -1.272  0.00  0.00    +0.004 C 
ATOM     33  C   UNL     1      -2.254  -2.058  -0.334  0.00  0.00    +0.002 C 
ENDBRANCH  30  33
ENDBRANCH  19  30
ENDBRANCH   1  19
TORSDOF 7
