REMARK  Name = ZINC09292526
REMARK  11 active torsions:
REMARK  status: ('A' for Active; 'I' for Inactive)
REMARK    1  A    between atoms: C_1  and  C_2
REMARK    2  A    between atoms: C_5  and  S_8
REMARK    3  A    between atoms: S_8  and  N_11
REMARK    4  A    between atoms: N_11  and  C_12
REMARK    5  A    between atoms: C_16  and  C_18
REMARK    6  A    between atoms: N_20  and  C_21
REMARK    7  A    between atoms: C_21  and  C_22
REMARK    8  A    between atoms: C_22  and  C_23
REMARK    9  A    between atoms: C_23  and  N_63
REMARK   10  A    between atoms: C_24  and  N_63
REMARK   11  A    between atoms: C_25  and  N_63
REMARK                            x       y       z     vdW  Elec       q    Type
REMARK                         _______ _______ _______ _____ _____    ______ ____
ROOT
ATOM      1  C   UNL     1      -0.469   7.987  -0.174  0.00  0.00    +0.252 C 
ATOM      2  O   UNL     1       0.476   7.477   0.396  0.00  0.00    -0.270 OA
ATOM      3  N   UNL     1      -1.502   7.224  -0.581  0.00  0.00    -0.246 N 
ATOM      4  C   UNL     1      -1.519   5.870  -0.292  0.00  0.00    +0.168 A 
ATOM      5  N   UNL     1      -0.593   5.139   0.283  0.00  0.00    -0.224 NA
ATOM      6  C   UNL     1      -0.745   3.816   0.503  0.00  0.00    +0.080 A 
ATOM      7  C   UNL     1       0.167   2.921   1.109  0.00  0.00    +0.029 A 
ATOM      8  C   UNL     1      -0.147   1.595   1.258  0.00  0.00    +0.002 A 
ATOM      9  C   UNL     1      -1.362   1.085   0.824  0.00  0.00    +0.001 A 
ATOM     10  C   UNL     1      -2.276   1.931   0.223  0.00  0.00    +0.017 A 
ATOM     11  C   UNL     1      -1.973   3.261   0.074  0.00  0.00    +0.041 A 
ATOM     12  S   UNL     1      -2.808   4.673  -0.608  0.00  0.00    -0.052 S 
ENDROOT
BRANCH   1  17
ATOM     13  C   UNL     1       0.693  11.510  -0.794  0.00  0.00    +0.049 A 
ATOM     14  C   UNL     1      -0.522  12.180  -0.880  0.00  0.00    +0.024 A 
ATOM     15  C   UNL     1      -1.710  11.488  -0.736  0.00  0.00    +0.003 A 
ATOM     16  C   UNL     1      -1.699  10.127  -0.507  0.00  0.00    +0.013 A 
ATOM     17  C   UNL     1      -0.484   9.445  -0.420  0.00  0.00    +0.039 A 
ATOM     18  C   UNL     1       0.715  10.143  -0.560  0.00  0.00    +0.037 A 
BRANCH  13  19
ATOM     19  N   UNL     1       1.891  12.213  -0.940  0.00  0.00    -0.216 N 
ATOM     20  H   UNL     1       2.599  11.856  -1.498  0.00  0.00    +0.174 HD
BRANCH  19  21
ATOM     21  S   UNL     1       2.102  13.659  -0.160  0.00  0.00    +0.072 S 
ATOM     22  O   UNL     1       3.412  14.106  -0.481  0.00  0.00    -0.150 OA
ATOM     23  O   UNL     1       0.944  14.438  -0.426  0.00  0.00    -0.150 OA
BRANCH  21  28
ATOM     24  C   UNL     1       2.079  12.508   5.763  0.00  0.00    +0.044 C 
ATOM     25  C   UNL     1       2.085  12.796   4.284  0.00  0.00    -0.050 A 
ATOM     26  C   UNL     1       3.274  12.767   3.579  0.00  0.00    +0.005 A 
ATOM     27  C   UNL     1       3.279  13.031   2.222  0.00  0.00    +0.029 A 
ATOM     28  C   UNL     1       2.095  13.322   1.570  0.00  0.00    +0.109 A 
ATOM     29  C   UNL     1       0.907  13.355   2.276  0.00  0.00    +0.029 A 
ATOM     30  C   UNL     1       0.902  13.087   3.632  0.00  0.00    +0.005 A 
ENDBRANCH  21  28
ENDBRANCH  19  21
ENDBRANCH  13  19
ENDBRANCH   1  17
BRANCH   3  31
ATOM     31  C   UNL     1      -2.608   7.827  -1.329  0.00  0.00    +0.114 C 
BRANCH  31  32
ATOM     32  C   UNL     1      -3.849   7.900  -0.436  0.00  0.00    +0.001 C 
BRANCH  32  33
ATOM     33  C   UNL     1      -5.003   8.530  -1.217  0.00  0.00    -0.078 C 
BRANCH  33  36
ATOM     34  C   UNL     1      -5.983   9.526   0.760  0.00  0.00    -0.097 C 
ATOM     35  C   UNL     1      -7.382   8.976  -1.138  0.00  0.00    -0.097 C 
ATOM     36  N   UNL     1      -6.199   8.573  -0.349  0.00  0.00    +0.376 N 
ATOM     37  H   UNL     1      -6.361   7.638   0.042  0.00  0.00    -0.083 HD
ENDBRANCH  33  36
ENDBRANCH  32  33
ENDBRANCH  31  32
ENDBRANCH   3  31
TORSDOF 8
