REMARK  Name = ZINC14999324
REMARK  8 active torsions:
REMARK  status: ('A' for Active; 'I' for Inactive)
REMARK    1  A    between atoms: C_1  and  N_2
REMARK    2  A    between atoms: C_4  and  C_7
REMARK    3  A    between atoms: C_7  and  C_8
REMARK    4  A    between atoms: C_8  and  N_57
REMARK    5  A    between atoms: C_9  and  N_57
REMARK    6  A    between atoms: N_20  and  C_23
REMARK    7  A    between atoms: C_23  and  C_24
REMARK    8  A    between atoms: C_24  and  C_25
REMARK                            x       y       z     vdW  Elec       q    Type
REMARK                         _______ _______ _______ _____ _____    ______ ____
ROOT
ATOM      1  C   UNL     1      -2.218   1.208   1.188  0.00  0.00    -0.067 C 
ATOM      2  C   UNL     1      -0.733   1.581   1.262  0.00  0.00    -0.011 C 
ATOM      3  C   UNL     1      -0.013   1.086   0.008  0.00  0.00    +0.035 C 
ATOM      4  C   UNL     1      -0.756   1.594  -1.225  0.00  0.00    -0.023 A 
ATOM      5  C   UNL     1      -2.038   2.018  -1.129  0.00  0.00    -0.006 A 
ATOM      6  S   UNL     1      -2.489   2.509  -2.774  0.00  0.00    -0.073 S 
ATOM      7  C   UNL     1      -0.964   2.145  -3.584  0.00  0.00    +0.116 A 
ATOM      8  C   UNL     1      -0.148   1.650  -2.542  0.00  0.00    +0.076 A 
ATOM      9  C   UNL     1       1.188   1.257  -2.891  0.00  0.00    +0.262 A 
ATOM     10  O   UNL     1       1.971   0.819  -2.067  0.00  0.00    -0.267 OA
ATOM     11  N   UNL     1       1.522   1.405  -4.195  0.00  0.00    -0.298 N 
ATOM     12  C   UNL     1       0.667   1.891  -5.127  0.00  0.00    +0.203 A 
ATOM     13  N   UNL     1      -0.563   2.261  -4.846  0.00  0.00    -0.230 NA
ATOM     14  C   UNL     1      -2.888   2.063   0.103  0.00  0.00    +0.027 C 
ENDROOT
BRANCH   1  15
ATOM     15  N   UNL     1      -2.853   1.475   2.492  0.00  0.00    +0.381 N 
ATOM     16  H   UNL     1      -2.186   1.264   3.243  0.00  0.00    -0.086 HD
ATOM     17  H   UNL     1      -3.122   2.465   2.541  0.00  0.00    -0.086 HD
BRANCH  15  18
ATOM     18  C   UNL     1      -4.055   0.636   2.659  0.00  0.00    -0.077 C 
BRANCH  18  19
ATOM     19  C   UNL     1      -4.691   0.935   4.018  0.00  0.00    +0.019 C 
BRANCH  19  23
ATOM     20  C   UNL     1      -9.435  -0.679   3.945  0.00  0.00    +0.172 C 
ATOM     21  N   UNL     1      -7.988  -0.616   4.162  0.00  0.00    -0.274 N 
ATOM     22  C   UNL     1      -7.181   0.415   3.837  0.00  0.00    +0.111 A 
ATOM     23  C   UNL     1      -5.920   0.081   4.196  0.00  0.00    -0.012 A 
ATOM     24  C   UNL     1      -5.959  -1.195   4.768  0.00  0.00    +0.138 A 
ATOM     25  N   UNL     1      -7.198  -1.614   4.748  0.00  0.00    -0.180 NA
ENDBRANCH  19  23
ENDBRANCH  18  19
ENDBRANCH  15  18
ENDBRANCH   1  15
BRANCH  11  26
ATOM     26  C   UNL     1       2.871   1.023  -4.618  0.00  0.00    +0.131 C 
BRANCH  26  27
ATOM     27  C   UNL     1       3.806   2.228  -4.494  0.00  0.00    +0.057 C 
BRANCH  27  28
ATOM     28  C   UNL     1       5.194   1.834  -4.929  0.00  0.00    -0.044 A 
ATOM     29  C   UNL     1       5.569   1.972  -6.253  0.00  0.00    +0.004 A 
ATOM     30  C   UNL     1       6.842   1.612  -6.652  0.00  0.00    +0.002 A 
ATOM     31  C   UNL     1       7.741   1.113  -5.728  0.00  0.00    +0.020 A 
ATOM     32  C   UNL     1       7.367   0.974  -4.404  0.00  0.00    +0.041 A 
ATOM     33  C   UNL     1       6.094   1.340  -4.003  0.00  0.00    +0.023 A 
ATOM     34 CL   UNL     1       8.496   0.348  -3.243  0.00  0.00    -0.084 Cl
ENDBRANCH  27  28
ENDBRANCH  26  27
ENDBRANCH  11  26
TORSDOF 7
