REMARK  Name = ZINC15981039
REMARK  7 active torsions:
REMARK  status: ('A' for Active; 'I' for Inactive)
REMARK    1  A    between atoms: C_9  and  C_12
REMARK    2  A    between atoms: C_12  and  N_13
REMARK    3  A    between atoms: N_13  and  C_14
REMARK    4  A    between atoms: C_17  and  S_23
REMARK    5  A    between atoms: C_19  and  N_20
REMARK    6  A    between atoms: S_23  and  N_26
REMARK    7  A    between atoms: N_26  and  C_27
REMARK                            x       y       z     vdW  Elec       q    Type
REMARK                         _______ _______ _______ _____ _____    ______ ____
ROOT
ATOM      1  C   UNL     1       0.266   9.176   0.542  0.00  0.00    +0.058 A 
ATOM      2  C   UNL     1      -0.372   9.829  -0.506  0.00  0.00    +0.027 A 
ATOM      3  C   UNL     1      -0.170  11.181  -0.700  0.00  0.00    +0.031 A 
ATOM      4  C   UNL     1       0.675  11.883   0.140  0.00  0.00    +0.111 A 
ATOM      5  C   UNL     1       1.316  11.235   1.180  0.00  0.00    +0.063 A 
ATOM      6  C   UNL     1       1.114   9.883   1.383  0.00  0.00    +0.149 A 
ENDROOT
BRANCH   6   7
ATOM      7  N   UNL     1       1.801   9.191   2.496  0.00  0.00    +0.058 N 
ATOM      8  O   UNL     1       2.459   9.830   3.298  0.00  0.00    -0.126 OA
ATOM      9  O   UNL     1       1.708   7.982   2.611  0.00  0.00    -0.126 OA
ENDBRANCH   6   7
BRANCH   4  10
ATOM     10  S   UNL     1       0.936  13.606  -0.115  0.00  0.00    +0.072 S 
ATOM     11  O   UNL     1      -0.252  14.113  -0.709  0.00  0.00    -0.150 OA
ATOM     12  O   UNL     1       1.460  14.122   1.101  0.00  0.00    -0.150 OA
BRANCH  10  13
ATOM     13  N   UNL     1       2.134  13.758  -1.248  0.00  0.00    -0.216 N 
ATOM     14  H   UNL     1       1.942  14.174  -2.104  0.00  0.00    +0.174 HD
BRANCH  13  15
ATOM     15  C   UNL     1       3.420  13.287  -0.973  0.00  0.00    +0.048 A 
ATOM     16  C   UNL     1       4.018  13.570   0.249  0.00  0.00    +0.026 A 
ATOM     17  C   UNL     1       5.287  13.098   0.521  0.00  0.00    +0.022 A 
ATOM     18  C   UNL     1       5.968  12.355  -0.427  0.00  0.00    +0.041 A 
ATOM     19  C   UNL     1       5.378  12.077  -1.647  0.00  0.00    +0.022 A 
ATOM     20  C   UNL     1       4.106  12.541  -1.922  0.00  0.00    +0.026 A 
ATOM     21 CL   UNL     1       7.566  11.770  -0.084  0.00  0.00    -0.084 Cl
ENDBRANCH  13  15
ENDBRANCH  10  13
ENDBRANCH   4  10
BRANCH   1  22
ATOM     22  N   UNL     1       0.059   7.809   0.744  0.00  0.00    -0.338 N 
ATOM     23  H   UNL     1       0.570   7.336   1.420  0.00  0.00    +0.146 HD
BRANCH  22  24
ATOM     24  C   UNL     1      -0.929   7.090  -0.064  0.00  0.00    +0.149 C 
BRANCH  24  33
ATOM     25  C   UNL     1       0.554   0.904   0.238  0.00  0.00    +0.004 A 
ATOM     26  C   UNL     1       1.701   1.668   0.349  0.00  0.00    +0.004 A 
ATOM     27  C   UNL     1       1.620   3.047   0.315  0.00  0.00    +0.049 A 
ATOM     28  C   UNL     1       0.389   3.668   0.169  0.00  0.00    +0.163 A 
ATOM     29  C   UNL     1      -0.764   2.900   0.060  0.00  0.00    +0.162 A 
ATOM     30  C   UNL     1      -0.676   1.516   0.089  0.00  0.00    +0.049 A 
ATOM     31  O   UNL     1      -1.983   3.488  -0.079  0.00  0.00    -0.485 OA
ATOM     32  C   UNL     1      -1.992   4.861  -0.487  0.00  0.00    +0.275 C 
ATOM     33  C   UNL     1      -0.958   5.619   0.356  0.00  0.00    +0.228 C 
ATOM     34  O   UNL     1       0.326   5.027   0.130  0.00  0.00    -0.480 OA
ENDBRANCH  24  33
ENDBRANCH  22  24
ENDBRANCH   1  22
TORSDOF 7
