REMARK  Name = ZINC46080951
REMARK  4 active torsions:
REMARK  status: ('A' for Active; 'I' for Inactive)
REMARK    1  A    between atoms: C_8  and  C_19
REMARK    2  A    between atoms: C_12  and  C_14
REMARK    3  A    between atoms: N_21  and  N_22
REMARK    4  A    between atoms: N_22  and  C_23
REMARK                            x       y       z     vdW  Elec       q    Type
REMARK                         _______ _______ _______ _____ _____    ______ ____
ROOT
ATOM      1  C   UNL     1       1.197   1.597   2.850  0.00  0.00    +0.000 A 
ATOM      2  C   UNL     1       0.421   1.703   1.711  0.00  0.00    +0.000 A 
ATOM      3  C   UNL     1       0.382   0.659   0.810  0.00  0.00    +0.005 A 
ATOM      4  C   UNL     1       1.114  -0.498   1.040  0.00  0.00    -0.027 A 
ATOM      5  C   UNL     1       1.880  -0.609   2.178  0.00  0.00    -0.040 A 
ATOM      6  C   UNL     1       1.923   0.447   3.080  0.00  0.00    +0.004 A 
ATOM      7  C   UNL     1       2.676  -1.844   2.510  0.00  0.00    +0.067 C 
ATOM      8  C   UNL     1       2.923  -2.685   1.258  0.00  0.00    +0.168 C 
ATOM      9  N   UNL     1       1.643  -2.819   0.543  0.00  0.00    -0.279 N 
ATOM     10  C   UNL     1       1.039  -1.595   0.007  0.00  0.00    +0.144 C 
ATOM     11  C   UNL     1       1.050  -4.020   0.387  0.00  0.00    +0.283 C 
ATOM     12  O   UNL     1       1.479  -4.992   0.980  0.00  0.00    -0.267 OA
ENDROOT
BRANCH  11  13
ATOM     13  C   UNL     1      -0.111  -4.154  -0.498  0.00  0.00    +0.189 A 
ATOM     14  C   UNL     1      -0.878  -5.273  -0.651  0.00  0.00    +0.054 A 
ATOM     15  C   UNL     1      -1.873  -4.956  -1.589  0.00  0.00    +0.042 A 
ATOM     16  C   UNL     1      -1.672  -3.673  -1.963  0.00  0.00    +0.196 A 
ATOM     17  O   UNL     1      -0.613  -3.192  -1.300  0.00  0.00    -0.458 OA
ENDBRANCH  11  13
BRANCH   8  18
ATOM     18  C   UNL     1       3.434  -4.047   1.651  0.00  0.00    +0.250 C 
ATOM     19  O   UNL     1       4.417  -4.505   1.109  0.00  0.00    -0.272 OA
ATOM     20  N   UNL     1       2.798  -4.755   2.606  0.00  0.00    -0.235 N 
ATOM     21  H   UNL     1       2.012  -4.388   3.040  0.00  0.00    +0.173 HD
BRANCH  20  22
ATOM     22  N   UNL     1       3.273  -6.021   2.972  0.00  0.00    -0.264 N 
ATOM     23  H   UNL     1       4.060  -6.388   2.538  0.00  0.00    +0.170 HD
BRANCH  22  24
ATOM     24  C   UNL     1       2.615  -6.755   3.961  0.00  0.00    +0.046 A 
ATOM     25  C   UNL     1       1.485  -6.233   4.579  0.00  0.00    +0.024 A 
ATOM     26  C   UNL     1       0.836  -6.961   5.557  0.00  0.00    +0.003 A 
ATOM     27  C   UNL     1       1.309  -8.208   5.921  0.00  0.00    +0.020 A 
ATOM     28  C   UNL     1       2.434  -8.731   5.308  0.00  0.00    +0.043 A 
ATOM     29  C   UNL     1       3.084  -8.010   4.325  0.00  0.00    +0.044 A 
ATOM     30 CL   UNL     1       3.024 -10.297   5.770  0.00  0.00    -0.083 Cl
ENDBRANCH  22  24
ENDBRANCH  20  22
ENDBRANCH   8  18
TORSDOF 4
