REMARK  Name = ZINC09138449
REMARK  9 active torsions:
REMARK  status: ('A' for Active; 'I' for Inactive)
REMARK    1  A    between atoms: C_1  and  C_2
REMARK    2  A    between atoms: C_6  and  N_9
REMARK    3  A    between atoms: C_7  and  C_8
REMARK    4  A    between atoms: C_10  and  C_12
REMARK    5  A    between atoms: N_14  and  C_15
REMARK    6  A    between atoms: C_15  and  C_16
REMARK    7  A    between atoms: C_16  and  C_18
REMARK    8  A    between atoms: C_16  and  N_69
REMARK    9  A    between atoms: N_27  and  C_28
REMARK                            x       y       z     vdW  Elec       q    Type
REMARK                         _______ _______ _______ _____ _____    ______ ____
ROOT
ATOM      1  C   UNL     1      -1.874   8.511  -1.255  0.00  0.00    -0.020 C 
ENDROOT
BRANCH   1   2
ATOM      2  C   UNL     1      -2.103   9.944  -0.848  0.00  0.00    -0.059 A 
ATOM      3  C   UNL     1      -1.825  10.350   0.445  0.00  0.00    +0.004 A 
ATOM      4  C   UNL     1      -2.032  11.662   0.814  0.00  0.00    +0.023 A 
ATOM      5  C   UNL     1      -2.533  12.584  -0.107  0.00  0.00    +0.033 A 
ATOM      6  C   UNL     1      -2.811  12.172  -1.398  0.00  0.00    -0.026 A 
ATOM      7  C   UNL     1      -2.595  10.853  -1.763  0.00  0.00    +0.007 A 
ATOM      8  C   UNL     1      -3.343  13.121  -2.443  0.00  0.00    +0.038 C 
ATOM      9  C   UNL     1      -3.865  14.391  -1.767  0.00  0.00    +0.024 C 
ATOM     10  C   UNL     1      -2.806  14.861  -0.763  0.00  0.00    +0.105 C 
ATOM     11  N   UNL     1      -2.734  13.892   0.332  0.00  0.00    -0.333 N 
ATOM     12  C   UNL     1      -1.713  14.281   1.314  0.00  0.00    +0.129 C 
ENDBRANCH   1   2
BRANCH   1  18
ATOM     13  C   UNL     1      -4.173   8.286  -0.530  0.00  0.00    -0.078 C 
ATOM     14  C   UNL     1      -5.194   7.304   0.048  0.00  0.00    -0.019 C 
ATOM     15  C   UNL     1      -4.756   6.889   1.455  0.00  0.00    -0.004 C 
ATOM     16  C   UNL     1      -3.357   6.272   1.385  0.00  0.00    -0.019 C 
ATOM     17  C   UNL     1      -2.389   7.284   0.767  0.00  0.00    -0.078 C 
ATOM     18  N   UNL     1      -2.853   7.623  -0.595  0.00  0.00    +0.385 N 
ATOM     19  H   UNL     1      -2.941   6.759  -1.142  0.00  0.00    -0.081 HD
ENDBRANCH   1  18
BRANCH   1  20
ATOM     20  C   UNL     1      -0.459   8.088  -0.858  0.00  0.00    +0.094 C 
BRANCH  20  23
ATOM     21  C   UNL     1       0.944   6.101  -1.003  0.00  0.00    +0.299 C 
ATOM     22  O   UNL     1       1.774   6.673  -0.328  0.00  0.00    -0.265 OA
ATOM     23  N   UNL     1      -0.208   6.722  -1.324  0.00  0.00    -0.309 N 
ATOM     24  H   UNL     1      -0.872   6.265  -1.864  0.00  0.00    +0.149 HD
BRANCH  21  26
ATOM     25  N   UNL     1       2.351   4.087  -1.158  0.00  0.00    -0.278 N 
ATOM     26  C   UNL     1       1.199   4.708  -1.479  0.00  0.00    +0.303 C 
ATOM     27  O   UNL     1       0.369   4.136  -2.155  0.00  0.00    -0.265 OA
ATOM     28  H   UNL     1       2.978   4.511  -0.551  0.00  0.00    +0.155 HD
BRANCH  25  34
ATOM     29  C   UNL     1       4.885  -0.120  -0.962  0.00  0.00    +0.044 C 
ATOM     30  C   UNL     1       3.867   0.771  -1.625  0.00  0.00    -0.046 A 
ATOM     31  C   UNL     1       3.221   0.348  -2.772  0.00  0.00    +0.004 A 
ATOM     32  C   UNL     1       2.286   1.163  -3.384  0.00  0.00    +0.002 A 
ATOM     33  C   UNL     1       1.995   2.403  -2.851  0.00  0.00    +0.023 A 
ATOM     34  C   UNL     1       2.643   2.832  -1.699  0.00  0.00    +0.037 A 
ATOM     35  C   UNL     1       3.581   2.010  -1.087  0.00  0.00    -0.026 A 
ATOM     36  C   UNL     1       4.285   2.471   0.163  0.00  0.00    +0.046 C 
ENDBRANCH  25  34
ENDBRANCH  21  26
ENDBRANCH  20  23
ENDBRANCH   1  20
TORSDOF 6
