REMARK  Name = ZINC00274253
REMARK  3 active torsions:
REMARK  status: ('A' for Active; 'I' for Inactive)
REMARK    1  A    between atoms: C_6  and  N_7
REMARK    2  A    between atoms: C_8  and  C_9
REMARK    3  A    between atoms: C_14  and  O_15
REMARK                            x       y       z     vdW  Elec       q    Type
REMARK                         _______ _______ _______ _____ _____    ______ ____
ROOT
ATOM      1  C   UNL     1      -0.017   1.394   0.010  0.00  0.00    +0.030 A 
ATOM      2  C   UNL     1       1.165   2.102   0.002  0.00  0.00    +0.030 A 
ATOM      3  C   UNL     1       2.379   1.428  -0.013  0.00  0.00    +0.067 A 
ATOM      4  C   UNL     1       2.405   0.030  -0.021  0.00  0.00    +0.069 A 
ATOM      5  C   UNL     1       1.221  -0.684  -0.014  0.00  0.00    +0.055 A 
ATOM      6  C   UNL     1       0.002  -0.004   0.002  0.00  0.00    +0.066 A 
ATOM      7  N   UNL     1       3.747  -0.347  -0.036  0.00  0.00    -0.306 N 
ATOM      8  H   UNL     1       4.080  -1.257  -0.045  0.00  0.00    +0.170 HD
ATOM      9  C   UNL     1       4.500   0.769  -0.038  0.00  0.00    +0.325 A 
ATOM     10  O   UNL     1       5.717   0.792  -0.050  0.00  0.00    -0.247 OA
ATOM     11  N   UNL     1       3.705   1.855  -0.024  0.00  0.00    -0.306 N 
ATOM     12  H   UNL     1       4.004   2.777  -0.022  0.00  0.00    +0.170 HD
ENDROOT
BRANCH   6  13
ATOM     13  N   UNL     1      -1.173  -0.705   0.009  0.00  0.00    -0.255 NA
ATOM     14  C   UNL     1      -2.134  -0.357   0.819  0.00  0.00    +0.123 C 
BRANCH  14  15
ATOM     15  C   UNL     1      -3.397  -1.110   0.827  0.00  0.00    +0.036 A 
ATOM     16  C   UNL     1      -4.433  -0.738   1.689  0.00  0.00    +0.033 A 
ATOM     17  C   UNL     1      -5.615  -1.448   1.691  0.00  0.00    +0.042 A 
ATOM     18  C   UNL     1      -5.780  -2.532   0.842  0.00  0.00    +0.023 A 
ATOM     19  C   UNL     1      -4.764  -2.910  -0.015  0.00  0.00    +0.047 A 
ATOM     20  C   UNL     1      -3.573  -2.204  -0.035  0.00  0.00    +0.126 A 
ATOM     21 CL   UNL     1      -6.901  -0.985   2.762  0.00  0.00    -0.084 Cl
BRANCH  20  22
ATOM     22  O   UNL     1      -2.577  -2.571  -0.881  0.00  0.00    -0.506 OA
ATOM     23  H   UNL     1      -1.962  -3.217  -0.508  0.00  0.00    +0.292 HD
ENDBRANCH  20  22
ENDBRANCH  14  15
ENDBRANCH   6  13
TORSDOF 3
