REMARK  Name = ZINC35447791
REMARK  7 active torsions:
REMARK  status: ('A' for Active; 'I' for Inactive)
REMARK    1  A    between atoms: C_1  and  C_2
REMARK    2  A    between atoms: C_5  and  C_37
REMARK    3  A    between atoms: N_8  and  S_10
REMARK    4  A    between atoms: S_10  and  C_13
REMARK    5  A    between atoms: C_17  and  C_19
REMARK    6  A    between atoms: N_23  and  C_24
REMARK    7  A    between atoms: N_30  and  C_31
REMARK                            x       y       z     vdW  Elec       q    Type
REMARK                         _______ _______ _______ _____ _____    ______ ____
ROOT
ATOM      1  C   UNL     1       4.652  -2.080  -2.516  0.00  0.00    +0.063 A 
ATOM      2  C   UNL     1       4.410  -0.783  -2.168  0.00  0.00    +0.075 A 
ATOM      3  S   UNL     1       5.571   0.074  -3.223  0.00  0.00    -0.061 S 
ATOM      4  C   UNL     1       6.262  -1.367  -4.022  0.00  0.00    +0.148 A 
ATOM      5  N   UNL     1       7.249  -1.442  -4.989  0.00  0.00    -0.295 N 
ATOM      6  N   UNL     1       5.582  -2.347  -3.439  0.00  0.00    -0.291 N 
ATOM      7  H   UNL     1       7.469  -2.296  -5.393  0.00  0.00    +0.154 HD
ENDROOT
BRANCH   1  12
ATOM      8  C   UNL     1       2.785  -4.097   0.047  0.00  0.00    +0.106 A 
ATOM      9  C   UNL     1       2.483  -5.238  -0.675  0.00  0.00    +0.028 A 
ATOM     10  C   UNL     1       2.884  -5.355  -1.994  0.00  0.00    +0.003 A 
ATOM     11  C   UNL     1       3.588  -4.333  -2.597  0.00  0.00    +0.010 A 
ATOM     12  C   UNL     1       3.896  -3.181  -1.874  0.00  0.00    +0.001 A 
ATOM     13  C   UNL     1       3.484  -3.067  -0.547  0.00  0.00    +0.038 A 
BRANCH   8  14
ATOM     14  S   UNL     1       2.271  -3.958   1.726  0.00  0.00    +0.061 S 
ATOM     15  O   UNL     1       3.145  -3.022   2.342  0.00  0.00    -0.153 OA
ATOM     16  O   UNL     1       2.108  -5.283   2.213  0.00  0.00    -0.153 OA
BRANCH  14  22
ATOM     17  C   UNL     1      -0.551   0.145   0.743  0.00  0.00    +0.009 C 
ATOM     18  C   UNL     1      -0.268  -1.353   0.616  0.00  0.00    +0.002 C 
ATOM     19  C   UNL     1      -1.588  -2.126   0.645  0.00  0.00    +0.009 C 
ATOM     20  C   UNL     1      -1.308  -3.622   0.486  0.00  0.00    +0.002 C 
ATOM     21  C   UNL     1      -0.441  -4.103   1.653  0.00  0.00    +0.112 C 
ATOM     22  N   UNL     1       0.766  -3.267   1.722  0.00  0.00    -0.176 NA
ATOM     23  C   UNL     1       0.612  -1.808   1.785  0.00  0.00    +0.112 C 
ATOM     24  C   UNL     1      -2.631  -4.391   0.481  0.00  0.00    +0.009 C 
ENDBRANCH  14  22
ENDBRANCH   8  14
ENDBRANCH   1  12
BRANCH   5  25
ATOM     25  C   UNL     1       7.928  -0.286  -5.385  0.00  0.00    +0.033 A 
ATOM     26  C   UNL     1       8.185   0.721  -4.463  0.00  0.00    +0.023 A 
ATOM     27  C   UNL     1       8.856   1.861  -4.858  0.00  0.00    +0.002 A 
ATOM     28  C   UNL     1       9.274   2.001  -6.169  0.00  0.00    +0.000 A 
ATOM     29  C   UNL     1       9.020   1.001  -7.089  0.00  0.00    +0.002 A 
ATOM     30  C   UNL     1       8.354  -0.145  -6.700  0.00  0.00    +0.023 A 
ENDBRANCH   5  25
BRANCH   6  31
ATOM     31  C   UNL     1       5.835  -3.655  -3.792  0.00  0.00    +0.049 A 
ATOM     32  C   UNL     1       6.404  -4.531  -2.869  0.00  0.00    +0.026 A 
ATOM     33  C   UNL     1       6.655  -5.840  -3.228  0.00  0.00    +0.002 A 
ATOM     34  C   UNL     1       6.344  -6.283  -4.500  0.00  0.00    +0.000 A 
ATOM     35  C   UNL     1       5.779  -5.418  -5.421  0.00  0.00    +0.002 A 
ATOM     36  C   UNL     1       5.518  -4.109  -5.071  0.00  0.00    +0.026 A 
ENDBRANCH   6  31
TORSDOF 5
