REMARK  Name = ZINC20883947
REMARK  6 active torsions:
REMARK  status: ('A' for Active; 'I' for Inactive)
REMARK    1  A    between atoms: C_1  and  N_2
REMARK    2  A    between atoms: N_2  and  C_3
REMARK    3  A    between atoms: N_2  and  C_4
REMARK    4  A    between atoms: C_7  and  C_10
REMARK    5  A    between atoms: C_15  and  C_25
REMARK    6  A    between atoms: C_28  and  N_31
REMARK                            x       y       z     vdW  Elec       q    Type
REMARK                         _______ _______ _______ _____ _____    ______ ____
ROOT
ATOM      1  C   UNL     1      -4.788   5.783  -1.217  0.00  0.00    +0.032 C 
ATOM      2  C   UNL     1      -4.097   4.463  -0.881  0.00  0.00    +0.059 C 
ATOM      3  C   UNL     1      -2.613   4.701  -0.651  0.00  0.00    +0.017 C 
ATOM      4  C   UNL     1      -1.965   5.660  -1.331  0.00  0.00    +0.036 C 
ATOM      5  C   UNL     1      -0.493   5.984  -1.223  0.00  0.00    +0.136 C 
ATOM      6  N   UNL     1       0.178   5.346  -0.110  0.00  0.00    -0.331 N 
ATOM      7  C   UNL     1       0.304   3.960  -0.044  0.00  0.00    +0.049 A 
ATOM      8  C   UNL     1       1.540   3.341  -0.150  0.00  0.00    +0.025 A 
ATOM      9  C   UNL     1       1.611   1.959  -0.142  0.00  0.00    +0.002 A 
ATOM     10  C   UNL     1       0.461   1.198  -0.043  0.00  0.00    +0.002 A 
ATOM     11  C   UNL     1      -0.775   1.813   0.062  0.00  0.00    +0.025 A 
ATOM     12  C   UNL     1      -0.845   3.196   0.085  0.00  0.00    +0.052 A 
ATOM     13  N   UNL     1      -2.045   3.877   0.266  0.00  0.00    -0.316 N 
ATOM     14  C   UNL     1      -2.664   6.482  -2.247  0.00  0.00    +0.163 C 
ATOM     15  O   UNL     1      -2.048   7.332  -2.860  0.00  0.00    -0.292 OA
ATOM     16  C   UNL     1      -4.137   6.341  -2.488  0.00  0.00    +0.088 C 
ATOM     17  H   UNL     1       0.600   5.958   0.701  0.00  0.00    +0.147 HD
ATOM     18  H   UNL     1      -2.538   3.710   1.235  0.00  0.00    +0.152 HD
ENDROOT
BRANCH   1  22
ATOM     19  C   UNL     1      -8.952   5.103  -1.903  0.00  0.00    +0.029 A 
ATOM     20  C   UNL     1      -8.545   5.984  -0.910  0.00  0.00    +0.023 A 
ATOM     21  C   UNL     1      -7.199   6.202  -0.691  0.00  0.00    +0.006 A 
ATOM     22  C   UNL     1      -6.256   5.543  -1.459  0.00  0.00    -0.043 A 
ATOM     23  C   UNL     1      -6.658   4.669  -2.453  0.00  0.00    +0.006 A 
ATOM     24  C   UNL     1      -8.002   4.443  -2.673  0.00  0.00    +0.023 A 
BRANCH  19  26
ATOM     25  C   UNL     1     -11.312   5.671  -1.406  0.00  0.00    +0.129 C 
ATOM     26  N   UNL     1     -10.312   4.880  -2.127  0.00  0.00    -0.336 N 
ATOM     27  C   UNL     1     -10.739   3.855  -3.083  0.00  0.00    +0.129 C 
ENDBRANCH  19  26
ENDBRANCH   1  22
BRANCH   5  28
ATOM     28  C   UNL     1       0.183   5.554  -2.499  0.00  0.00    -0.023 A 
ATOM     29  C   UNL     1       0.736   6.500  -3.341  0.00  0.00    +0.008 A 
ATOM     30  C   UNL     1       1.360   6.106  -4.510  0.00  0.00    +0.033 A 
ATOM     31  C   UNL     1       1.423   4.765  -4.841  0.00  0.00    +0.126 A 
ATOM     32  C   UNL     1       0.866   3.819  -4.002  0.00  0.00    +0.033 A 
ATOM     33  C   UNL     1       0.246   4.213  -2.831  0.00  0.00    +0.008 A 
BRANCH  31  34
ATOM     34  N   UNL     1       2.089   4.343  -6.094  0.00  0.00    +0.056 N 
ATOM     35  O   UNL     1       2.145   3.162  -6.386  0.00  0.00    -0.126 OA
ATOM     36  O   UNL     1       2.580   5.177  -6.834  0.00  0.00    -0.126 OA
ENDBRANCH  31  34
ENDBRANCH   5  28
TORSDOF 4
