REMARK  Name = ZINC25076430
REMARK  11 active torsions:
REMARK  status: ('A' for Active; 'I' for Inactive)
REMARK    1  A    between atoms: CD1_1  and  CG1_2
REMARK    2  A    between atoms: CG1_2  and  CB_3
REMARK    3  A    between atoms: CB_3  and  CG2_5
REMARK    4  A    between atoms: CB_3  and  CA_6
REMARK    5  A    between atoms: CA_6  and  C_8
REMARK    6  A    between atoms: CA_6  and  N_20
REMARK    7  A    between atoms: N_10  and  CA_11
REMARK    8  A    between atoms: CA_11  and  CB_13
REMARK    9  A    between atoms: CA_11  and  C_17
REMARK   10  A    between atoms: CB_13  and  CG_14
REMARK   11  A    between atoms: C_25  and  O_33
REMARK                            x       y       z     vdW  Elec       q    Type
REMARK                         _______ _______ _______ _____ _____    ______ ____
ROOT
ATOM      1  CA  ASP A   1       0.992  -2.287   0.815  0.00  0.00    +0.163 C 
ENDROOT
BRANCH   1   2
ATOM      2  N   ASP A   1       1.986  -2.643   1.829  0.00  0.00    -0.287 N 
ATOM      3  C   UNK A   0       2.448  -3.907   1.906  0.00  0.00    +0.308 C 
ATOM      4  O   UNK A   0       2.040  -4.752   1.133  0.00  0.00    -0.252 OA
ATOM      5  N   UNK A   0       3.364  -4.234   2.840  0.00  0.00    -0.245 N 
ATOM      6  C   UNK A   0       3.885  -3.236   3.788  0.00  0.00    +0.210 C 
ATOM      7  C   UNK A   0       5.360  -3.454   3.972  0.00  0.00    +0.206 C 
ATOM      8  N   UNK A   0       5.901  -4.619   3.810  0.00  0.00    -0.214 NA
ATOM      9  C   UNK A   0       5.162  -5.715   3.454  0.00  0.00    +0.089 A 
ATOM     10  C   UNK A   0       3.865  -5.541   2.947  0.00  0.00    +0.064 A 
ATOM     11  C   UNK A   0       3.113  -6.635   2.568  0.00  0.00    +0.026 A 
ATOM     12  C   UNK A   0       3.641  -7.908   2.694  0.00  0.00    +0.002 A 
ATOM     13  C   UNK A   0       4.917  -8.088   3.198  0.00  0.00    +0.002 A 
ATOM     14  C   UNK A   0       5.681  -7.001   3.578  0.00  0.00    +0.030 A 
ATOM     15  H   ASP A   1       2.356  -1.879   2.529  0.00  0.00    +0.151 HD
BRANCH   7  16
ATOM     16  O   UNK A   0       6.141  -2.407   4.311  0.00  0.00    -0.494 OA
ATOM     17  H   UNK A   0       7.223  -2.551   4.450  0.00  0.00    +0.293 HD
ENDBRANCH   7  16
ENDBRANCH   1   2
BRANCH   1  18
ATOM     18  C   ASP A   1       1.087  -0.814   0.513  0.00  0.00    +0.234 C 
ATOM     19  O   ASP A   1       1.655  -0.072   1.287  0.00  0.00    -0.274 OA
ATOM     20  N   ASP A   1       0.539  -0.320  -0.615  0.00  0.00    -0.300 N 
ATOM     21  H   ASP A   1       0.104  -1.003  -1.360  0.00  0.00    +0.150 HD
BRANCH  20  22
ATOM     22  CA  ASP A   1       0.524   1.126  -0.850  0.00  0.00    +0.197 C 
BRANCH  22  23
ATOM     23  C   ASP A   1      -0.678   1.732  -0.174  0.00  0.00    +0.376 C 
ATOM     24  O   ASP A   1      -1.444   1.029   0.441  0.00  0.00    -0.244 OA
ATOM     25  OXT ASP A   1      -0.899   3.054  -0.255  0.00  0.00    -0.244 OA
ENDBRANCH  22  23
BRANCH  22  26
ATOM     26  CB  ASP A   1       0.455   1.398  -2.354  0.00  0.00    +0.159 C 
BRANCH  26  27
ATOM     27  CG  ASP A   1       1.715   0.900  -3.013  0.00  0.00    +0.358 C 
ATOM     28  OD1 ASP A   1       2.580   0.381  -2.348  0.00  0.00    -0.246 OA
ATOM     29  OD2 ASP A   1       1.876   1.033  -4.339  0.00  0.00    -0.246 OA
ENDBRANCH  26  27
ENDBRANCH  22  26
ENDBRANCH  20  22
ENDBRANCH   1  18
BRANCH   1  30
ATOM     30  CB  ASP A   1      -0.409  -2.612   1.337  0.00  0.00    +0.015 C 
ATOM     31  CG2 ASP A   1      -0.625  -1.917   2.683  0.00  0.00    +0.010 C 
BRANCH  30  33
ATOM     32  CD1 ASP A   1      -1.986  -4.460   1.919  0.00  0.00    +0.004 C 
ATOM     33  CG1 ASP A   1      -0.549  -4.125   1.517  0.00  0.00    +0.002 C 
ENDBRANCH  30  33
ENDBRANCH   1  30
TORSDOF 9
