REMARK  Name = ZINC13132078
REMARK  2 active torsions:
REMARK  status: ('A' for Active; 'I' for Inactive)
REMARK    1  A    between atoms: C_4  and  C_7
REMARK    2  A    between atoms: C_10  and  C_18
REMARK                            x       y       z     vdW  Elec       q    Type
REMARK                         _______ _______ _______ _____ _____    ______ ____
ROOT
ATOM      1  C   UNL     1       3.711  -0.707  -0.038  0.00  0.00    +0.106 C 
ATOM      2  C   UNL     1       4.048  -1.192   1.377  0.00  0.00    +0.059 C 
ATOM      3  C   UNL     1       5.412  -1.893   1.373  0.00  0.00    +0.144 C 
ATOM      4  N   UNL     1       5.439  -2.867   0.282  0.00  0.00    -0.226 N 
ATOM      5  C   UNL     1       4.594  -2.850  -0.777  0.00  0.00    +0.215 A 
ATOM      6  N   UNL     1       4.895  -3.858  -1.551  0.00  0.00    -0.202 NA
ATOM      7  C   UNL     1       5.920  -4.535  -1.023  0.00  0.00    +0.247 A 
ATOM      8  N   UNL     1       6.283  -3.962   0.098  0.00  0.00    -0.156 NA
ATOM      9  N   UNL     1       3.612  -1.879  -0.929  0.00  0.00    -0.307 N 
ATOM     10  H   UNL     1       2.899  -1.967  -1.582  0.00  0.00    +0.149 HD
ENDROOT
BRANCH   3  11
ATOM     11  C   UNL     1       5.622  -2.598   2.688  0.00  0.00    -0.005 A 
ATOM     12  C   UNL     1       4.745  -3.589   3.088  0.00  0.00    +0.007 A 
ATOM     13  C   UNL     1       4.937  -4.236   4.295  0.00  0.00    +0.000 A 
ATOM     14  C   UNL     1       6.006  -3.893   5.102  0.00  0.00    +0.001 A 
ATOM     15  C   UNL     1       6.883  -2.902   4.703  0.00  0.00    +0.020 A 
ATOM     16  C   UNL     1       6.694  -2.258   3.493  0.00  0.00    +0.046 A 
ATOM     17 CL   UNL     1       7.800  -1.018   2.987  0.00  0.00    -0.083 Cl
ENDBRANCH   3  11
BRANCH   1  21
ATOM     18  C   UNL     1      -0.017   1.378   0.010  0.00  0.00    +0.000 A 
ATOM     19  C   UNL     1       1.171   2.086   0.002  0.00  0.00    +0.000 A 
ATOM     20  C   UNL     1       2.377   1.411  -0.013  0.00  0.00    +0.005 A 
ATOM     21  C   UNL     1       2.396   0.029  -0.020  0.00  0.00    -0.027 A 
ATOM     22  C   UNL     1       1.208  -0.679  -0.012  0.00  0.00    +0.005 A 
ATOM     23  C   UNL     1       0.002  -0.004   0.002  0.00  0.00    +0.000 A 
ENDBRANCH   1  21
TORSDOF 2
