REMARK  Name = ZINC04572625
REMARK  12 active torsions:
REMARK  status: ('A' for Active; 'I' for Inactive)
REMARK    1  A    between atoms: C_1  and  C_2
REMARK    2  A    between atoms: C_2  and  C_3
REMARK    3  A    between atoms: C_3  and  C_5
REMARK    4  A    between atoms: C_3  and  N_6
REMARK    5  A    between atoms: C_7  and  C_9
REMARK    6  A    between atoms: C_13  and  C_15
REMARK    7  A    between atoms: C_15  and  N_16
REMARK    8  A    between atoms: C_19  and  C_27
REMARK    9  A    between atoms: C_27  and  C_28
REMARK   10  A    between atoms: C_27  and  C_29
REMARK   11  A    between atoms: C_27  and  C_30
REMARK   12  A    between atoms: C_30  and  C_31
REMARK                            x       y       z     vdW  Elec       q    Type
REMARK                         _______ _______ _______ _____ _____    ______ ____
ROOT
ATOM      1  N   UNL     1      -0.488   1.724  -1.222  0.00  0.00    -0.261 N 
ATOM      2  C   UNL     1      -1.437   1.087  -2.034  0.00  0.00    +0.079 A 
ATOM      3  C   UNL     1      -2.182   0.023  -1.549  0.00  0.00    +0.031 A 
ATOM      4  C   UNL     1      -3.116  -0.589  -2.364  0.00  0.00    -0.040 A 
ATOM      5  C   UNL     1      -3.312  -0.140  -3.657  0.00  0.00    +0.008 A 
ATOM      6  C   UNL     1      -2.575   0.924  -4.144  0.00  0.00    +0.048 A 
ATOM      7  C   UNL     1      -1.638   1.542  -3.335  0.00  0.00    +0.143 A 
ATOM      8  O   UNL     1      -0.906   2.590  -3.797  0.00  0.00    -0.481 OA
ATOM      9  C   UNL     1      -0.542   3.592  -2.843  0.00  0.00    +0.325 C 
ATOM     10  C   UNL     1      -0.014   2.933  -1.594  0.00  0.00    +0.258 C 
ATOM     11  O   UNL     1       0.834   3.487  -0.926  0.00  0.00    -0.271 OA
ENDROOT
BRANCH   4  12
ATOM     12  C   UNL     1      -3.922  -1.750  -1.842  0.00  0.00    -0.010 C 
ATOM     13  C   UNL     1      -2.980  -2.886  -1.438  0.00  0.00    +0.016 C 
ATOM     14  C   UNL     1      -4.731  -1.302  -0.623  0.00  0.00    +0.016 C 
BRANCH  12  15
ATOM     15  C   UNL     1      -4.875  -2.241  -2.933  0.00  0.00    +0.007 C 
ATOM     16  C   UNL     1      -5.694  -3.420  -2.403  0.00  0.00    +0.005 C 
ENDBRANCH  12  15
ENDBRANCH   4  12
BRANCH   1  17
ATOM     17  C   UNL     1      -0.013   1.086   0.008  0.00  0.00    +0.149 C 
BRANCH  17  22
ATOM     18  C   UNL     1       3.439  -0.279  -0.731  0.00  0.00    +0.037 A 
ATOM     19  C   UNL     1       3.160  -1.632  -0.926  0.00  0.00    +0.013 A 
ATOM     20  C   UNL     1       1.863  -2.089  -0.818  0.00  0.00    +0.001 A 
ATOM     21  C   UNL     1       0.840  -1.210  -0.510  0.00  0.00    +0.005 A 
ATOM     22  C   UNL     1       1.109   0.134  -0.321  0.00  0.00    -0.029 A 
ATOM     23  C   UNL     1       2.402   0.604  -0.426  0.00  0.00    +0.018 A 
BRANCH  18  25
ATOM     24  N   UNL     1       5.826  -0.637  -1.140  0.00  0.00    -0.309 N 
ATOM     25  C   UNL     1       4.827   0.218  -0.846  0.00  0.00    +0.244 C 
ATOM     26  O   UNL     1       5.066   1.397  -0.675  0.00  0.00    -0.270 OA
ATOM     27  H   UNL     1       5.635  -1.578  -1.276  0.00  0.00    +0.149 HD
BRANCH  24  28
ATOM     28  C   UNL     1       7.201  -0.145  -1.254  0.00  0.00    +0.070 C 
ATOM     29  C   UNL     1       7.844  -0.101   0.134  0.00  0.00    +0.028 C 
BRANCH  28  31
ATOM     30  C   UNL     1       7.437  -1.029  -3.579  0.00  0.00    +0.005 C 
ATOM     31  C   UNL     1       8.005  -1.081  -2.159  0.00  0.00    +0.018 C 
ENDBRANCH  28  31
ENDBRANCH  24  28
ENDBRANCH  18  25
ENDBRANCH  17  22
ENDBRANCH   1  17
TORSDOF 7
