REMARK  Name = ZINC48834898
REMARK  6 active torsions:
REMARK  status: ('A' for Active; 'I' for Inactive)
REMARK    1  A    between atoms: C_1  and  C_2
REMARK    2  A    between atoms: C_2  and  C_3
REMARK    3  A    between atoms: C_3  and  C_4
REMARK    4  A    between atoms: C_4  and  C_20
REMARK    5  A    between atoms: N_7  and  C_11
REMARK    6  A    between atoms: C_11  and  C_12
REMARK                            x       y       z     vdW  Elec       q    Type
REMARK                         _______ _______ _______ _____ _____    ______ ____
ROOT
ATOM      1  C   UNL     1       0.763  -2.041   1.233  0.00  0.00    +0.110 C 
ATOM      2  C   UNL     1       1.282  -2.574   2.553  0.00  0.00    +0.247 C 
ATOM      3  O   UNL     1       2.378  -2.387   3.039  0.00  0.00    -0.273 OA
ATOM      4  N   UNL     1       0.274  -3.299   3.076  0.00  0.00    -0.220 N 
ATOM      5  C   UNL     1      -0.800  -3.298   2.278  0.00  0.00    +0.310 C 
ATOM      6  O   UNL     1      -1.834  -3.882   2.535  0.00  0.00    -0.252 OA
ATOM      7  N   UNL     1      -0.607  -2.577   1.158  0.00  0.00    -0.285 N 
ATOM      8  C   UNL     1       1.609  -2.560   0.069  0.00  0.00    +0.041 C 
ATOM      9  H   UNL     1      -1.246  -2.438   0.441  0.00  0.00    +0.151 HD
ENDROOT
BRANCH   1  10
ATOM     10  C   UNL     1       0.742  -0.511   1.242  0.00  0.00    +0.035 C 
BRANCH  10  12
ATOM     11  C   UNL     1      -0.019   1.526   0.010  0.00  0.00    +0.004 C 
ATOM     12  C   UNL     1       0.002  -0.004   0.002  0.00  0.00    -0.001 C 
ENDBRANCH  10  12
ENDBRANCH   1  10
BRANCH   4  13
ATOM     13  C   UNL     1       0.344  -4.003   4.359  0.00  0.00    +0.153 C 
BRANCH  13  14
ATOM     14  C   UNL     1      -0.121  -3.086   5.461  0.00  0.00    -0.028 A 
ATOM     15  C   UNL     1       0.788  -2.273   6.113  0.00  0.00    +0.007 A 
ATOM     16  C   UNL     1       0.362  -1.432   7.124  0.00  0.00    +0.022 A 
ATOM     17  C   UNL     1      -0.973  -1.402   7.483  0.00  0.00    +0.059 A 
ATOM     18  C   UNL     1      -1.883  -2.216   6.830  0.00  0.00    +0.060 A 
ATOM     19  C   UNL     1      -1.457  -3.053   5.815  0.00  0.00    +0.026 A 
ATOM     20 CL   UNL     1      -3.559  -2.180   7.280  0.00  0.00    -0.082 Cl
ATOM     21 CL   UNL     1      -1.508  -0.346   8.753  0.00  0.00    -0.082 Cl
ENDBRANCH  13  14
ENDBRANCH   4  13
TORSDOF 4
