REMARK  Name = ZINC37350935
REMARK  7 active torsions:
REMARK  status: ('A' for Active; 'I' for Inactive)
REMARK    1  A    between atoms: C_1  and  C_2
REMARK    2  A    between atoms: C_5  and  C_10
REMARK    3  A    between atoms: C_7  and  O_8
REMARK    4  A    between atoms: O_8  and  C_9
REMARK    5  A    between atoms: C_11  and  C_16
REMARK    6  A    between atoms: C_14  and  N_15
REMARK    7  A    between atoms: C_17  and  C_21
REMARK                            x       y       z     vdW  Elec       q    Type
REMARK                         _______ _______ _______ _____ _____    ______ ____
ROOT
ATOM      1  C   UNL     1       0.061  -4.257  -0.027  0.00  0.00    +0.074 A 
ATOM      2  C   UNL     1      -0.994  -5.143  -0.531  0.00  0.00    +0.158 A 
ATOM      3  N   UNL     1      -0.578  -6.377  -0.356  0.00  0.00    -0.072 NA
ATOM      4  O   UNL     1       0.703  -6.346   0.242  0.00  0.00    -0.339 OA
ATOM      5  C   UNL     1       1.078  -5.071   0.428  0.00  0.00    +0.224 A 
ENDROOT
BRANCH   1  10
ATOM      6  C   UNL     1      -0.018   1.503   0.010  0.00  0.00    +0.047 C 
ATOM      7  C   UNL     1       0.002  -0.004   0.002  0.00  0.00    -0.009 A 
ATOM      8  C   UNL     1       0.006  -0.687  -1.200  0.00  0.00    +0.007 A 
ATOM      9  C   UNL     1       0.025  -2.066  -1.215  0.00  0.00    +0.009 A 
ATOM     10  C   UNL     1       0.041  -2.776  -0.014  0.00  0.00    -0.007 A 
ATOM     11  C   UNL     1       0.037  -2.087   1.197  0.00  0.00    +0.054 A 
ATOM     12  C   UNL     1       0.023  -0.702   1.202  0.00  0.00    +0.124 A 
BRANCH  12  13
ATOM     13  O   UNL     1       0.025  -0.027   2.381  0.00  0.00    -0.495 OA
ATOM     14  C   UNL     1       0.046  -0.809   3.577  0.00  0.00    +0.277 C 
ENDBRANCH  12  13
ENDBRANCH   1  10
BRANCH   2  15
ATOM     15  C   UNL     1      -2.280  -4.727  -1.124  0.00  0.00    +0.160 A 
ATOM     16  C   UNL     1      -3.253  -5.558  -1.584  0.00  0.00    -0.003 A 
ATOM     17  C   UNL     1      -4.296  -4.739  -2.059  0.00  0.00    +0.045 A 
ATOM     18  C   UNL     1      -3.912  -3.461  -1.868  0.00  0.00    +0.196 A 
ATOM     19  O   UNL     1      -2.697  -3.458  -1.298  0.00  0.00    -0.461 OA
ATOM     20  C   UNL     1      -3.222  -7.065  -1.586  0.00  0.00    +0.048 C 
ENDBRANCH   2  15
BRANCH   5  21
ATOM     21  N   UNL     1       2.268  -4.649   0.982  0.00  0.00    -0.327 N 
ATOM     22  H   UNL     1       2.449  -3.701   1.079  0.00  0.00    +0.145 HD
ATOM     23  H   UNL     1       2.925  -5.300   1.274  0.00  0.00    +0.145 HD
ENDBRANCH   5  21
TORSDOF 4
