REMARK  Name = ZINC29228030
REMARK  7 active torsions:
REMARK  status: ('A' for Active; 'I' for Inactive)
REMARK    1  A    between atoms: C_1  and  C_2
REMARK    2  A    between atoms: C_4  and  C_25
REMARK    3  A    between atoms: C_6  and  N_8
REMARK    4  A    between atoms: C_9  and  C_11
REMARK    5  A    between atoms: C_11  and  C_13
REMARK    6  A    between atoms: C_11  and  N_14
REMARK    7  A    between atoms: N_14  and  C_15
REMARK                            x       y       z     vdW  Elec       q    Type
REMARK                         _______ _______ _______ _____ _____    ______ ____
ROOT
ATOM      1  C   UNL     1       3.721  -2.120   0.084  0.00  0.00    +0.154 C 
ATOM      2  C   UNL     1       3.505  -2.795   1.440  0.00  0.00    +0.038 C 
ENDROOT
BRANCH   1   4
ATOM      3  N   UNL     1       5.156  -3.934  -0.791  0.00  0.00    -0.284 N 
ATOM      4  C   UNL     1       5.003  -2.621  -0.529  0.00  0.00    +0.237 C 
ATOM      5  O   UNL     1       5.897  -1.843  -0.786  0.00  0.00    -0.273 OA
ATOM      6  H   UNL     1       4.383  -4.651  -0.480  0.00  0.00    +0.155 HD
BRANCH   3  12
ATOM      7  C   UNL     1       8.542  -7.427  -1.503  0.00  0.00    +0.044 C 
ATOM      8  C   UNL     1       7.962  -6.074  -1.825  0.00  0.00    -0.048 A 
ATOM      9  C   UNL     1       8.561  -5.276  -2.782  0.00  0.00    +0.006 A 
ATOM     10  C   UNL     1       8.032  -4.034  -3.080  0.00  0.00    -0.048 A 
ATOM     11  C   UNL     1       6.904  -3.586  -2.422  0.00  0.00    +0.026 A 
ATOM     12  C   UNL     1       6.300  -4.385  -1.460  0.00  0.00    +0.034 A 
ATOM     13  C   UNL     1       6.837  -5.630  -1.159  0.00  0.00    +0.026 A 
ATOM     14  C   UNL     1       8.688  -3.167  -4.125  0.00  0.00    +0.044 C 
ENDBRANCH   3  12
ENDBRANCH   1   4
BRANCH   1  15
ATOM     15  N   UNL     1       3.802  -0.669   0.269  0.00  0.00    -0.333 N 
ATOM     16  H   UNL     1       4.783  -0.182   0.372  0.00  0.00    +0.147 HD
BRANCH  15  17
ATOM     17  C   UNL     1       2.632   0.098   0.314  0.00  0.00    +0.031 A 
ATOM     18  C   UNL     1       1.394  -0.517   0.183  0.00  0.00    +0.027 A 
ATOM     19  C   UNL     1       0.239   0.240   0.226  0.00  0.00    +0.051 A 
ATOM     20  C   UNL     1       0.312   1.614   0.399  0.00  0.00    +0.162 A 
ATOM     21  C   UNL     1       1.550   2.232   0.533  0.00  0.00    +0.164 A 
ATOM     22  C   UNL     1       2.709   1.472   0.489  0.00  0.00    +0.072 A 
ATOM     23  O   UNL     1       1.641   3.578   0.713  0.00  0.00    -0.485 OA
ATOM     24  C   UNL     1       0.484   4.352   0.378  0.00  0.00    +0.270 C 
ATOM     25  C   UNL     1      -0.747   3.663   0.983  0.00  0.00    +0.270 C 
ATOM     26  O   UNL     1      -0.838   2.345   0.431  0.00  0.00    -0.485 OA
ENDBRANCH  15  17
ENDBRANCH   1  15
TORSDOF 4
