REMARK  Name = ZINC15676080
REMARK  6 active torsions:
REMARK  status: ('A' for Active; 'I' for Inactive)
REMARK    1  A    between atoms: C_1  and  C_2
REMARK    2  A    between atoms: C_2  and  C_3
REMARK    3  A    between atoms: C_2  and  N_4
REMARK    4  A    between atoms: C_16  and  C_18
REMARK    5  A    between atoms: N_20  and  C_21
REMARK    6  A    between atoms: C_21  and  C_22
REMARK                            x       y       z     vdW  Elec       q    Type
REMARK                         _______ _______ _______ _____ _____    ______ ____
ROOT
ATOM      1  N   UNL     1       0.688  -0.475  -1.204  0.00  0.00    -0.297 N 
ATOM      2  C   UNL     1       2.031  -0.587  -1.215  0.00  0.00    +0.303 C 
ATOM      3  O   UNL     1       2.680  -0.211  -0.258  0.00  0.00    -0.253 OA
ATOM      4  N   UNL     1       2.654  -1.116  -2.286  0.00  0.00    -0.268 N 
ATOM      5  C   UNL     1       1.898  -1.473  -3.500  0.00  0.00    +0.165 C 
ATOM      6  C   UNL     1       2.386  -2.829  -3.950  0.00  0.00    +0.054 A 
ATOM      7  C   UNL     1       3.485  -3.434  -3.451  0.00  0.00    +0.040 A 
ATOM      8  N   UNL     1       3.609  -4.627  -4.096  0.00  0.00    -0.349 N 
ATOM      9  H   UNL     1       4.305  -5.288  -3.957  0.00  0.00    +0.166 HD
ATOM     10  C   UNL     1       2.579  -4.716  -4.968  0.00  0.00    +0.171 A 
ATOM     11  N   UNL     1       1.852  -3.634  -4.872  0.00  0.00    -0.348 N 
ATOM     12  C   UNL     1       4.371  -2.859  -2.377  0.00  0.00    +0.087 C 
ATOM     13  C   UNL     1       4.107  -1.346  -2.275  0.00  0.00    +0.169 C 
ATOM     14  H   UNL     1       0.175  -0.706  -1.994  0.00  0.00    +0.150 HD
ATOM     15  H   UNL     1       1.052  -3.445  -5.388  0.00  0.00    +0.166 HD
ENDROOT
BRANCH  13  16
ATOM     16  C   UNL     1       4.738  -0.640  -3.448  0.00  0.00    +0.234 C 
ATOM     17  O   UNL     1       4.047  -0.007  -4.218  0.00  0.00    -0.274 OA
ATOM     18  N   UNL     1       6.070  -0.712  -3.640  0.00  0.00    -0.310 N 
ATOM     19  H   UNL     1       6.622  -1.218  -3.025  0.00  0.00    +0.149 HD
BRANCH  18  20
ATOM     20  C   UNL     1       6.683  -0.026  -4.780  0.00  0.00    +0.139 C 
BRANCH  20  21
ATOM     21  C   UNL     1       8.171  -0.262  -4.768  0.00  0.00    -0.030 A 
ATOM     22  C   UNL     1       9.003   0.607  -4.086  0.00  0.00    +0.005 A 
ATOM     23  C   UNL     1      10.368   0.390  -4.075  0.00  0.00    +0.000 A 
ATOM     24  C   UNL     1      10.902  -0.696  -4.744  0.00  0.00    +0.000 A 
ATOM     25  C   UNL     1      10.069  -1.565  -5.424  0.00  0.00    +0.000 A 
ATOM     26  C   UNL     1       8.704  -1.351  -5.433  0.00  0.00    +0.005 A 
ENDBRANCH  20  21
ENDBRANCH  18  20
ENDBRANCH  13  16
BRANCH   1  28
ATOM     27  C   UNL     1      -0.017   1.525   0.014  0.00  0.00    +0.027 C 
ATOM     28  C   UNL     1       0.002  -0.004   0.002  0.00  0.00    +0.068 C 
ATOM     29  C   UNL     1      -1.434  -0.533   0.011  0.00  0.00    +0.027 C 
ENDBRANCH   1  28
TORSDOF 4
