REMARK  Name = ZINC06603357
REMARK  8 active torsions:
REMARK  status: ('A' for Active; 'I' for Inactive)
REMARK    1  A    between atoms: C_1  and  O_2
REMARK    2  A    between atoms: O_2  and  C_3
REMARK    3  A    between atoms: C_5  and  S_12
REMARK    4  A    between atoms: C_6  and  O_10
REMARK    5  A    between atoms: O_10  and  C_11
REMARK    6  A    between atoms: S_12  and  N_15
REMARK    7  A    between atoms: C_22  and  O_23
REMARK    8  A    between atoms: C_22  and  O_24
REMARK                            x       y       z     vdW  Elec       q    Type
REMARK                         _______ _______ _______ _____ _____    ______ ____
ROOT
ATOM      1  S   UNL     1       2.671   4.348   0.000  0.00  0.00    +0.103 S 
ATOM      2  O   UNL     1       2.571   5.320   1.032  0.00  0.00    -0.146 OA
ATOM      3  O   UNL     1       3.716   3.386  -0.042  0.00  0.00    -0.146 OA
ENDROOT
BRANCH   1   4
ATOM      4  N   UNL     1       2.736   5.181  -1.430  0.00  0.00    -0.128 NA
ATOM      5  C   UNL     1       3.781   5.950  -1.702  0.00  0.00    +0.099 C 
ATOM      6  C   UNL     1       4.846   6.076  -0.781  0.00  0.00    +0.030 C 
ATOM      7  C   UNL     1       5.910   6.864  -1.080  0.00  0.00    +0.002 C 
ATOM      8  C   UNL     1       5.980   7.572  -2.280  0.00  0.00    +0.001 C 
ATOM      9  C   UNL     1       4.990   7.502  -3.208  0.00  0.00    +0.017 C 
ATOM     10  C   UNL     1       3.856   6.698  -2.968  0.00  0.00    +0.081 C 
ATOM     11  C   UNL     1       2.826   6.613  -3.912  0.00  0.00    +0.286 C 
BRANCH  11  12
ATOM     12  O   UNL     1       1.752   5.843  -3.668  0.00  0.00    -0.480 OA
ATOM     13  H   UNL     1       1.067   5.816  -4.349  0.00  0.00    +0.295 HD
ENDBRANCH  11  12
BRANCH  11  14
ATOM     14  O   UNL     1       2.911   7.303  -5.062  0.00  0.00    -0.480 OA
ATOM     15  H   UNL     1       2.175   7.213  -5.684  0.00  0.00    +0.295 HD
ENDBRANCH  11  14
ENDBRANCH   1   4
BRANCH   1  18
ATOM     16  C   UNL     1      -0.016   1.356   0.009  0.00  0.00    +0.140 A 
ATOM     17  C   UNL     1       1.175   2.066   0.002  0.00  0.00    +0.080 A 
ATOM     18  C   UNL     1       1.156   3.447   0.010  0.00  0.00    +0.157 A 
ATOM     19  C   UNL     1      -0.054   4.125   0.025  0.00  0.00    +0.148 A 
ATOM     20  C   UNL     1      -1.246   3.416   0.033  0.00  0.00    +0.071 A 
ATOM     21  C   UNL     1      -1.228   2.033   0.019  0.00  0.00    +0.086 A 
ATOM     22 CL   UNL     1      -2.719   1.145   0.021  0.00  0.00    -0.080 Cl
BRANCH  16  24
ATOM     23  C   UNL     1       1.284  -0.635  -0.014  0.00  0.00    +0.277 C 
ATOM     24  O   UNL     1       0.002  -0.004   0.002  0.00  0.00    -0.494 OA
ENDBRANCH  16  24
BRANCH  19  25
ATOM     25  O   UNL     1      -0.071   5.484   0.034  0.00  0.00    -0.493 OA
ATOM     26  C   UNL     1      -1.353   6.116   0.050  0.00  0.00    +0.277 C 
ENDBRANCH  19  25
ENDBRANCH   1  18
TORSDOF 6
