REMARK  Name = ZINC35099338
REMARK  12 active torsions:
REMARK  status: ('A' for Active; 'I' for Inactive)
REMARK    1  A    between atoms: C_1  and  C_2
REMARK    2  A    between atoms: C_2  and  C_37
REMARK    3  A    between atoms: C_7  and  C_11
REMARK    4  A    between atoms: C_11  and  N_12
REMARK    5  A    between atoms: N_12  and  C_13
REMARK    6  A    between atoms: C_13  and  C_14
REMARK    7  A    between atoms: C_14  and  N_15
REMARK    8  A    between atoms: N_23  and  C_24
REMARK    9  A    between atoms: C_24  and  C_25
REMARK   10  A    between atoms: C_24  and  C_26
REMARK   11  A    between atoms: C_24  and  C_27
REMARK   12  A    between atoms: C_28  and  C_30
REMARK                            x       y       z     vdW  Elec       q    Type
REMARK                         _______ _______ _______ _____ _____    ______ ____
ROOT
ATOM      1  N   UNL     1       1.226  -0.586   4.230  0.00  0.00    -0.295 N 
ATOM      2  C   UNL     1       0.609  -0.460   5.422  0.00  0.00    +0.247 C 
ATOM      3  O   UNL     1       0.218   0.629   5.793  0.00  0.00    -0.270 OA
ENDROOT
BRANCH   2   4
ATOM      4  C   UNL     1       0.409  -1.647   6.279  0.00  0.00    +0.037 A 
ATOM      5  C   UNL     1       1.327  -2.699   6.245  0.00  0.00    +0.016 A 
ATOM      6  C   UNL     1       1.135  -3.804   7.046  0.00  0.00    +0.039 A 
ATOM      7  C   UNL     1       0.033  -3.873   7.884  0.00  0.00    +0.123 A 
ATOM      8  C   UNL     1      -0.882  -2.832   7.922  0.00  0.00    +0.039 A 
ATOM      9  C   UNL     1      -0.696  -1.719   7.129  0.00  0.00    +0.016 A 
ATOM     10  F   UNL     1      -0.151  -4.959   8.667  0.00  0.00    -0.205 F 
ENDBRANCH   2   4
BRANCH   1  11
ATOM     11  C   UNL     1       1.290   0.557   3.316  0.00  0.00    +0.138 C 
BRANCH  11  17
ATOM     12  C   UNL     1      -0.219   1.976   0.016  0.00  0.00    +0.012 C 
ATOM     13  C   UNL     1      -0.742   0.539   0.088  0.00  0.00    -0.025 C 
ATOM     14  C   UNL     1      -2.084   0.401   0.835  0.00  0.00    -0.000 C 
ATOM     15  C   UNL     1      -2.199   1.449   1.950  0.00  0.00    +0.031 C 
ATOM     16  C   UNL     1      -0.957   1.418   2.808  0.00  0.00    -0.025 C 
ATOM     17  C   UNL     1       0.030   0.612   2.491  0.00  0.00    -0.053 C 
ATOM     18  C   UNL     1      -0.151  -0.281   1.250  0.00  0.00    +0.022 C 
ATOM     19  C   UNL     1      -1.543  -0.956   1.317  0.00  0.00    +0.012 C 
ATOM     20  C   UNL     1      -0.703  -0.181  -1.261  0.00  0.00    +0.012 C 
ENDBRANCH  11  17
ENDBRANCH   1  11
BRANCH   1  21
ATOM     21  C   UNL     1       1.831  -1.865   3.849  0.00  0.00    +0.090 C 
BRANCH  21  22
ATOM     22  C   UNL     1       3.342  -1.802   4.077  0.00  0.00    -0.059 C 
BRANCH  22  23
ATOM     23  N   UNL     1       3.949  -3.084   3.695  0.00  0.00    +0.383 N 
ATOM     24  C   UNL     1       3.772  -3.297   2.253  0.00  0.00    -0.059 C 
ATOM     25  C   UNL     1       4.301  -4.684   1.874  0.00  0.00    +0.091 C 
ATOM     26  N   UNL     1       5.693  -4.794   2.338  0.00  0.00    -0.289 N 
ATOM     27  C   UNL     1       5.989  -4.439   3.734  0.00  0.00    +0.091 C 
ATOM     28  C   UNL     1       5.379  -3.064   4.026  0.00  0.00    -0.059 C 
ATOM     29  C   UNL     1       6.670  -5.208   1.506  0.00  0.00    +0.302 C 
ATOM     30  O   UNL     1       6.426  -5.403   0.331  0.00  0.00    -0.253 OA
ATOM     31  N   UNL     1       7.917  -5.407   1.978  0.00  0.00    -0.295 N 
ATOM     32  H   UNL     1       8.095  -5.323   2.927  0.00  0.00    +0.151 HD
ATOM     33  H   UNL     1       3.498  -3.832   4.201  0.00  0.00    -0.082 HD
BRANCH  31  34
ATOM     34  C   UNL     1       9.002  -5.749   1.055  0.00  0.00    +0.028 C 
ATOM     35  C   UNL     1       9.170  -4.629   0.027  0.00  0.00    +0.031 C 
ATOM     36  C   UNL     1      10.304  -5.919   1.841  0.00  0.00    +0.031 C 
ATOM     37  C   UNL     1       8.667  -7.056   0.335  0.00  0.00    +0.031 C 
ENDBRANCH  31  34
ENDBRANCH  22  23
ENDBRANCH  21  22
ENDBRANCH   1  21
TORSDOF 7
