REMARK  Name = ZINC33869205
REMARK  11 active torsions:
REMARK  status: ('A' for Active; 'I' for Inactive)
REMARK    1  A    between atoms: C_1  and  C_2
REMARK    2  A    between atoms: C_2  and  C_3
REMARK    3  A    between atoms: C_7  and  C_40
REMARK    4  A    between atoms: C_8  and  N_9
REMARK    5  A    between atoms: C_14  and  C_33
REMARK    6  A    between atoms: C_17  and  C_22
REMARK    7  A    between atoms: C_17  and  C_30
REMARK    8  A    between atoms: C_22  and  C_23
REMARK    9  A    between atoms: C_26  and  O_29
REMARK   10  A    between atoms: C_38  and  C_39
REMARK   11  A    between atoms: C_40  and  C_41
REMARK                            x       y       z     vdW  Elec       q    Type
REMARK                         _______ _______ _______ _____ _____    ______ ____
ROOT
ATOM      1  N   UNL     1      -1.796  -0.013  -2.381  0.00  0.00    -0.209 N 
ATOM      2  C   UNL     1      -1.764   1.196  -3.029  0.00  0.00    +0.229 C 
ATOM      3  O   UNL     1      -2.126   2.274  -2.606  0.00  0.00    -0.275 OA
ATOM      4  C   UNL     1      -1.204   0.900  -4.327  0.00  0.00    +0.077 C 
ATOM      5  C   UNL     1      -0.563   1.581  -5.460  0.00  0.00    -0.026 C 
ATOM      6  N   UNL     1       0.130   0.481  -6.209  0.00  0.00    +0.396 N 
ATOM      7  C   UNL     1      -0.032  -0.779  -5.412  0.00  0.00    +0.052 C 
ATOM      8  C   UNL     1      -0.163  -0.236  -3.974  0.00  0.00    +0.086 C 
ATOM      9  C   UNL     1      -1.057  -0.972  -3.014  0.00  0.00    +0.229 C 
ATOM     10  O   UNL     1      -1.112  -2.170  -2.841  0.00  0.00    -0.275 OA
ATOM     11  H   UNL     1      -0.291   0.367  -7.119  0.00  0.00    -0.083 HD
ATOM     12  H   UNL     1       1.110   0.699  -6.309  0.00  0.00    -0.083 HD
ENDROOT
BRANCH   5  13
ATOM     13  C   UNL     1       0.435   2.597  -4.968  0.00  0.00    -0.058 A 
ATOM     14  C   UNL     1       0.868   2.562  -3.656  0.00  0.00    +0.002 A 
ATOM     15  C   UNL     1       1.783   3.494  -3.204  0.00  0.00    +0.000 A 
ATOM     16  C   UNL     1       2.267   4.461  -4.066  0.00  0.00    +0.000 A 
ATOM     17  C   UNL     1       1.836   4.495  -5.379  0.00  0.00    +0.003 A 
ATOM     18  C   UNL     1       0.923   3.560  -5.831  0.00  0.00    -0.049 A 
ATOM     19  C   UNL     1       0.457   3.595  -7.264  0.00  0.00    +0.044 C 
ENDBRANCH   5  13
BRANCH   1  25
ATOM     20  C   UNL     1      -1.892  -0.029   0.035  0.00  0.00    -0.026 A 
ATOM     21  C   UNL     1      -2.595  -0.247   1.203  0.00  0.00    +0.005 A 
ATOM     22  C   UNL     1      -3.908  -0.680   1.151  0.00  0.00    +0.001 A 
ATOM     23  C   UNL     1      -4.520  -0.895  -0.070  0.00  0.00    +0.005 A 
ATOM     24  C   UNL     1      -3.822  -0.678  -1.242  0.00  0.00    -0.026 A 
ATOM     25  C   UNL     1      -2.506  -0.239  -1.193  0.00  0.00    +0.050 A 
BRANCH  20  27
ATOM     26  C   UNL     1      -0.423   1.968  -0.023  0.00  0.00    +0.009 C 
ATOM     27  C   UNL     1      -0.462   0.443   0.092  0.00  0.00    +0.033 C 
ENDBRANCH  20  27
BRANCH  24  28
ATOM     28  C   UNL     1      -4.490  -0.913  -2.572  0.00  0.00    +0.033 C 
ATOM     29  C   UNL     1      -4.160  -2.323  -3.066  0.00  0.00    +0.009 C 
ENDBRANCH  24  28
ENDBRANCH   1  25
BRANCH   7  30
ATOM     30  C   UNL     1       1.191  -1.651  -5.537  0.00  0.00    +0.347 C 
ATOM     31  O   UNL     1       2.122  -1.298  -6.241  0.00  0.00    -0.248 OA
ATOM     32  O   UNL     1       1.249  -2.708  -4.933  0.00  0.00    -0.248 OA
ENDBRANCH   7  30
BRANCH   7  33
ATOM     33  C   UNL     1      -1.287  -1.538  -5.848  0.00  0.00    +0.035 C 
BRANCH  33  34
ATOM     34  C   UNL     1      -1.139  -1.973  -7.283  0.00  0.00    -0.048 A 
ATOM     35  C   UNL     1      -1.561  -1.142  -8.304  0.00  0.00    +0.007 A 
ATOM     36  C   UNL     1      -1.426  -1.539  -9.620  0.00  0.00    +0.045 A 
ATOM     37  C   UNL     1      -0.865  -2.773  -9.918  0.00  0.00    +0.117 A 
ATOM     38  C   UNL     1      -0.442  -3.605  -8.891  0.00  0.00    +0.045 A 
ATOM     39  C   UNL     1      -0.575  -3.201  -7.577  0.00  0.00    +0.007 A 
BRANCH  37  40
ATOM     40  O   UNL     1      -0.732  -3.166 -11.211  0.00  0.00    -0.507 OA
ATOM     41  H   UNL     1       0.108  -2.908 -11.616  0.00  0.00    +0.292 HD
ENDBRANCH  37  40
ENDBRANCH  33  34
ENDBRANCH   7  33
TORSDOF 8
