REMARK  Name = ZINC12496809
REMARK  10 active torsions:
REMARK  status: ('A' for Active; 'I' for Inactive)
REMARK    1  A    between atoms: C_1  and  O_2
REMARK    2  A    between atoms: O_2  and  C_3
REMARK    3  A    between atoms: C_6  and  C_11
REMARK    4  A    between atoms: C_7  and  O_9
REMARK    5  A    between atoms: O_9  and  C_10
REMARK    6  A    between atoms: N_19  and  C_22
REMARK    7  A    between atoms: C_29  and  C_30
REMARK    8  A    between atoms: C_29  and  C_36
REMARK    9  A    between atoms: C_36  and  O_38
REMARK   10  A    between atoms: O_38  and  C_39
REMARK                            x       y       z     vdW  Elec       q    Type
REMARK                         _______ _______ _______ _____ _____    ______ ____
ROOT
ATOM      1  C   UNL     1       1.940   0.801  -1.202  0.00  0.00    -0.023 C 
ATOM      2  C   UNL     1       1.620   1.760  -0.048  0.00  0.00    +0.078 C 
ATOM      3  C   UNL     1       0.070   1.462   0.001  0.00  0.00    +0.090 C 
ATOM      4  C   UNL     1      -0.434   2.607   0.719  0.00  0.00    +0.229 C 
ATOM      5  O   UNL     1      -1.363   2.643   1.497  0.00  0.00    -0.275 OA
ATOM      6  N   UNL     1       0.371   3.647   0.326  0.00  0.00    -0.210 N 
ATOM      7  C   UNL     1       1.488   3.230  -0.340  0.00  0.00    +0.229 C 
ATOM      8  O   UNL     1       2.223   3.906  -1.027  0.00  0.00    -0.275 OA
ATOM      9  C   UNL     1       0.002  -0.004   0.002  0.00  0.00    +0.070 C 
ATOM     10  N   UNL     1       1.166  -0.419  -0.834  0.00  0.00    +0.398 N 
ATOM     11  H   UNL     1       1.764  -1.061  -0.301  0.00  0.00    -0.083 HD
ATOM     12  H   UNL     1       0.833  -0.888  -1.684  0.00  0.00    -0.083 HD
ENDROOT
BRANCH   6  13
ATOM     13  C   UNL     1       0.078   4.995   0.581  0.00  0.00    +0.044 A 
ATOM     14  C   UNL     1      -1.083   5.337   1.261  0.00  0.00    +0.027 A 
ATOM     15  C   UNL     1      -1.367   6.664   1.516  0.00  0.00    +0.040 A 
ATOM     16  C   UNL     1      -0.500   7.654   1.085  0.00  0.00    +0.124 A 
ATOM     17  C   UNL     1       0.656   7.315   0.402  0.00  0.00    +0.040 A 
ATOM     18  C   UNL     1       0.946   5.989   0.150  0.00  0.00    +0.027 A 
ATOM     19  F   UNL     1      -0.782   8.952   1.332  0.00  0.00    -0.205 F 
ENDBRANCH   6  13
BRANCH   1  23
ATOM     20  C   UNL     1       0.573   2.391  -4.930  0.00  0.00    +0.124 A 
ATOM     21  C   UNL     1      -0.263   1.588  -4.165  0.00  0.00    +0.046 A 
ATOM     22  C   UNL     1       0.183   1.072  -2.964  0.00  0.00    +0.009 A 
ATOM     23  C   UNL     1       1.458   1.361  -2.515  0.00  0.00    -0.019 A 
ATOM     24  C   UNL     1       2.297   2.163  -3.276  0.00  0.00    +0.125 A 
ATOM     25  C   UNL     1       1.853   2.679  -4.484  0.00  0.00    +0.091 A 
BRANCH  20  27
ATOM     26  C   UNL     1      -1.196   2.557  -6.510  0.00  0.00    +0.277 C 
ATOM     27  O   UNL     1       0.135   2.895  -6.114  0.00  0.00    -0.495 OA
ENDBRANCH  20  27
BRANCH  24  28
ATOM     28  O   UNL     1       3.552   2.443  -2.837  0.00  0.00    -0.495 OA
ATOM     29  C   UNL     1       4.361   3.275  -3.671  0.00  0.00    +0.277 C 
ENDBRANCH  24  28
ENDBRANCH   1  23
BRANCH   9  30
ATOM     30  C   UNL     1       0.139  -0.536   1.405  0.00  0.00    -0.047 A 
ATOM     31  C   UNL     1       1.387  -0.867   1.900  0.00  0.00    +0.003 A 
ATOM     32  C   UNL     1       1.514  -1.351   3.189  0.00  0.00    +0.000 A 
ATOM     33  C   UNL     1       0.391  -1.514   3.979  0.00  0.00    +0.000 A 
ATOM     34  C   UNL     1      -0.857  -1.188   3.482  0.00  0.00    +0.000 A 
ATOM     35  C   UNL     1      -0.983  -0.700   2.195  0.00  0.00    +0.003 A 
ENDBRANCH   9  30
BRANCH   9  36
ATOM     36  C   UNL     1      -1.290  -0.472  -0.616  0.00  0.00    +0.301 C 
ATOM     37  O   UNL     1      -2.259   0.251  -0.611  0.00  0.00    -0.252 OA
BRANCH  36  38
ATOM     38  O   UNL     1      -1.366  -1.692  -1.171  0.00  0.00    -0.469 OA
ATOM     39  C   UNL     1      -2.643  -2.075  -1.747  0.00  0.00    +0.280 C 
ENDBRANCH  36  38
ENDBRANCH   9  36
TORSDOF 7
