REMARK  Name = ZINC09102543
REMARK  12 active torsions:
REMARK  status: ('A' for Active; 'I' for Inactive)
REMARK    1  A    between atoms: C_1  and  C_2
REMARK    2  A    between atoms: C_3  and  C_12
REMARK    3  A    between atoms: C_12  and  C_14
REMARK    4  A    between atoms: C_14  and  C_16
REMARK    5  A    between atoms: C_14  and  S_17
REMARK    6  A    between atoms: S_17  and  C_18
REMARK    7  A    between atoms: C_21  and  C_30
REMARK    8  A    between atoms: N_22  and  C_23
REMARK    9  A    between atoms: C_30  and  C_32
REMARK   10  A    between atoms: C_30  and  N_58
REMARK   11  A    between atoms: C_33  and  N_58
REMARK   12  A    between atoms: C_34  and  N_58
REMARK                            x       y       z     vdW  Elec       q    Type
REMARK                         _______ _______ _______ _____ _____    ______ ____
ROOT
ATOM      1  C   UNL     1      -0.940   3.368   4.225  0.00  0.00    +0.197 A 
ATOM      2  N   UNL     1      -0.757   4.137   3.176  0.00  0.00    -0.122 NA
ATOM      3  N   UNL     1      -1.043   5.355   3.471  0.00  0.00    -0.135 NA
ATOM      4  C   UNL     1      -1.415   5.439   4.717  0.00  0.00    +0.125 A 
ATOM      5  N   UNL     1      -1.363   4.176   5.244  0.00  0.00    -0.275 N 
ENDROOT
BRANCH   5   6
ATOM      6  C   UNL     1      -1.677   3.792   6.556  0.00  0.00    +0.050 A 
ATOM      7  C   UNL     1      -2.977   3.922   7.026  0.00  0.00    +0.028 A 
ATOM      8  C   UNL     1      -3.285   3.538   8.317  0.00  0.00    +0.022 A 
ATOM      9  C   UNL     1      -2.298   3.034   9.144  0.00  0.00    +0.041 A 
ATOM     10  C   UNL     1      -1.000   2.907   8.680  0.00  0.00    +0.022 A 
ATOM     11  C   UNL     1      -0.688   3.285   7.388  0.00  0.00    +0.028 A 
ATOM     12 CL   UNL     1      -2.687   2.557  10.768  0.00  0.00    -0.084 Cl
ENDBRANCH   5   6
BRANCH   4  13
ATOM     13  C   UNL     1      -1.826   6.694   5.444  0.00  0.00    -0.003 C 
ATOM     14  C   UNL     1      -0.585   7.531   5.759  0.00  0.00    -0.005 C 
BRANCH  13  17
ATOM     15  C   UNL     1      -3.255   8.645   5.317  0.00  0.00    -0.096 C 
ATOM     16  C   UNL     1      -2.084   7.872   3.344  0.00  0.00    -0.096 C 
ATOM     17  N   UNL     1      -2.762   7.456   4.590  0.00  0.00    +0.382 N 
ATOM     18  H   UNL     1      -3.560   6.856   4.351  0.00  0.00    -0.082 HD
ENDBRANCH  13  17
ENDBRANCH   4  13
BRANCH   1  19
ATOM     19  S   UNL     1      -0.682   1.627   4.306  0.00  0.00    -0.075 S 
BRANCH  19  20
ATOM     20  C   UNL     1      -0.144   1.310   2.607  0.00  0.00    +0.122 C 
ATOM     21  C   UNL     1       1.192   2.014   2.356  0.00  0.00    +0.028 C 
BRANCH  20  22
ATOM     22  C   UNL     1       0.024  -0.173   2.401  0.00  0.00    +0.178 C 
ATOM     23  O   UNL     1       0.277  -0.892   3.347  0.00  0.00    -0.291 OA
BRANCH  22  26
ATOM     24  C   UNL     1      -2.663  -0.991   1.090  0.00  0.00    +0.064 C 
ATOM     25  C   UNL     1      -1.287  -1.106   0.486  0.00  0.00    +0.024 A 
ATOM     26  C   UNL     1      -0.114  -0.729   1.105  0.00  0.00    +0.046 A 
ATOM     27  C   UNL     1       0.969  -1.022   0.146  0.00  0.00    +0.010 A 
ATOM     28  C   UNL     1       2.353  -0.872   0.175  0.00  0.00    +0.011 A 
ATOM     29  C   UNL     1       3.103  -1.254  -0.916  0.00  0.00    +0.001 A 
ATOM     30  C   UNL     1       2.485  -1.786  -2.038  0.00  0.00    +0.002 A 
ATOM     31  C   UNL     1       1.117  -1.940  -2.079  0.00  0.00    +0.026 A 
ATOM     32  C   UNL     1       0.342  -1.560  -0.988  0.00  0.00    +0.047 A 
ATOM     33  N   UNL     1      -1.015  -1.597  -0.738  0.00  0.00    -0.358 N 
ATOM     34  H   UNL     1      -1.682  -1.930  -1.359  0.00  0.00    +0.166 HD
ENDBRANCH  22  26
ENDBRANCH  20  22
ENDBRANCH  19  20
ENDBRANCH   1  19
TORSDOF 7
