REMARK  Name = ZINC24859850
REMARK  7 active torsions:
REMARK  status: ('A' for Active; 'I' for Inactive)
REMARK    1  A    between atoms: C_1  and  C_2
REMARK    2  A    between atoms: C_8  and  C_13
REMARK    3  A    between atoms: C_9  and  C_12
REMARK    4  A    between atoms: C_13  and  C_14
REMARK    5  A    between atoms: N_19  and  S_22
REMARK    6  A    between atoms: S_22  and  C_25
REMARK    7  A    between atoms: C_30  and  C_31
REMARK                            x       y       z     vdW  Elec       q    Type
REMARK                         _______ _______ _______ _____ _____    ______ ____
ROOT
ATOM      1  C   UNL     1      -0.014   1.209   0.009  0.00  0.00    +0.220 C 
ATOM      2  O   UNL     1       0.002  -0.004   0.002  0.00  0.00    -0.275 OA
ATOM      3  N   UNL     1      -1.191   1.867   0.018  0.00  0.00    -0.299 N 
ATOM      4  C   UNL     1      -1.226   3.336   0.032  0.00  0.00    +0.125 C 
ATOM      5  C   UNL     1      -2.072   3.813  -1.160  0.00  0.00    +0.128 C 
ATOM      6  N   UNL     1      -3.342   3.074  -1.158  0.00  0.00    -0.174 NA
ATOM      7  C   UNL     1      -3.307   1.605  -1.167  0.00  0.00    +0.128 C 
ATOM      8  C   UNL     1      -2.461   1.128   0.020  0.00  0.00    +0.125 C 
ENDROOT
BRANCH   6   9
ATOM      9  S   UNL     1      -4.788   3.882  -1.146  0.00  0.00    +0.062 S 
ATOM     10  O   UNL     1      -4.537   5.170  -1.691  0.00  0.00    -0.153 OA
ATOM     11  O   UNL     1      -5.753   2.997  -1.697  0.00  0.00    -0.153 OA
BRANCH   9  12
ATOM     12  C   UNL     1      -5.233   4.127   0.541  0.00  0.00    +0.123 A 
ATOM     13  C   UNL     1      -5.296   5.403   1.062  0.00  0.00    +0.030 A 
ATOM     14  C   UNL     1      -5.650   5.597   2.385  0.00  0.00    +0.002 A 
ATOM     15  C   UNL     1      -5.934   4.514   3.198  0.00  0.00    +0.001 A 
ATOM     16  C   UNL     1      -5.870   3.232   2.692  0.00  0.00    +0.021 A 
ATOM     17  C   UNL     1      -5.518   3.029   1.356  0.00  0.00    +0.078 A 
BRANCH  17  18
ATOM     18  C   UNL     1      -5.450   1.702   0.824  0.00  0.00    +0.101 C 
ATOM     19  N   UNL     1      -5.395   0.648   0.402  0.00  0.00    -0.191 NA
ENDBRANCH  17  18
ENDBRANCH   9  12
ENDBRANCH   6   9
BRANCH   1  20
ATOM     20  C   UNL     1       1.280   1.980   0.001  0.00  0.00    +0.133 C 
BRANCH  20  28
ATOM     21  C   UNL     1       3.508   0.115  -4.936  0.00  0.00    +0.044 C 
ATOM     22  C   UNL     1       3.714  -0.052  -3.453  0.00  0.00    -0.050 A 
ATOM     23  C   UNL     1       4.720  -0.887  -2.987  0.00  0.00    +0.005 A 
ATOM     24  C   UNL     1       4.924  -1.054  -1.635  0.00  0.00    +0.026 A 
ATOM     25  C   UNL     1       4.115  -0.380  -0.725  0.00  0.00    +0.047 A 
ATOM     26  C   UNL     1       3.098   0.465  -1.203  0.00  0.00    +0.004 A 
ATOM     27  C   UNL     1       2.908   0.620  -2.577  0.00  0.00    +0.013 A 
ATOM     28  C   UNL     1       2.439   1.016  -0.016  0.00  0.00    -0.011 A 
ATOM     29  C   UNL     1       3.067   0.504   1.055  0.00  0.00    +0.018 A 
ATOM     30  N   UNL     1       4.068  -0.337   0.650  0.00  0.00    -0.358 N 
ATOM     31  H   UNL     1       4.777  -0.931   1.244  0.00  0.00    +0.166 HD
ATOM     32  C   UNL     1       2.719   0.808   2.489  0.00  0.00    +0.063 C 
ENDBRANCH  20  28
ENDBRANCH   1  20
TORSDOF 5
