REMARK  Name = ZINC13500075
REMARK  13 active torsions:
REMARK  status: ('A' for Active; 'I' for Inactive)
REMARK    1  A    between atoms: C_1  and  C_2
REMARK    2  A    between atoms: C_2  and  C_3
REMARK    3  A    between atoms: C_3  and  C_4
REMARK    4  A    between atoms: C_4  and  C_6
REMARK    5  A    between atoms: C_4  and  N_75
REMARK    6  A    between atoms: N_10  and  C_11
REMARK    7  A    between atoms: C_11  and  C_12
REMARK    8  A    between atoms: C_12  and  C_13
REMARK    9  A    between atoms: C_19  and  C_20
REMARK   10  A    between atoms: C_19  and  N_75
REMARK   11  A    between atoms: C_24  and  C_33
REMARK   12  A    between atoms: C_26  and  C_32
REMARK   13  A    between atoms: C_34  and  N_75
REMARK                            x       y       z     vdW  Elec       q    Type
REMARK                         _______ _______ _______ _____ _____    ______ ____
ROOT
ATOM      1  N   UNL     1      -1.899   7.431  -1.205  0.00  0.00    +0.391 N 
ATOM      2  H   UNL     1      -1.025   7.029  -1.562  0.00  0.00    -0.080 HD
ENDROOT
BRANCH   1   3
ATOM      3  C   UNL     1      -3.023   6.952  -2.036  0.00  0.00    -0.067 C 
ATOM      4  C   UNL     1      -2.891   5.429  -2.245  0.00  0.00    -0.015 C 
ATOM      5  C   UNL     1      -3.348   5.206  -3.709  0.00  0.00    -0.002 C 
ATOM      6  C   UNL     1      -2.770   6.442  -4.441  0.00  0.00    -0.002 C 
ATOM      7  C   UNL     1      -2.947   7.596  -3.432  0.00  0.00    -0.015 C 
ENDBRANCH   1   3
BRANCH   1   8
ATOM      8  C   UNL     1      -1.813   8.905  -1.272  0.00  0.00    +0.003 C 
BRANCH   8   9
ATOM      9  C   UNL     1      -3.048   9.534  -0.680  0.00  0.00    +0.138 A 
ATOM     10  N   UNL     1      -3.892   8.971   0.150  0.00  0.00    -0.115 NA
ATOM     11  N   UNL     1      -4.811   9.830   0.427  0.00  0.00    -0.023 NA
ATOM     12  N   UNL     1      -4.579  10.924  -0.211  0.00  0.00    -0.044 NA
ATOM     13  N   UNL     1      -3.501  10.781  -0.904  0.00  0.00    -0.231 N 
BRANCH  13  14
ATOM     14  C   UNL     1      -2.885  11.787  -1.773  0.00  0.00    +0.152 C 
BRANCH  14  15
ATOM     15  C   UNL     1      -3.313  11.542  -3.221  0.00  0.00    +0.058 C 
BRANCH  15  16
ATOM     16  C   UNL     1      -2.700  12.593  -4.110  0.00  0.00    -0.046 A 
ATOM     17  C   UNL     1      -3.380  13.771  -4.358  0.00  0.00    +0.004 A 
ATOM     18  C   UNL     1      -2.816  14.738  -5.170  0.00  0.00    +0.000 A 
ATOM     19  C   UNL     1      -1.577  14.521  -5.743  0.00  0.00    +0.000 A 
ATOM     20  C   UNL     1      -0.899  13.341  -5.500  0.00  0.00    +0.000 A 
ATOM     21  C   UNL     1      -1.461  12.377  -4.684  0.00  0.00    +0.004 A 
ENDBRANCH  15  16
ENDBRANCH  14  15
ENDBRANCH  13  14
ENDBRANCH   8   9
BRANCH   8  22
ATOM     22  C   UNL     1      -0.581   9.365  -0.491  0.00  0.00    -0.008 C 
BRANCH  22  24
ATOM     23  C   UNL     1       1.891   9.094  -0.243  0.00  0.00    +0.004 C 
ATOM     24  C   UNL     1       0.673   8.730  -1.095  0.00  0.00    -0.005 C 
ENDBRANCH  22  24
ENDBRANCH   8  22
ENDBRANCH   1   8
BRANCH   1  25
ATOM     25  C   UNL     1      -2.088   6.999   0.197  0.00  0.00    -0.036 C 
BRANCH  25  26
ATOM     26  C   UNL     1      -1.684   5.552   0.314  0.00  0.00    +0.001 A 
ATOM     27  C   UNL     1      -0.370   5.218   0.341  0.00  0.00    +0.017 A 
ATOM     28  C   UNL     1      -0.011   3.803   0.456  0.00  0.00    -0.001 A 
ATOM     29  C   UNL     1       1.327   3.397   0.487  0.00  0.00    +0.013 A 
ATOM     30  C   UNL     1       1.630   2.069   0.595  0.00  0.00    -0.050 A 
ATOM     31  C   UNL     1       0.620   1.119   0.673  0.00  0.00    +0.008 A 
ATOM     32  C   UNL     1      -0.705   1.496   0.639  0.00  0.00    -0.026 A 
ATOM     33  C   UNL     1      -1.037   2.843   0.535  0.00  0.00    +0.052 A 
ATOM     34  N   UNL     1      -2.354   3.248   0.503  0.00  0.00    -0.322 N 
ATOM     35  H   UNL     1      -3.060   2.585   0.558  0.00  0.00    +0.169 HD
ATOM     36  C   UNL     1      -2.674   4.550   0.397  0.00  0.00    +0.251 A 
ATOM     37  O   UNL     1      -3.849   4.872   0.373  0.00  0.00    -0.268 OA
ATOM     38  C   UNL     1      -1.790   0.453   0.719  0.00  0.00    +0.046 C 
ATOM     39  C   UNL     1       3.071   1.632   0.629  0.00  0.00    +0.044 C 
ENDBRANCH  25  26
ENDBRANCH   1  25
TORSDOF 10
