REMARK  Name = ZINC43575754
REMARK  4 active torsions:
REMARK  status: ('A' for Active; 'I' for Inactive)
REMARK    1  A    between atoms: C_1  and  C_2
REMARK    2  A    between atoms: C_6  and  N_8
REMARK    3  A    between atoms: C_9  and  C_13
REMARK    4  A    between atoms: C_16  and  N_20
REMARK                            x       y       z     vdW  Elec       q    Type
REMARK                         _______ _______ _______ _____ _____    ______ ____
ROOT
ATOM      1  N   UNL     1      -0.687  -2.960   2.628  0.00  0.00    -0.190 N 
ATOM      2  C   UNL     1      -0.020  -4.149   2.568  0.00  0.00    +0.190 A 
ATOM      3  N   UNL     1       0.739  -4.217   3.643  0.00  0.00    -0.108 NA
ATOM      4  N   UNL     1       0.594  -3.163   4.363  0.00  0.00    -0.022 NA
ATOM      5  N   UNL     1      -0.245  -2.352   3.817  0.00  0.00    -0.039 NA
ENDROOT
BRANCH   1  11
ATOM      6  C   UNL     1      -5.224  -2.966   0.730  0.00  0.00    +0.044 C 
ATOM      7  C   UNL     1      -3.813  -2.436   0.760  0.00  0.00    -0.048 A 
ATOM      8  C   UNL     1      -3.428  -1.447  -0.127  0.00  0.00    +0.006 A 
ATOM      9  C   UNL     1      -2.135  -0.958  -0.103  0.00  0.00    +0.041 A 
ATOM     10  C   UNL     1      -1.223  -1.457   0.809  0.00  0.00    +0.149 A 
ATOM     11  C   UNL     1      -1.608  -2.451   1.702  0.00  0.00    +0.105 A 
ATOM     12  C   UNL     1      -2.909  -2.934   1.678  0.00  0.00    +0.034 A 
ATOM     13  F   UNL     1       0.041  -0.980   0.832  0.00  0.00    -0.203 F 
ENDBRANCH   1  11
BRANCH   2  14
ATOM     14  C   UNL     1      -0.129  -5.166   1.501  0.00  0.00    +0.056 A 
ATOM     15  C   UNL     1      -0.058  -4.784   0.160  0.00  0.00    +0.016 A 
ATOM     16  C   UNL     1      -0.160  -5.734  -0.832  0.00  0.00    +0.023 A 
ATOM     17  C   UNL     1      -0.334  -7.074  -0.500  0.00  0.00    +0.027 A 
ATOM     18  C   UNL     1      -0.406  -7.460   0.834  0.00  0.00    +0.061 A 
ATOM     19  C   UNL     1      -0.298  -6.514   1.833  0.00  0.00    +0.136 A 
ATOM     20  F   UNL     1      -0.361  -6.889   3.130  0.00  0.00    -0.205 F 
BRANCH  17  21
ATOM     21  N   UNL     1      -0.437  -8.033  -1.507  0.00  0.00    -0.358 N 
ATOM     22  H   UNL     1      -0.388  -7.765  -2.438  0.00  0.00    +0.142 HD
ATOM     23  H   UNL     1      -0.558  -8.967  -1.277  0.00  0.00    +0.142 HD
ENDBRANCH  17  21
ENDBRANCH   2  14
TORSDOF 3
