REMARK  Name = ZINC40385343
REMARK  1 active torsions:
REMARK  status: ('A' for Active; 'I' for Inactive)
REMARK    1  A    between atoms: C_4  and  N_7
REMARK                            x       y       z     vdW  Elec       q    Type
REMARK                         _______ _______ _______ _____ _____    ______ ____
ROOT
ATOM      1  N   UNL     1       3.567  -2.607   1.645  0.00  0.00    -0.328 N 
ATOM      2  C   UNL     1       4.206  -1.964   0.610  0.00  0.00    +0.179 C 
ATOM      3  N   UNL     1       4.362  -0.671   0.643  0.00  0.00    -0.371 N 
ATOM      4  N   UNL     1       4.682  -2.689  -0.464  0.00  0.00    -0.308 N 
ATOM      5  C   UNL     1       4.743  -4.059  -0.394  0.00  0.00    +0.154 A 
ATOM      6  N   UNL     1       5.861  -4.725  -0.638  0.00  0.00    -0.303 N 
ATOM      7  C   UNL     1       6.045  -6.027  -0.605  0.00  0.00    +0.259 A 
ATOM      8  O   UNL     1       7.173  -6.408  -0.870  0.00  0.00    -0.267 OA
ATOM      9  C   UNL     1       5.078  -7.079  -0.293  0.00  0.00    +0.053 A 
ATOM     10  C   UNL     1       5.425  -8.433  -0.297  0.00  0.00    +0.014 A 
ATOM     11  C   UNL     1       4.473  -9.381   0.005  0.00  0.00    +0.001 A 
ATOM     12  C   UNL     1       3.170  -9.019   0.316  0.00  0.00    +0.001 A 
ATOM     13  C   UNL     1       2.803  -7.685   0.327  0.00  0.00    +0.016 A 
ATOM     14  C   UNL     1       3.747  -6.732   0.026  0.00  0.00    +0.028 A 
ATOM     15  S   UNL     1       3.404  -4.992   0.014  0.00  0.00    -0.053 S 
ATOM     16  H   UNL     1       3.505  -3.575   1.651  0.00  0.00    +0.169 HD
ATOM     17  H   UNL     1       4.896  -0.229  -0.035  0.00  0.00    +0.159 HD
ATOM     18  H   UNL     1       4.974  -2.230  -1.267  0.00  0.00    +0.171 HD
ATOM     19  H   UNL     1       6.636  -4.190  -0.870  0.00  0.00    +0.171 HD
ATOM     20  H   UNL     1       3.945  -0.150   1.347  0.00  0.00    +0.159 HD
ENDROOT
BRANCH   1  24
ATOM     21  C   UNL     1       1.898  -0.397   4.757  0.00  0.00    +0.000 A 
ATOM     22  C   UNL     1       1.188  -1.442   4.195  0.00  0.00    +0.002 A 
ATOM     23  C   UNL     1       1.738  -2.176   3.163  0.00  0.00    +0.026 A 
ATOM     24  C   UNL     1       3.006  -1.865   2.690  0.00  0.00    +0.042 A 
ATOM     25  C   UNL     1       3.717  -0.814   3.257  0.00  0.00    +0.026 A 
ATOM     26  C   UNL     1       3.161  -0.084   4.288  0.00  0.00    +0.002 A 
ENDBRANCH   1  24
TORSDOF 1
