REMARK  Name = ZINC15958993
REMARK  13 active torsions:
REMARK  status: ('A' for Active; 'I' for Inactive)
REMARK    1  A    between atoms: C_1  and  C_2
REMARK    2  A    between atoms: C_13  and  C_14
REMARK    3  A    between atoms: C_13  and  O_15
REMARK    4  A    between atoms: N_21  and  O_22
REMARK    5  A    between atoms: O_22  and  C_23
REMARK    6  A    between atoms: C_23  and  C_24
REMARK    7  A    between atoms: N_26  and  C_27
REMARK    8  A    between atoms: C_27  and  C_29
REMARK    9  A    between atoms: C_27  and  C_36
REMARK   10  A    between atoms: C_29  and  C_30
REMARK   11  A    between atoms: C_36  and  O_38
REMARK   12  A    between atoms: O_38  and  C_39
REMARK   13  A    between atoms: C_42  and  C_43
REMARK                            x       y       z     vdW  Elec       q    Type
REMARK                         _______ _______ _______ _____ _____    ______ ____
ROOT
ATOM      1  C   UNL     1       0.646   0.033  -2.435  0.00  0.00    +0.014 C 
ATOM      2  C   UNL     1       1.133  -0.295  -1.022  0.00  0.00    -0.000 C 
ATOM      3  C   UNL     1       1.452  -1.771  -0.947  0.00  0.00    +0.010 C 
ATOM      4  C   UNL     1       0.197  -2.553  -1.372  0.00  0.00    +0.005 C 
ATOM      5  C   UNL     1      -1.000  -2.193  -0.492  0.00  0.00    +0.006 C 
ATOM      6  C   UNL     1      -1.258  -0.682  -0.502  0.00  0.00    -0.003 C 
ATOM      7  C   UNL     1       0.002  -0.004   0.002  0.00  0.00    +0.001 C 
ATOM      8  C   UNL     1      -0.019   1.528   0.010  0.00  0.00    +0.007 C 
ATOM      9  C   UNL     1       1.490   1.896  -0.002  0.00  0.00    +0.035 C 
ATOM     10  C   UNL     1       2.231   0.683  -0.620  0.00  0.00    +0.069 C 
ATOM     11  C   UNL     1       3.030   1.118  -1.849  0.00  0.00    +0.042 C 
ATOM     12  C   UNL     1      -2.435  -0.383   0.432  0.00  0.00    +0.008 C 
ATOM     13  C   UNL     1      -1.947  -0.551   1.872  0.00  0.00    +0.032 C 
ATOM     14  C   UNL     1      -1.262  -1.878   2.031  0.00  0.00    -0.058 C 
ATOM     15  C   UNL     1      -1.027  -2.327   3.281  0.00  0.00    +0.031 C 
ATOM     16  C   UNL     1      -0.296  -3.629   3.350  0.00  0.00    +0.102 C 
ATOM     17  N   UNL     1      -0.609  -4.567   4.202  0.00  0.00    -0.085 NA
ATOM     18  C   UNL     1       0.821  -3.772   2.367  0.00  0.00    +0.027 C 
ATOM     19  C   UNL     1       0.556  -3.304   1.133  0.00  0.00    -0.014 C 
ATOM     20  C   UNL     1      -0.814  -2.733   0.898  0.00  0.00    +0.011 C 
ATOM     21  C   UNL     1      -1.740  -3.950   0.950  0.00  0.00    +0.020 C 
ENDROOT
BRANCH  10  22
ATOM     22  O   UNL     1       3.096   0.086   0.348  0.00  0.00    -0.388 OA
ATOM     23  H   UNL     1       3.815   0.663   0.642  0.00  0.00    +0.210 HD
ENDBRANCH  10  22
BRANCH  17  24
ATOM     24  O   UNL     1      -1.678  -4.372   5.109  0.00  0.00    -0.384 OA
BRANCH  24  25
ATOM     25  C   UNL     1      -1.909  -5.479   5.983  0.00  0.00    +0.358 C 
BRANCH  25  26
ATOM     26  C   UNL     1      -3.063  -5.164   6.900  0.00  0.00    +0.254 C 
ATOM     27  O   UNL     1      -3.631  -4.096   6.814  0.00  0.00    -0.272 OA
ATOM     28  N   UNL     1      -3.463  -6.068   7.815  0.00  0.00    -0.299 N 
ATOM     29  H   UNL     1      -3.008  -6.922   7.884  0.00  0.00    +0.150 HD
BRANCH  28  30
ATOM     30  C   UNL     1      -4.584  -5.762   8.707  0.00  0.00    +0.188 C 
BRANCH  30  31
ATOM     31  C   UNL     1      -4.081  -4.991   9.900  0.00  0.00    +0.328 C 
ATOM     32  O   UNL     1      -2.906  -4.725   9.996  0.00  0.00    -0.249 OA
BRANCH  31  33
ATOM     33  O   UNL     1      -4.938  -4.600  10.856  0.00  0.00    -0.467 OA
ATOM     34  C   UNL     1      -4.383  -3.861  11.976  0.00  0.00    +0.280 C 
ENDBRANCH  31  33
ENDBRANCH  30  31
BRANCH  30  35
ATOM     35  C   UNL     1      -5.232  -7.065   9.178  0.00  0.00    +0.088 C 
BRANCH  35  36
ATOM     36  C   UNL     1      -5.843  -7.777   7.999  0.00  0.00    +0.038 A 
ATOM     37  C   UNL     1      -5.212  -8.609   7.148  0.00  0.00    +0.133 A 
ATOM     38  N   UNL     1      -6.106  -9.031   6.241  0.00  0.00    -0.244 NA
ATOM     39  C   UNL     1      -7.267  -8.493   6.498  0.00  0.00    +0.196 A 
ATOM     40  N   UNL     1      -7.148  -7.707   7.590  0.00  0.00    -0.348 N 
ATOM     41  H   UNL     1      -7.877  -7.174   8.020  0.00  0.00    +0.166 HD
ENDBRANCH  35  36
ENDBRANCH  30  35
ENDBRANCH  28  30
ENDBRANCH  25  26
ENDBRANCH  24  25
ENDBRANCH  17  24
TORSDOF 9
