REMARK  Name = ZINC00625187
REMARK  6 active torsions:
REMARK  status: ('A' for Active; 'I' for Inactive)
REMARK    1  A    between atoms: C_1  and  C_2
REMARK    2  A    between atoms: C_2  and  O_3
REMARK    3  A    between atoms: O_3  and  C_4
REMARK    4  A    between atoms: C_4  and  C_6
REMARK    5  A    between atoms: C_9  and  N_12
REMARK    6  A    between atoms: C_28  and  C_33
REMARK                            x       y       z     vdW  Elec       q    Type
REMARK                         _______ _______ _______ _____ _____    ______ ____
ROOT
ATOM      1  N   UNL     1      -0.591   4.740   2.445  0.00  0.00    -0.220 N 
ATOM      2  C   UNL     1      -1.454   5.460   1.699  0.00  0.00    +0.246 C 
ATOM      3  O   UNL     1      -1.685   6.646   1.790  0.00  0.00    -0.273 OA
ATOM      4  C   UNL     1      -2.076   4.480   0.724  0.00  0.00    +0.167 C 
ATOM      5  C   UNL     1      -1.713   4.883  -0.710  0.00  0.00    +0.069 C 
ATOM      6  C   UNL     1      -1.749   3.664  -1.597  0.00  0.00    -0.015 A 
ATOM      7  C   UNL     1      -1.852   3.629  -3.044  0.00  0.00    +0.003 A 
ATOM      8  C   UNL     1      -1.951   4.636  -4.009  0.00  0.00    +0.010 A 
ATOM      9  C   UNL     1      -2.032   4.234  -5.319  0.00  0.00    +0.001 A 
ATOM     10  C   UNL     1      -2.016   2.897  -5.681  0.00  0.00    +0.002 A 
ATOM     11  C   UNL     1      -1.919   1.880  -4.747  0.00  0.00    +0.026 A 
ATOM     12  C   UNL     1      -1.837   2.259  -3.408  0.00  0.00    +0.047 A 
ATOM     13  N   UNL     1      -1.734   1.534  -2.256  0.00  0.00    -0.356 N 
ATOM     14  H   UNL     1      -1.700   0.566  -2.206  0.00  0.00    +0.166 HD
ATOM     15  C   UNL     1      -1.686   2.381  -1.181  0.00  0.00    +0.046 A 
ATOM     16  C   UNL     1      -1.579   1.975   0.276  0.00  0.00    +0.153 C 
ATOM     17  N   UNL     1      -1.373   3.215   1.034  0.00  0.00    -0.288 N 
ATOM     18  C   UNL     1      -0.566   3.453   2.069  0.00  0.00    +0.148 C 
ATOM     19  S   UNL     1       0.390   2.254   2.830  0.00  0.00    -0.018 S 
ENDROOT
BRANCH  16  20
ATOM     20  C   UNL     1      -0.407   1.048   0.470  0.00  0.00    -0.021 A 
ATOM     21  C   UNL     1       0.879   1.556   0.491  0.00  0.00    +0.007 A 
ATOM     22  C   UNL     1       1.955   0.706   0.664  0.00  0.00    +0.020 A 
ATOM     23  C   UNL     1       1.745  -0.653   0.815  0.00  0.00    +0.041 A 
ATOM     24  C   UNL     1       0.458  -1.161   0.793  0.00  0.00    +0.020 A 
ATOM     25  C   UNL     1      -0.617  -0.309   0.621  0.00  0.00    +0.007 A 
ATOM     26 CL   UNL     1       3.096  -1.721   1.032  0.00  0.00    -0.084 Cl
ENDBRANCH  16  20
BRANCH   1  30
ATOM     27  C   UNL     1       1.717   6.322   5.534  0.00  0.00    +0.059 A 
ATOM     28  C   UNL     1       2.330   5.867   4.363  0.00  0.00    +0.017 A 
ATOM     29  C   UNL     1       1.565   5.345   3.345  0.00  0.00    +0.025 A 
ATOM     30  C   UNL     1       0.182   5.270   3.480  0.00  0.00    +0.043 A 
ATOM     31  C   UNL     1      -0.432   5.728   4.641  0.00  0.00    +0.025 A 
ATOM     32  C   UNL     1       0.327   6.246   5.666  0.00  0.00    +0.017 A 
BRANCH  27  33
ATOM     33  C   UNL     1       2.533   6.883   6.627  0.00  0.00    +0.339 C 
ATOM     34  O   UNL     1       3.741   6.950   6.510  0.00  0.00    -0.245 OA
BRANCH  33  35
ATOM     35  O   UNL     1       1.940   7.322   7.754  0.00  0.00    -0.461 OA
BRANCH  35  37
ATOM     36  C   UNL     1       1.959   8.305   9.982  0.00  0.00    +0.048 C 
ATOM     37  C   UNL     1       2.806   7.861   8.788  0.00  0.00    +0.229 C 
ENDBRANCH  35  37
ENDBRANCH  33  35
ENDBRANCH  27  33
ENDBRANCH   1  30
TORSDOF 5
