REMARK  Name = ZINC08297716
REMARK  10 active torsions:
REMARK  status: ('A' for Active; 'I' for Inactive)
REMARK    1  A    between atoms: C_1  and  C_2
REMARK    2  A    between atoms: C_2  and  C_3
REMARK    3  A    between atoms: C_2  and  C_4
REMARK    4  A    between atoms: C_2  and  C_5
REMARK    5  A    between atoms: C_8  and  C_11
REMARK    6  A    between atoms: N_13  and  C_16
REMARK    7  A    between atoms: C_16  and  C_17
REMARK    8  A    between atoms: C_25  and  C_27
REMARK    9  A    between atoms: N_29  and  C_30
REMARK   10  A    between atoms: C_30  and  C_31
REMARK                            x       y       z     vdW  Elec       q    Type
REMARK                         _______ _______ _______ _____ _____    ______ ____
ROOT
ATOM      1  C   UNL     1      -6.396   0.130   5.221  0.00  0.00    -0.046 C 
ATOM      2  C   UNL     1      -6.237  -1.231   4.531  0.00  0.00    -0.010 C 
ATOM      3  C   UNL     1      -5.810  -1.001   3.075  0.00  0.00    -0.004 C 
ATOM      4  C   UNL     1      -6.881  -0.146   2.381  0.00  0.00    -0.015 C 
ATOM      5  C   UNL     1      -7.020   1.181   3.130  0.00  0.00    -0.078 C 
ATOM      6  C   UNL     1      -4.694   1.108   3.801  0.00  0.00    -0.065 C 
ATOM      7  C   UNL     1      -4.489  -0.222   3.071  0.00  0.00    +0.061 C 
ATOM      8  N   UNL     1      -6.089   1.226   4.277  0.00  0.00    +0.383 N 
ATOM      9  H   UNL     1      -6.200   2.124   4.762  0.00  0.00    -0.081 HD
ENDROOT
BRANCH   7  10
ATOM     10  C   UNL     1      -4.064   0.043   1.649  0.00  0.00    +0.215 C 
ATOM     11  O   UNL     1      -4.745  -0.356   0.728  0.00  0.00    -0.276 OA
ATOM     12  N   UNL     1      -2.927   0.722   1.401  0.00  0.00    -0.311 N 
ATOM     13  H   UNL     1      -2.382   1.041   2.138  0.00  0.00    +0.149 HD
BRANCH  12  14
ATOM     14  C   UNL     1      -2.514   0.980   0.019  0.00  0.00    +0.139 C 
BRANCH  14  15
ATOM     15  C   UNL     1      -1.219   1.751   0.017  0.00  0.00    -0.030 A 
ATOM     16  C   UNL     1      -0.013   1.076   0.008  0.00  0.00    +0.005 A 
ATOM     17  C   UNL     1       1.175   1.783   0.000  0.00  0.00    +0.000 A 
ATOM     18  C   UNL     1       1.156   3.165   0.008  0.00  0.00    +0.000 A 
ATOM     19  C   UNL     1      -0.050   3.840   0.023  0.00  0.00    +0.000 A 
ATOM     20  C   UNL     1      -1.238   3.133   0.029  0.00  0.00    +0.005 A 
ENDBRANCH  14  15
ENDBRANCH  12  14
ENDBRANCH   7  10
BRANCH   1  21
ATOM     21  C   UNL     1      -7.835   0.288   5.714  0.00  0.00    +0.130 C 
BRANCH  21  24
ATOM     22  C   UNL     1      -8.604   3.486   7.171  0.00  0.00    +0.113 A 
ATOM     23  C   UNL     1      -8.838   2.529   6.226  0.00  0.00    +0.138 A 
ATOM     24  N   UNL     1      -7.956   1.534   6.475  0.00  0.00    -0.253 N 
ATOM     25  N   UNL     1      -7.238   1.870   7.488  0.00  0.00    -0.065 NA
ATOM     26  N   UNL     1      -7.593   3.024   7.930  0.00  0.00    -0.130 NA
BRANCH  22  30
ATOM     27  C   UNL     1     -10.647   7.189   7.618  0.00  0.00    -0.042 A 
ATOM     28  C   UNL     1      -9.621   6.859   8.486  0.00  0.00    +0.005 A 
ATOM     29  C   UNL     1      -8.955   5.658   8.345  0.00  0.00    +0.010 A 
ATOM     30  C   UNL     1      -9.317   4.778   7.327  0.00  0.00    +0.004 A 
ATOM     31  C   UNL     1     -10.347   5.118   6.453  0.00  0.00    +0.010 A 
ATOM     32  C   UNL     1     -11.010   6.319   6.606  0.00  0.00    +0.005 A 
BRANCH  27  34
ATOM     33  C   UNL     1     -10.376   9.654   7.631  0.00  0.00    +0.015 C 
ATOM     34  C   UNL     1     -11.371   8.501   7.777  0.00  0.00    -0.013 C 
ATOM     35  C   UNL     1     -12.451   8.621   6.699  0.00  0.00    +0.015 C 
ATOM     36  C   UNL     1     -12.022   8.560   9.160  0.00  0.00    +0.015 C 
ENDBRANCH  27  34
ENDBRANCH  22  30
ENDBRANCH  21  24
ENDBRANCH   1  21
TORSDOF 7
