REMARK  Name = ZINC24276352
REMARK  9 active torsions:
REMARK  status: ('A' for Active; 'I' for Inactive)
REMARK    1  A    between atoms: C_1  and  C_2
REMARK    2  A    between atoms: C_2  and  C_3
REMARK    3  A    between atoms: C_2  and  C_4
REMARK    4  A    between atoms: C_4  and  C_6
REMARK    5  A    between atoms: C_4  and  N_23
REMARK    6  A    between atoms: N_8  and  C_9
REMARK    7  A    between atoms: N_12  and  C_15
REMARK    8  A    between atoms: C_15  and  C_16
REMARK    9  A    between atoms: C_24  and  C_26
REMARK                            x       y       z     vdW  Elec       q    Type
REMARK                         _______ _______ _______ _____ _____    ______ ____
ROOT
ATOM      1  C   UNL     1      -3.311   7.750  -1.751  0.00  0.00    +0.234 C 
ATOM      2  O   UNL     1      -4.060   6.954  -2.276  0.00  0.00    -0.274 OA
ATOM      3  N   UNL     1      -3.531   9.073  -1.883  0.00  0.00    -0.311 N 
ATOM      4  H   UNL     1      -2.852   9.794  -1.406  0.00  0.00    +0.149 HD
ENDROOT
BRANCH   3   5
ATOM      5  C   UNL     1      -4.677   9.550  -2.661  0.00  0.00    +0.069 C 
ATOM      6  C   UNL     1      -4.294   9.623  -4.142  0.00  0.00    +0.003 C 
ATOM      7  C   UNL     1      -5.474  10.179  -4.942  0.00  0.00    -0.077 C 
ATOM      8  N   UNL     1      -5.820  11.515  -4.441  0.00  0.00    +0.382 N 
ATOM      9  C   UNL     1      -6.237  11.464  -3.034  0.00  0.00    -0.077 C 
ATOM     10  C   UNL     1      -5.079  10.945  -2.177  0.00  0.00    +0.003 C 
ATOM     11  H   UNL     1      -4.917  12.140  -4.501  0.00  0.00    -0.081 HD
BRANCH   8  12
ATOM     12  C   UNL     1      -6.858  12.138  -5.275  0.00  0.00    -0.043 C 
BRANCH  12  13
ATOM     13  C   UNL     1      -6.306  12.397  -6.653  0.00  0.00    -0.064 A 
ATOM     14  C   UNL     1      -5.690  13.602  -6.935  0.00  0.00    +0.003 A 
ATOM     15  C   UNL     1      -5.179  13.839  -8.197  0.00  0.00    +0.020 A 
ATOM     16  C   UNL     1      -5.294  12.873  -9.182  0.00  0.00    +0.041 A 
ATOM     17  C   UNL     1      -5.916  11.670  -8.900  0.00  0.00    +0.020 A 
ATOM     18  C   UNL     1      -6.421  11.432  -7.636  0.00  0.00    +0.003 A 
ATOM     19 CL   UNL     1      -4.658  13.172 -10.769  0.00  0.00    -0.084 Cl
ENDBRANCH  12  13
ENDBRANCH   8  12
ENDBRANCH   3   5
BRANCH   1  20
ATOM     20  C   UNL     1      -2.132   7.259  -0.950  0.00  0.00    +0.161 C 
BRANCH  20  21
ATOM     21  N   UNL     1      -2.112   5.794  -0.958  0.00  0.00    -0.303 N 
ATOM     22  C   UNL     1      -1.510   5.123   0.044  0.00  0.00    +0.220 C 
ATOM     23  O   UNL     1      -0.985   5.731   0.952  0.00  0.00    -0.275 OA
ATOM     24  H   UNL     1      -2.589   5.242  -1.781  0.00  0.00    +0.149 HD
BRANCH  22  25
ATOM     25  C   UNL     1      -1.490   3.616   0.036  0.00  0.00    +0.048 C 
ATOM     26  C   UNL     1      -0.773   3.123  -1.223  0.00  0.00    +0.019 C 
ATOM     27  C   UNL     1      -0.753   1.593  -1.232  0.00  0.00    -0.009 C 
ATOM     28  C   UNL     1      -0.013   1.086   0.008  0.00  0.00    +0.007 C 
ATOM     29  C   UNL     1      -0.729   1.579   1.267  0.00  0.00    -0.009 C 
ATOM     30  C   UNL     1      -0.750   3.109   1.275  0.00  0.00    +0.019 C 
ATOM     31  C   UNL     1      -2.164   1.050   1.278  0.00  0.00    +0.007 C 
ATOM     32  C   UNL     1      -2.904   1.556   0.038  0.00  0.00    -0.009 C 
ATOM     33  C   UNL     1      -2.188   1.063  -1.221  0.00  0.00    +0.007 C 
ATOM     34  C   UNL     1      -2.925   3.086   0.047  0.00  0.00    +0.019 C 
ENDBRANCH  22  25
ENDBRANCH  20  21
BRANCH  20  36
ATOM     35  C   UNL     1       0.358   7.292  -0.755  0.00  0.00    +0.009 C 
ATOM     36  C   UNL     1      -0.838   7.790  -1.569  0.00  0.00    +0.012 C 
ATOM     37  C   UNL     1      -0.719   7.289  -3.010  0.00  0.00    +0.009 C 
ENDBRANCH  20  36
ENDBRANCH   1  20
TORSDOF 7
