REMARK  Name = ZINC06300645
REMARK  10 active torsions:
REMARK  status: ('A' for Active; 'I' for Inactive)
REMARK    1  A    between atoms: C_1  and  C_2
REMARK    2  A    between atoms: C_4  and  C_39
REMARK    3  A    between atoms: C_9  and  C_14
REMARK    4  A    between atoms: C_14  and  C_16
REMARK    5  A    between atoms: C_14  and  N_71
REMARK    6  A    between atoms: N_20  and  C_21
REMARK    7  A    between atoms: C_26  and  C_27
REMARK    8  A    between atoms: C_26  and  N_71
REMARK    9  A    between atoms: C_32  and  C_33
REMARK   10  A    between atoms: C_32  and  N_71
REMARK                            x       y       z     vdW  Elec       q    Type
REMARK                         _______ _______ _______ _____ _____    ______ ____
ROOT
ATOM      1  C   UNL     1      -3.137   3.463   0.682  0.00  0.00    +0.039 C 
ENDROOT
BRANCH   1  10
ATOM      2  C   UNL     1      -0.429   9.013  -3.499  0.00  0.00    +0.044 C 
ATOM      3  C   UNL     1      -1.212   8.528  -2.307  0.00  0.00    -0.050 A 
ATOM      4  C   UNL     1      -1.791   9.448  -1.443  0.00  0.00    +0.008 A 
ATOM      5  C   UNL     1      -2.511   9.026  -0.346  0.00  0.00    -0.026 A 
ATOM      6  C   UNL     1      -2.661   7.665  -0.100  0.00  0.00    +0.052 A 
ATOM      7  C   UNL     1      -2.072   6.736  -0.978  0.00  0.00    -0.001 A 
ATOM      8  C   UNL     1      -1.345   7.186  -2.085  0.00  0.00    +0.013 A 
ATOM      9  C   UNL     1      -2.231   5.305  -0.708  0.00  0.00    +0.017 A 
ATOM     10  C   UNL     1      -2.950   4.927   0.378  0.00  0.00    +0.011 A 
ATOM     11  C   UNL     1      -3.521   5.900   1.227  0.00  0.00    +0.251 A 
ATOM     12  O   UNL     1      -4.160   5.538   2.200  0.00  0.00    -0.268 OA
ATOM     13  N   UNL     1      -3.376   7.215   0.990  0.00  0.00    -0.322 N 
ATOM     14  H   UNL     1      -3.781   7.857   1.593  0.00  0.00    +0.169 HD
ATOM     15  C   UNL     1      -3.135  10.036   0.583  0.00  0.00    +0.046 C 
ENDBRANCH   1  10
BRANCH   1  16
ATOM     16  C   UNL     1      -2.453   3.129   1.982  0.00  0.00    +0.143 A 
ATOM     17  N   UNL     1      -2.710   3.649   3.158  0.00  0.00    -0.115 NA
ATOM     18  N   UNL     1      -1.912   3.110   4.014  0.00  0.00    -0.023 NA
ATOM     19  N   UNL     1      -1.156   2.257   3.417  0.00  0.00    -0.044 NA
ATOM     20  N   UNL     1      -1.461   2.237   2.163  0.00  0.00    -0.227 N 
BRANCH  20  21
ATOM     21  C   UNL     1      -0.840   1.405   1.129  0.00  0.00    +0.111 C 
ATOM     22  C   UNL     1       0.679   1.665   1.084  0.00  0.00    +0.027 C 
ATOM     23  C   UNL     1       1.283   0.545   1.966  0.00  0.00    +0.002 C 
ATOM     24  C   UNL     1       0.395  -0.677   1.623  0.00  0.00    +0.002 C 
ATOM     25  C   UNL     1      -1.021  -0.084   1.473  0.00  0.00    +0.027 C 
ENDBRANCH  20  21
ENDBRANCH   1  16
BRANCH   1  26
ATOM     26  N   UNL     1      -4.582   3.182   0.812  0.00  0.00    +0.396 N 
ATOM     27  H   UNL     1      -4.980   3.805   1.524  0.00  0.00    -0.080 HD
BRANCH  26  28
ATOM     28  C   UNL     1      -5.263   3.429  -0.476  0.00  0.00    -0.002 C 
BRANCH  28  29
ATOM     29  C   UNL     1      -5.506   4.909  -0.617  0.00  0.00    +0.089 A 
ATOM     30  C   UNL     1      -4.966   5.710  -1.553  0.00  0.00    +0.042 A 
ATOM     31  C   UNL     1      -5.465   7.011  -1.316  0.00  0.00    +0.041 A 
ATOM     32  C   UNL     1      -6.274   6.930  -0.245  0.00  0.00    +0.195 A 
ATOM     33  O   UNL     1      -6.295   5.654   0.174  0.00  0.00    -0.470 OA
ENDBRANCH  28  29
ENDBRANCH  26  28
BRANCH  26  34
ATOM     34  C   UNL     1      -4.788   1.780   1.232  0.00  0.00    -0.045 C 
BRANCH  34  35
ATOM     35  C   UNL     1      -4.776   1.722   2.761  0.00  0.00    +0.102 C 
ATOM     36  C   UNL     1      -5.124   0.298   3.248  0.00  0.00    +0.032 C 
ATOM     37  C   UNL     1      -5.977   0.533   4.515  0.00  0.00    +0.030 C 
ATOM     38  C   UNL     1      -6.043   2.071   4.643  0.00  0.00    +0.160 C 
ATOM     39  O   UNL     1      -5.817   2.563   3.304  0.00  0.00    -0.378 OA
ENDBRANCH  34  35
ENDBRANCH  26  34
ENDBRANCH   1  26
TORSDOF 8
