REMARK  Name = ZINC36723331
REMARK  7 active torsions:
REMARK  status: ('A' for Active; 'I' for Inactive)
REMARK    1  A    between atoms: C_1  and  C_2
REMARK    2  A    between atoms: C_5  and  S_9
REMARK    3  A    between atoms: C_6  and  C_8
REMARK    4  A    between atoms: S_9  and  C_10
REMARK    5  A    between atoms: C_13  and  N_16
REMARK    6  A    between atoms: C_17  and  C_19
REMARK    7  A    between atoms: C_19  and  N_20
REMARK                            x       y       z     vdW  Elec       q    Type
REMARK                         _______ _______ _______ _____ _____    ______ ____
ROOT
ATOM      1  N   UNL     1       0.315  -6.348  -5.665  0.00  0.00    -0.284 N 
ATOM      2  C   UNL     1       0.175  -7.655  -5.960  0.00  0.00    +0.235 C 
ATOM      3  O   UNL     1       0.088  -8.472  -5.067  0.00  0.00    -0.274 OA
ATOM      4  H   UNL     1       0.451  -5.702  -6.377  0.00  0.00    +0.155 HD
ENDROOT
BRANCH   1   8
ATOM      5  C   UNL     1       0.162  -5.075  -1.697  0.00  0.00    +0.013 A 
ATOM      6  C   UNL     1      -0.358  -4.272  -2.705  0.00  0.00    +0.017 A 
ATOM      7  C   UNL     1      -0.307  -4.694  -4.018  0.00  0.00    +0.024 A 
ATOM      8  C   UNL     1       0.264  -5.920  -4.332  0.00  0.00    +0.033 A 
ATOM      9  C   UNL     1       0.783  -6.723  -3.325  0.00  0.00    +0.024 A 
ATOM     10  C   UNL     1       0.737  -6.300  -2.012  0.00  0.00    +0.017 A 
BRANCH   5  11
ATOM     11  S   UNL     1       0.098  -4.537  -0.020  0.00  0.00    -0.089 S 
BRANCH  11  16
ATOM     12  C   UNL     1      -4.907  -7.120   2.152  0.00  0.00    +0.044 C 
ATOM     13  C   UNL     1      -3.657  -6.475   1.610  0.00  0.00    -0.050 A 
ATOM     14  C   UNL     1      -3.344  -6.598   0.268  0.00  0.00    +0.004 A 
ATOM     15  C   UNL     1      -2.200  -6.009  -0.232  0.00  0.00    +0.015 A 
ATOM     16  C   UNL     1      -1.363  -5.290   0.614  0.00  0.00    +0.016 A 
ATOM     17  C   UNL     1      -1.681  -5.169   1.961  0.00  0.00    -0.036 A 
ATOM     18  C   UNL     1      -2.830  -5.757   2.453  0.00  0.00    +0.007 A 
ATOM     19  C   UNL     1      -0.777  -4.392   2.882  0.00  0.00    +0.045 C 
ENDBRANCH  11  16
ENDBRANCH   5  11
ENDBRANCH   1   8
BRANCH   2  20
ATOM     20  C   UNL     1       0.126  -8.103  -7.398  0.00  0.00    +0.214 C 
BRANCH  20  21
ATOM     21  N   UNL     1      -0.030  -9.559  -7.451  0.00  0.00    -0.215 N 
ATOM     22  C   UNL     1       1.000 -10.433  -7.474  0.00  0.00    +0.251 C 
ATOM     23  O   UNL     1       2.184 -10.175  -7.455  0.00  0.00    -0.272 OA
ATOM     24  C   UNL     1       0.361 -11.796  -7.528  0.00  0.00    +0.138 C 
ATOM     25  C   UNL     1       0.789 -12.562  -8.786  0.00  0.00    +0.045 C 
ATOM     26  C   UNL     1       0.796 -14.026  -8.289  0.00  0.00    +0.038 C 
ATOM     27  C   UNL     1       1.024 -13.938  -6.794  0.00  0.00    -0.042 A 
ATOM     28  C   UNL     1       0.770 -12.648  -6.357  0.00  0.00    -0.012 A 
ATOM     29  C   UNL     1       0.914 -12.339  -5.015  0.00  0.00    +0.006 A 
ATOM     30  C   UNL     1       1.310 -13.308  -4.114  0.00  0.00    +0.000 A 
ATOM     31  C   UNL     1       1.564 -14.595  -4.552  0.00  0.00    +0.000 A 
ATOM     32  C   UNL     1       1.420 -14.907  -5.890  0.00  0.00    +0.004 A 
ATOM     33  N   UNL     1      -1.078 -11.530  -7.529  0.00  0.00    -0.281 N 
ATOM     34  C   UNL     1      -1.212 -10.189  -7.477  0.00  0.00    +0.310 C 
ATOM     35  O   UNL     1      -2.284  -9.617  -7.459  0.00  0.00    -0.252 OA
ATOM     36  H   UNL     1      -1.791 -12.187  -7.559  0.00  0.00    +0.152 HD
ENDBRANCH  20  21
ENDBRANCH   2  20
TORSDOF 5
