REMARK  Name = ZINC05776386
REMARK  10 active torsions:
REMARK  status: ('A' for Active; 'I' for Inactive)
REMARK    1  A    between atoms: C_1  and  C_2
REMARK    2  A    between atoms: C_2  and  C_3
REMARK    3  A    between atoms: C_10  and  C_12
REMARK    4  A    between atoms: C_15  and  S_18
REMARK    5  A    between atoms: N_16  and  C_17
REMARK    6  A    between atoms: S_18  and  C_19
REMARK    7  A    between atoms: C_19  and  C_21
REMARK    8  A    between atoms: C_19  and  C_24
REMARK    9  A    between atoms: C_21  and  C_22
REMARK   10  A    between atoms: C_21  and  C_23
REMARK                            x       y       z     vdW  Elec       q    Type
REMARK                         _______ _______ _______ _____ _____    ______ ____
ROOT
ATOM      1  C   UNL     1      -4.467   1.797  -1.804  0.00  0.00    +0.171 A 
ATOM      2  N   UNL     1      -3.361   2.485  -1.982  0.00  0.00    -0.128 NA
ATOM      3  N   UNL     1      -2.557   2.284  -1.000  0.00  0.00    -0.122 NA
ATOM      4  C   UNL     1      -3.097   1.457  -0.134  0.00  0.00    +0.192 A 
ATOM      5  N   UNL     1      -4.330   1.113  -0.616  0.00  0.00    -0.305 N 
ATOM      6  C   UNL     1      -5.301   0.208   0.002  0.00  0.00    +0.153 C 
ENDROOT
BRANCH   1  13
ATOM      7  C   UNL     1      -8.373   1.800  -6.692  0.00  0.00    -0.007 C 
ATOM      8  C   UNL     1      -9.569   2.052  -5.770  0.00  0.00    +0.009 C 
ATOM      9  C   UNL     1      -9.365   1.260  -4.470  0.00  0.00    +0.043 C 
ATOM     10  C   UNL     1      -7.973   1.505  -3.985  0.00  0.00    -0.006 A 
ATOM     11  C   UNL     1      -6.935   2.050  -4.682  0.00  0.00    -0.036 A 
ATOM     12  C   UNL     1      -5.727   2.176  -4.006  0.00  0.00    +0.023 A 
ATOM     13  C   UNL     1      -5.630   1.761  -2.705  0.00  0.00    +0.057 A 
ATOM     14  S   UNL     1      -7.282   1.156  -2.390  0.00  0.00    -0.090 S 
ATOM     15  C   UNL     1      -7.127   2.486  -6.132  0.00  0.00    +0.039 C 
BRANCH   7  17
ATOM     16  C   UNL     1      -7.537   2.002  -9.038  0.00  0.00    +0.004 C 
ATOM     17  C   UNL     1      -8.677   2.361  -8.083  0.00  0.00    +0.000 C 
ENDBRANCH   7  17
ENDBRANCH   1  13
BRANCH   4  18
ATOM     18  S   UNL     1      -2.367   0.890   1.366  0.00  0.00    -0.073 S 
BRANCH  18  19
ATOM     19  C   UNL     1      -0.723   1.632   1.215  0.00  0.00    +0.143 C 
BRANCH  19  20
ATOM     20  C   UNL     1       0.023   1.469   2.514  0.00  0.00    +0.234 C 
ATOM     21  O   UNL     1      -0.265   0.565   3.269  0.00  0.00    -0.274 OA
ATOM     22  N   UNL     1       1.011   2.327   2.837  0.00  0.00    -0.239 N 
ATOM     23  C   UNL     1       1.678   2.181   3.998  0.00  0.00    +0.303 C 
ATOM     24  O   UNL     1       1.389   1.275   4.755  0.00  0.00    -0.253 OA
ATOM     25  N   UNL     1       2.665   3.040   4.321  0.00  0.00    -0.313 N 
ATOM     26  H   UNL     1       1.241   3.051   2.233  0.00  0.00    +0.159 HD
ATOM     27  H   UNL     1       2.896   3.763   3.717  0.00  0.00    +0.146 HD
ATOM     28  H   UNL     1       3.146   2.934   5.157  0.00  0.00    +0.146 HD
ENDBRANCH  19  20
BRANCH  19  29
ATOM     29  C   UNL     1       0.050   0.937   0.092  0.00  0.00    +0.005 C 
ATOM     30  C   UNL     1       0.306  -0.521   0.477  0.00  0.00    +0.009 C 
ATOM     31  C   UNL     1       1.386   1.650  -0.125  0.00  0.00    +0.009 C 
ENDBRANCH  19  29
ENDBRANCH  18  19
ENDBRANCH   4  18
TORSDOF 6
