REMARK  Name = ZINC63134638
REMARK  6 active torsions:
REMARK  status: ('A' for Active; 'I' for Inactive)
REMARK    1  A    between atoms: C_1  and  C_2
REMARK    2  A    between atoms: C_2  and  C_3
REMARK    3  A    between atoms: C_3  and  O_4
REMARK    4  A    between atoms: O_4  and  C_5
REMARK    5  A    between atoms: C_5  and  C_7
REMARK    6  A    between atoms: C_16  and  N_17
REMARK                            x       y       z     vdW  Elec       q    Type
REMARK                         _______ _______ _______ _____ _____    ______ ____
ROOT
ATOM      1  C   UNL     1      -2.664  -4.060   0.006  0.00  0.00    +0.089 A 
ATOM      2  C   UNL     1      -2.686  -4.781   1.222  0.00  0.00    +0.014 A 
ATOM      3  C   UNL     1      -2.653  -4.088   2.508  0.00  0.00    +0.016 A 
ATOM      4  C   UNL     1      -2.676  -4.829   3.645  0.00  0.00    +0.071 A 
ATOM      5  C   UNL     1      -2.732  -6.238   3.571  0.00  0.00    +0.249 A 
ATOM      6  N   UNL     1      -2.762  -6.880   2.391  0.00  0.00    -0.322 N 
ATOM      7  C   UNL     1      -2.741  -6.183   1.201  0.00  0.00    +0.050 A 
ATOM      8  C   UNL     1      -2.773  -6.857  -0.021  0.00  0.00    +0.028 A 
ATOM      9  C   UNL     1      -2.751  -6.155  -1.202  0.00  0.00    +0.025 A 
ATOM     10  C   UNL     1      -2.703  -4.761  -1.204  0.00  0.00    +0.039 A 
ATOM     11  O   UNL     1      -2.752  -6.887   4.603  0.00  0.00    -0.268 OA
ATOM     12  H   UNL     1      -2.799  -7.849   2.376  0.00  0.00    +0.169 HD
ENDROOT
BRANCH  10  13
ATOM     13  N   UNL     1      -2.688  -4.069  -2.408  0.00  0.00    -0.357 N 
ATOM     14  H   UNL     1      -2.650  -3.099  -2.409  0.00  0.00    +0.142 HD
ATOM     15  H   UNL     1      -2.715  -4.554  -3.247  0.00  0.00    +0.142 HD
ENDBRANCH  10  13
BRANCH   1  16
ATOM     16  C   UNL     1      -2.607  -2.591   0.013  0.00  0.00    +0.342 C 
ATOM     17  O   UNL     1      -3.635  -1.943   0.026  0.00  0.00    -0.245 OA
BRANCH  16  18
ATOM     18  O   UNL     1      -1.414  -1.962   0.005  0.00  0.00    -0.461 OA
BRANCH  18  19
ATOM     19  C   UNL     1      -1.433  -0.534   0.013  0.00  0.00    +0.232 C 
BRANCH  19  21
ATOM     20  C   UNL     1      -0.019   1.526   0.010  0.00  0.00    +0.007 C 
ATOM     21  C   UNL     1       0.002  -0.004   0.002  0.00  0.00    +0.038 C 
ENDBRANCH  19  21
ENDBRANCH  18  19
ENDBRANCH  16  18
ENDBRANCH   1  16
TORSDOF 5
