REMARK  Name = ZINC57619999
REMARK  3 active torsions:
REMARK  status: ('A' for Active; 'I' for Inactive)
REMARK    1  A    between atoms: C_3  and  N_11
REMARK    2  A    between atoms: C_6  and  C_7
REMARK    3  A    between atoms: N_8  and  O_9
REMARK                            x       y       z     vdW  Elec       q    Type
REMARK                         _______ _______ _______ _____ _____    ______ ____
ROOT
ATOM      1  C   UNL     1       0.855  -0.057   1.106  0.00  0.00    +0.013 A 
ATOM      2  C   UNL     1       2.037   0.650   1.096  0.00  0.00    +0.024 A 
ATOM      3  C   UNL     1       2.381   1.416  -0.013  0.00  0.00    +0.030 A 
ATOM      4  C   UNL     1       1.533   1.471  -1.114  0.00  0.00    +0.024 A 
ATOM      5  C   UNL     1       0.349   0.766  -1.109  0.00  0.00    +0.013 A 
ATOM      6  C   UNL     1       0.002  -0.004   0.002  0.00  0.00    +0.018 A 
ENDROOT
BRANCH   3   7
ATOM      7  N   UNL     1       3.578   2.131  -0.021  0.00  0.00    -0.327 N 
ATOM      8  C   UNL     1       3.577   3.598  -0.117  0.00  0.00    +0.105 C 
ATOM      9  C   UNL     1       4.484   4.019  -1.277  0.00  0.00    +0.019 C 
ATOM     10  C   UNL     1       5.870   3.397  -1.095  0.00  0.00    +0.007 C 
ATOM     11  C   UNL     1       5.745   1.869  -1.109  0.00  0.00    +0.009 C 
ATOM     12  C   UNL     1       4.867   1.436   0.073  0.00  0.00    +0.077 C 
ATOM     13  C   UNL     1       4.653  -0.074   0.054  0.00  0.00    +0.023 C 
ATOM     14  C   UNL     1       4.000  -0.491  -1.265  0.00  0.00    +0.002 C 
ATOM     15  C   UNL     1       4.909  -0.087  -2.428  0.00  0.00    +0.000 C 
ATOM     16  C   UNL     1       5.107   1.439  -2.433  0.00  0.00    +0.005 C 
ENDBRANCH   3   7
BRANCH   6  17
ATOM     17  C   UNL     1      -1.268  -0.763   0.010  0.00  0.00    +0.162 C 
ATOM     18  N   UNL     1      -1.591  -1.480   1.047  0.00  0.00    -0.072 NA
ATOM     19  N   UNL     1      -2.113  -0.710  -1.086  0.00  0.00    -0.340 N 
ATOM     20  H   UNL     1      -1.872  -0.175  -1.859  0.00  0.00    +0.144 HD
ATOM     21  H   UNL     1      -2.945  -1.207  -1.081  0.00  0.00    +0.144 HD
BRANCH  18  22
ATOM     22  O   UNL     1      -2.806  -2.206   1.054  0.00  0.00    -0.408 OA
ATOM     23  H   UNL     1      -2.959  -2.709   1.866  0.00  0.00    +0.328 HD
ENDBRANCH  18  22
ENDBRANCH   6  17
TORSDOF 3
