REMARK  Name = ZINC30743235
REMARK  13 active torsions:
REMARK  status: ('A' for Active; 'I' for Inactive)
REMARK    1  A    between atoms: C_1  and  C_2
REMARK    2  A    between atoms: C_5  and  N_8
REMARK    3  A    between atoms: C_9  and  C_27
REMARK    4  A    between atoms: C_12  and  S_13
REMARK    5  A    between atoms: S_13  and  C_14
REMARK    6  A    between atoms: C_14  and  C_15
REMARK    7  A    between atoms: N_17  and  N_18
REMARK    8  A    between atoms: C_19  and  C_20
REMARK    9  A    between atoms: C_23  and  O_26
REMARK   10  A    between atoms: C_30  and  C_33
REMARK   11  A    between atoms: C_33  and  C_34
REMARK   12  A    between atoms: C_33  and  C_35
REMARK   13  A    between atoms: C_33  and  C_36
REMARK                            x       y       z     vdW  Elec       q    Type
REMARK                         _______ _______ _______ _____ _____    ______ ____
ROOT
ATOM      1  N   UNL     1      -3.982   0.445  -3.857  0.00  0.00    -0.270 N 
ATOM      2  C   UNL     1      -3.011  -0.372  -4.392  0.00  0.00    +0.169 A 
ATOM      3  N   UNL     1      -3.324  -1.605  -4.068  0.00  0.00    -0.128 NA
ATOM      4  N   UNL     1      -4.410  -1.617  -3.382  0.00  0.00    -0.122 NA
ATOM      5  C   UNL     1      -4.859  -0.392  -3.224  0.00  0.00    +0.197 A 
ENDROOT
BRANCH   1  10
ATOM      6  C   UNL     1      -4.284   6.102  -4.212  0.00  0.00    +0.044 C 
ATOM      7  C   UNL     1      -4.203   4.600  -4.118  0.00  0.00    -0.050 A 
ATOM      8  C   UNL     1      -5.160   3.817  -4.738  0.00  0.00    +0.005 A 
ATOM      9  C   UNL     1      -5.089   2.441  -4.654  0.00  0.00    +0.026 A 
ATOM     10  C   UNL     1      -4.056   1.842  -3.945  0.00  0.00    +0.051 A 
ATOM     11  C   UNL     1      -3.100   2.631  -3.318  0.00  0.00    +0.026 A 
ATOM     12  C   UNL     1      -3.173   4.007  -3.411  0.00  0.00    +0.005 A 
ENDBRANCH   1  10
BRANCH   2  13
ATOM     13  C   UNL     1      -1.835   0.058  -5.178  0.00  0.00    +0.020 A 
ATOM     14  C   UNL     1      -1.803   1.329  -5.754  0.00  0.00    +0.012 A 
ATOM     15  C   UNL     1      -0.700   1.726  -6.481  0.00  0.00    +0.005 A 
ATOM     16  C   UNL     1       0.371   0.865  -6.645  0.00  0.00    -0.042 A 
ATOM     17  C   UNL     1       0.344  -0.398  -6.080  0.00  0.00    +0.005 A 
ATOM     18  C   UNL     1      -0.753  -0.807  -5.350  0.00  0.00    +0.012 A 
BRANCH  16  19
ATOM     19  C   UNL     1       1.572   1.306  -7.441  0.00  0.00    -0.013 C 
ATOM     20  C   UNL     1       2.188   2.546  -6.790  0.00  0.00    +0.015 C 
ATOM     21  C   UNL     1       2.606   0.178  -7.470  0.00  0.00    +0.015 C 
ATOM     22  C   UNL     1       1.142   1.640  -8.870  0.00  0.00    +0.015 C 
ENDBRANCH  16  19
ENDBRANCH   2  13
BRANCH   5  23
ATOM     23  S   UNL     1      -6.316   0.084  -2.354  0.00  0.00    -0.076 S 
BRANCH  23  24
ATOM     24  C   UNL     1      -6.905  -1.540  -1.815  0.00  0.00    +0.174 C 
BRANCH  24  25
ATOM     25  C   UNL     1      -8.180  -1.376  -1.028  0.00  0.00    +0.242 C 
ATOM     26  O   UNL     1      -8.644  -0.270  -0.849  0.00  0.00    -0.273 OA
ATOM     27  N   UNL     1      -8.804  -2.459  -0.523  0.00  0.00    -0.206 N 
ATOM     28  H   UNL     1      -8.383  -3.462  -0.686  0.00  0.00    +0.177 HD
BRANCH  27  29
ATOM     29  N   UNL     1      -9.989  -2.306   0.208  0.00  0.00    -0.188 NA
ATOM     30  C   UNL     1     -10.512  -3.327   0.817  0.00  0.00    +0.138 C 
BRANCH  30  31
ATOM     31  C   UNL     1      -9.710  -4.544   1.036  0.00  0.00    -0.005 A 
ATOM     32  C   UNL     1     -10.343  -5.767   1.275  0.00  0.00    +0.013 A 
ATOM     33  C   UNL     1      -9.590  -6.903   1.475  0.00  0.00    +0.046 A 
ATOM     34  C   UNL     1      -8.203  -6.833   1.449  0.00  0.00    +0.117 A 
ATOM     35  C   UNL     1      -7.569  -5.619   1.217  0.00  0.00    +0.046 A 
ATOM     36  C   UNL     1      -8.314  -4.478   1.011  0.00  0.00    +0.013 A 
BRANCH  34  37
ATOM     37  O   UNL     1      -7.464  -7.955   1.651  0.00  0.00    -0.507 OA
ATOM     38  H   UNL     1      -6.366  -7.901   1.631  0.00  0.00    +0.292 HD
ENDBRANCH  34  37
ENDBRANCH  30  31
ENDBRANCH  27  29
ENDBRANCH  24  25
ENDBRANCH  23  24
ENDBRANCH   5  23
TORSDOF 9
