REMARK  Name = ZINC38650009
REMARK  14 active torsions:
REMARK  status: ('A' for Active; 'I' for Inactive)
REMARK    1  A    between atoms: C_1  and  O_2
REMARK    2  A    between atoms: O_2  and  C_3
REMARK    3  A    between atoms: C_8  and  C_9
REMARK    4  A    between atoms: C_14  and  O_23
REMARK    5  A    between atoms: C_18  and  N_22
REMARK    6  A    between atoms: C_19  and  C_20
REMARK    7  A    between atoms: O_23  and  C_24
REMARK    8  A    between atoms: C_24  and  C_26
REMARK    9  A    between atoms: C_28  and  O_36
REMARK   10  A    between atoms: C_29  and  O_34
REMARK   11  A    between atoms: C_30  and  O_32
REMARK   12  A    between atoms: O_32  and  C_33
REMARK   13  A    between atoms: O_34  and  C_35
REMARK   14  A    between atoms: O_36  and  C_37
REMARK                            x       y       z     vdW  Elec       q    Type
REMARK                         _______ _______ _______ _____ _____    ______ ____
ROOT
ATOM      1  C   UNL     1       0.004  -2.776  -0.049  0.00  0.00    +0.101 C 
ATOM      2  C   UNL     1       0.043  -3.645  -1.278  0.00  0.00    +0.008 A 
ATOM      3  C   UNL     1       0.254  -3.064  -2.516  0.00  0.00    +0.012 A 
ATOM      4  C   UNL     1       0.293  -3.845  -3.654  0.00  0.00    +0.047 A 
ATOM      5  C   UNL     1       0.120  -5.219  -3.559  0.00  0.00    +0.135 A 
ATOM      6  C   UNL     1      -0.092  -5.804  -2.321  0.00  0.00    +0.093 A 
ATOM      7  C   UNL     1      -0.131  -5.017  -1.177  0.00  0.00    +0.138 A 
ATOM      8  O   UNL     1      -0.338  -5.604   0.027  0.00  0.00    -0.441 OA
ATOM      9  C   UNL     1      -0.003  -4.957   1.155  0.00  0.00    +0.199 C 
ATOM     10  C   UNL     1       0.172  -3.618   1.184  0.00  0.00    +0.098 C 
ENDROOT
BRANCH   1  16
ATOM     11  C   UNL     1      -1.359  -0.672   0.001  0.00  0.00    +0.124 A 
ATOM     12  C   UNL     1      -2.580  -0.015   0.053  0.00  0.00    +0.046 A 
ATOM     13  C   UNL     1      -3.752  -0.742   0.122  0.00  0.00    +0.004 A 
ATOM     14  C   UNL     1      -3.710  -2.124   0.139  0.00  0.00    +0.001 A 
ATOM     15  C   UNL     1      -2.495  -2.781   0.088  0.00  0.00    +0.008 A 
ATOM     16  C   UNL     1      -1.320  -2.059   0.013  0.00  0.00    +0.007 A 
BRANCH  11  18
ATOM     17  C   UNL     1      -0.321   1.465  -0.076  0.00  0.00    +0.277 C 
ATOM     18  O   UNL     1      -0.205   0.041  -0.068  0.00  0.00    -0.495 OA
ENDBRANCH  11  18
ENDBRANCH   1  16
BRANCH   9  19
ATOM     19  N   UNL     1       0.164  -5.677   2.312  0.00  0.00    -0.328 N 
ATOM     20  H   UNL     1       0.041  -6.639   2.306  0.00  0.00    +0.145 HD
ATOM     21  H   UNL     1       0.406  -5.224   3.134  0.00  0.00    +0.145 HD
ENDBRANCH   9  19
BRANCH  10  22
ATOM     22  C   UNL     1       0.529  -2.989   2.420  0.00  0.00    +0.101 C 
ATOM     23  N   UNL     1       0.812  -2.490   3.400  0.00  0.00    -0.191 NA
ENDBRANCH  10  22
BRANCH   5  24
ATOM     24  O   UNL     1       0.158  -5.989  -4.678  0.00  0.00    -0.422 OA
BRANCH  24  25
ATOM     25  C   UNL     1       1.342  -6.134  -5.306  0.00  0.00    +0.345 C 
ATOM     26  O   UNL     1       2.352  -5.672  -4.813  0.00  0.00    -0.245 OA
BRANCH  25  27
ATOM     27  C   UNL     1       1.411  -6.853  -6.592  0.00  0.00    +0.067 A 
ATOM     28  C   UNL     1       0.249  -7.380  -7.163  0.00  0.00    +0.064 A 
ATOM     29  C   UNL     1       0.317  -8.053  -8.368  0.00  0.00    +0.166 A 
ATOM     30  C   UNL     1       1.541  -8.207  -9.013  0.00  0.00    +0.204 A 
ATOM     31  C   UNL     1       2.700  -7.683  -8.447  0.00  0.00    +0.166 A 
ATOM     32  C   UNL     1       2.637  -7.005  -7.244  0.00  0.00    +0.064 A 
BRANCH  31  33
ATOM     33  O   UNL     1       3.894  -7.836  -9.079  0.00  0.00    -0.491 OA
ATOM     34  C   UNL     1       5.043  -7.273  -8.442  0.00  0.00    +0.277 C 
ENDBRANCH  31  33
BRANCH  30  35
ATOM     35  O   UNL     1       1.604  -8.870 -10.198  0.00  0.00    -0.488 OA
ATOM     36  C   UNL     1       1.444  -8.092 -11.386  0.00  0.00    +0.277 C 
ENDBRANCH  30  35
BRANCH  29  37
ATOM     37  O   UNL     1      -0.814  -8.567  -8.924  0.00  0.00    -0.491 OA
ATOM     38  C   UNL     1      -2.035  -8.373  -8.207  0.00  0.00    +0.277 C 
ENDBRANCH  29  37
ENDBRANCH  25  27
ENDBRANCH  24  25
ENDBRANCH   5  24
TORSDOF 10
