REMARK  Name = ZINC36605857
REMARK  18 active torsions:
REMARK  status: ('A' for Active; 'I' for Inactive)
REMARK    1  A    between atoms: C_1  and  C_2
REMARK    2  A    between atoms: C_2  and  C_3
REMARK    3  A    between atoms: C_2  and  C_4
REMARK    4  A    between atoms: C_2  and  C_5
REMARK    5  A    between atoms: C_5  and  C_6
REMARK    6  A    between atoms: C_6  and  C_7
REMARK    7  A    between atoms: C_6  and  C_8
REMARK    8  A    between atoms: C_6  and  N_9
REMARK    9  A    between atoms: C_10  and  C_12
REMARK   10  A    between atoms: C_12  and  C_14
REMARK   11  A    between atoms: C_12  and  N_23
REMARK   12  A    between atoms: C_15  and  O_22
REMARK   13  A    between atoms: C_17  and  O_21
REMARK   14  A    between atoms: C_19  and  O_20
REMARK   15  A    between atoms: N_23  and  C_24
REMARK   16  A    between atoms: C_30  and  C_32
REMARK   17  A    between atoms: C_32  and  C_33
REMARK   18  A    between atoms: C_33  and  C_34
REMARK                            x       y       z     vdW  Elec       q    Type
REMARK                         _______ _______ _______ _____ _____    ______ ____
ROOT
ATOM      1  C   UNL     1       5.252  -0.429  -4.357  0.00  0.00    +0.204 C 
ENDROOT
BRANCH   1   2
ATOM      2  C   UNL     1       5.216  -1.892  -4.716  0.00  0.00    +0.065 A 
ATOM      3  C   UNL     1       5.909  -2.813  -3.946  0.00  0.00    +0.129 A 
ATOM      4  C   UNL     1       5.875  -4.159  -4.276  0.00  0.00    +0.091 A 
ATOM      5  C   UNL     1       5.147  -4.585  -5.377  0.00  0.00    +0.124 A 
ATOM      6  C   UNL     1       4.453  -3.664  -6.147  0.00  0.00    +0.091 A 
ATOM      7  C   UNL     1       4.483  -2.318  -5.814  0.00  0.00    +0.129 A 
BRANCH   7   8
ATOM      8  O   UNL     1       3.799  -1.416  -6.566  0.00  0.00    -0.506 OA
ATOM      9  H   UNL     1       4.310  -1.047  -7.299  0.00  0.00    +0.292 HD
ENDBRANCH   7   8
BRANCH   5  10
ATOM     10  O   UNL     1       5.115  -5.904  -5.702  0.00  0.00    -0.507 OA
ATOM     11  H   UNL     1       4.394  -6.394  -5.283  0.00  0.00    +0.292 HD
ENDBRANCH   5  10
BRANCH   3  12
ATOM     12  O   UNL     1       6.623  -2.396  -2.867  0.00  0.00    -0.506 OA
ATOM     13  H   UNL     1       6.142  -2.456  -2.030  0.00  0.00    +0.292 HD
ENDBRANCH   3  12
ENDBRANCH   1   2
BRANCH   1  15
ATOM     14  N   UNL     1       3.308  -0.571  -2.835  0.00  0.00    -0.308 N 
ATOM     15  C   UNL     1       4.598  -0.224  -3.015  0.00  0.00    +0.239 C 
ATOM     16  O   UNL     1       5.231   0.253  -2.098  0.00  0.00    -0.273 OA
ATOM     17  H   UNL     1       2.801  -0.953  -3.569  0.00  0.00    +0.149 HD
BRANCH  14  18
ATOM     18  C   UNL     1       2.671  -0.373  -1.531  0.00  0.00    +0.030 C 
ATOM     19  C   UNL     1       2.868   1.077  -1.083  0.00  0.00    +0.031 C 
ATOM     20  C   UNL     1       3.305  -1.314  -0.505  0.00  0.00    +0.031 C 
BRANCH  18  21
ATOM     21  C   UNL     1       1.175  -0.673  -1.642  0.00  0.00    +0.031 C 
BRANCH  21  23
ATOM     22  C   UNL     1       0.927  -0.962  -4.112  0.00  0.00    +0.010 C 
ATOM     23  C   UNL     1       0.623  -0.046  -2.924  0.00  0.00    -0.036 C 
ATOM     24  C   UNL     1       1.281   1.317  -3.149  0.00  0.00    +0.010 C 
ATOM     25  C   UNL     1      -0.891   0.133  -2.793  0.00  0.00    +0.010 C 
ENDBRANCH  21  23
ENDBRANCH  18  21
ENDBRANCH  14  18
ENDBRANCH   1  15
BRANCH   1  26
ATOM     26  N   UNL     1       6.644   0.024  -4.295  0.00  0.00    -0.255 N 
ATOM     27  C   UNL     1       6.922   1.314  -4.022  0.00  0.00    +0.221 C 
ATOM     28  O   UNL     1       6.021   2.120  -3.918  0.00  0.00    -0.275 OA
BRANCH  26  29
ATOM     29  C   UNL     1       7.686  -0.883  -4.519  0.00  0.00    +0.037 A 
ATOM     30  C   UNL     1       7.815  -1.502  -5.756  0.00  0.00    +0.023 A 
ATOM     31  C   UNL     1       8.845  -2.396  -5.975  0.00  0.00    +0.002 A 
ATOM     32  C   UNL     1       9.746  -2.676  -4.964  0.00  0.00    +0.000 A 
ATOM     33  C   UNL     1       9.619  -2.062  -3.731  0.00  0.00    +0.002 A 
ATOM     34  C   UNL     1       8.595  -1.163  -3.508  0.00  0.00    +0.023 A 
ENDBRANCH  26  29
BRANCH  27  35
ATOM     35  C   UNL     1       8.351   1.756  -3.844  0.00  0.00    +0.096 C 
BRANCH  35  36
ATOM     36  C   UNL     1       8.383   3.230  -3.434  0.00  0.00    +0.013 C 
BRANCH  36  37
ATOM     37  C   UNL     1       9.834   3.679  -3.253  0.00  0.00    -0.011 C 
ATOM     38  C   UNL     1      10.461   2.919  -2.083  0.00  0.00    +0.003 C 
ATOM     39  C   UNL     1      11.913   3.368  -1.903  0.00  0.00    +0.000 C 
ATOM     40  C   UNL     1      11.950   4.870  -1.615  0.00  0.00    +0.000 C 
ATOM     41  C   UNL     1      11.323   5.630  -2.785  0.00  0.00    +0.000 C 
ATOM     42  C   UNL     1       9.871   5.181  -2.965  0.00  0.00    +0.003 C 
ENDBRANCH  36  37
ENDBRANCH  35  36
ENDBRANCH  27  35
ENDBRANCH   1  26
TORSDOF 13
