REMARK  Name = ZINC44918721
REMARK  10 active torsions:
REMARK  status: ('A' for Active; 'I' for Inactive)
REMARK    1  A    between atoms: C_1  and  C_2
REMARK    2  A    between atoms: C_2  and  C_35
REMARK    3  A    between atoms: C_4  and  N_13
REMARK    4  A    between atoms: C_14  and  C_16
REMARK    5  A    between atoms: N_19  and  S_31
REMARK    6  A    between atoms: C_22  and  C_27
REMARK    7  A    between atoms: C_27  and  C_28
REMARK    8  A    between atoms: C_27  and  C_29
REMARK    9  A    between atoms: C_27  and  C_30
REMARK   10  A    between atoms: S_31  and  C_34
REMARK                            x       y       z     vdW  Elec       q    Type
REMARK                         _______ _______ _______ _____ _____    ______ ____
ROOT
ATOM      1  C   UNL     1      -5.722  -0.730   2.352  0.00  0.00    +0.277 C 
ATOM      2  C   UNL     1      -5.495  -1.916   3.300  0.00  0.00    +0.185 C 
ATOM      3  N   UNL     1      -6.801  -2.555   3.534  0.00  0.00    -0.200 N 
ATOM      4  C   UNL     1      -7.910  -1.719   3.740  0.00  0.00    +0.093 A 
ATOM      5  C   UNL     1      -9.091  -2.242   4.243  0.00  0.00    +0.032 A 
ATOM      6  C   UNL     1     -10.181  -1.415   4.440  0.00  0.00    -0.040 A 
ATOM      7  C   UNL     1     -10.093  -0.069   4.136  0.00  0.00    +0.008 A 
ATOM      8  C   UNL     1      -8.917   0.458   3.636  0.00  0.00    +0.048 A 
ATOM      9  C   UNL     1      -7.818  -0.363   3.436  0.00  0.00    +0.144 A 
ATOM     10  O   UNL     1      -6.664   0.165   2.947  0.00  0.00    -0.476 OA
ENDROOT
BRANCH   1  12
ATOM     11  N   UNL     1      -3.410  -0.634   1.479  0.00  0.00    -0.305 N 
ATOM     12  C   UNL     1      -4.418  -0.011   2.120  0.00  0.00    +0.256 C 
ATOM     13  O   UNL     1      -4.277   1.128   2.512  0.00  0.00    -0.272 OA
ATOM     14  H   UNL     1      -3.523  -1.545   1.166  0.00  0.00    +0.149 HD
BRANCH  11  18
ATOM     15  C   UNL     1      -0.019   1.526   0.010  0.00  0.00    +0.055 C 
ATOM     16  C   UNL     1       0.002  -0.004   0.002  0.00  0.00    +0.107 C 
ATOM     17  C   UNL     1      -1.435  -0.540   0.040  0.00  0.00    +0.074 C 
ATOM     18  C   UNL     1      -2.142   0.066   1.254  0.00  0.00    +0.111 C 
ATOM     19  C   UNL     1      -1.268  -0.077   2.474  0.00  0.00    +0.015 A 
ATOM     20  C   UNL     1      -1.846   0.054   3.727  0.00  0.00    +0.009 A 
ATOM     21  C   UNL     1      -1.075  -0.067   4.866  0.00  0.00    +0.001 A 
ATOM     22  C   UNL     1       0.281  -0.320   4.759  0.00  0.00    +0.004 A 
ATOM     23  C   UNL     1       0.861  -0.454   3.515  0.00  0.00    +0.046 A 
ATOM     24  C   UNL     1       0.087  -0.334   2.365  0.00  0.00    +0.126 A 
ATOM     25  O   UNL     1       0.692  -0.482   1.158  0.00  0.00    -0.486 OA
ATOM     26  C   UNL     1       0.706  -0.503  -1.262  0.00  0.00    +0.055 C 
ENDBRANCH  11  18
ENDBRANCH   1  12
BRANCH   6  27
ATOM     27  C   UNL     1     -11.466  -1.981   4.987  0.00  0.00    -0.013 C 
ATOM     28  C   UNL     1     -11.208  -2.590   6.367  0.00  0.00    +0.015 C 
ATOM     29  C   UNL     1     -12.505  -0.864   5.108  0.00  0.00    +0.015 C 
ATOM     30  C   UNL     1     -11.989  -3.064   4.042  0.00  0.00    +0.015 C 
ENDBRANCH   6  27
BRANCH   3  31
ATOM     31  S   UNL     1      -6.956  -4.204   3.554  0.00  0.00    +0.043 S 
ATOM     32  O   UNL     1      -8.307  -4.446   3.186  0.00  0.00    -0.155 OA
ATOM     33  O   UNL     1      -5.889  -4.679   2.744  0.00  0.00    -0.155 OA
ATOM     34  C   UNL     1      -6.686  -4.677   5.284  0.00  0.00    +0.218 C 
ENDBRANCH   3  31
TORSDOF 4
