REMARK  Name = ZINC34830404
REMARK  9 active torsions:
REMARK  status: ('A' for Active; 'I' for Inactive)
REMARK    1  A    between atoms: C_1  and  C_2
REMARK    2  A    between atoms: C_7  and  C_8
REMARK    3  A    between atoms: N_17  and  C_18
REMARK    4  A    between atoms: C_18  and  C_20
REMARK    5  A    between atoms: C_18  and  C_21
REMARK    6  A    between atoms: C_30  and  C_32
REMARK    7  A    between atoms: C_32  and  C_33
REMARK    8  A    between atoms: C_32  and  C_34
REMARK    9  A    between atoms: C_32  and  C_35
REMARK                            x       y       z     vdW  Elec       q    Type
REMARK                         _______ _______ _______ _____ _____    ______ ____
ROOT
ATOM      1  C   UNL     1      -1.539  -0.477   2.762  0.00  0.00    +0.018 C 
ATOM      2  C   UNL     1      -1.015  -1.845   2.321  0.00  0.00    -0.004 C 
ENDROOT
BRANCH   1   3
ATOM      3  C   UNL     1      -2.567  -0.659   3.849  0.00  0.00    +0.202 C 
ATOM      4  O   UNL     1      -2.274  -0.435   5.005  0.00  0.00    -0.277 OA
ATOM      5  N   UNL     1      -3.811  -1.071   3.538  0.00  0.00    -0.301 N 
ATOM      6  C   UNL     1      -4.835  -1.151   4.521  0.00  0.00    +0.109 C 
ATOM      7  C   UNL     1      -4.835  -2.472   5.356  0.00  0.00    +0.038 C 
ATOM      8  C   UNL     1      -4.463  -3.637   4.382  0.00  0.00    +0.109 C 
ATOM      9  N   UNL     1      -5.016  -3.518   3.078  0.00  0.00    -0.299 N 
ATOM     10  C   UNL     1      -4.152  -2.916   2.030  0.00  0.00    +0.126 C 
ATOM     11  C   UNL     1      -4.176  -1.457   2.151  0.00  0.00    +0.126 C 
ATOM     12  C   UNL     1      -6.268  -3.934   2.804  0.00  0.00    +0.222 C 
ATOM     13  O   UNL     1      -6.982  -4.336   3.698  0.00  0.00    -0.275 OA
BRANCH  12  14
ATOM     14  C   UNL     1      -6.781  -3.899   1.388  0.00  0.00    +0.055 C 
ATOM     15  C   UNL     1      -6.687  -2.471   0.847  0.00  0.00    +0.022 C 
ATOM     16  C   UNL     1      -5.936  -4.831   0.516  0.00  0.00    +0.022 C 
BRANCH  14  17
ATOM     17  C   UNL     1      -8.239  -4.360   1.361  0.00  0.00    +0.124 C 
ATOM     18 CL   UNL     1      -8.853  -4.318  -0.333  0.00  0.00    -0.124 Cl
ENDBRANCH  14  17
ENDBRANCH  12  14
ENDBRANCH   1   3
BRANCH   1  27
ATOM     19  C   UNL     1      -0.948   1.601   3.794  0.00  0.00    -0.005 C 
ATOM     20  C   UNL     1       0.200   2.391   4.415  0.00  0.00    -0.047 A 
ATOM     21  C   UNL     1       0.164   3.763   4.650  0.00  0.00    +0.010 A 
ATOM     22  C   UNL     1       1.233   4.383   5.204  0.00  0.00    +0.045 A 
ATOM     23  S   UNL     1       2.372   3.024   5.428  0.00  0.00    -0.101 S 
ATOM     24  C   UNL     1       1.344   1.742   4.772  0.00  0.00    -0.010 A 
ATOM     25  C   UNL     1       1.617   0.280   4.625  0.00  0.00    +0.024 C 
ATOM     26  C   UNL     1       0.277  -0.414   4.326  0.00  0.00    -0.071 C 
ATOM     27  N   UNL     1      -0.425   0.333   3.273  0.00  0.00    +0.395 N 
ATOM     28  H   UNL     1       0.218   0.524   2.519  0.00  0.00    -0.079 HD
BRANCH  19  35
ATOM     29  C   UNL     1      -3.372   3.109   4.239  0.00  0.00    +0.044 C 
ATOM     30  C   UNL     1      -2.718   3.118   2.882  0.00  0.00    -0.049 A 
ATOM     31  C   UNL     1      -3.274   3.852   1.851  0.00  0.00    +0.003 A 
ATOM     32  C   UNL     1      -2.674   3.860   0.606  0.00  0.00    +0.000 A 
ATOM     33  C   UNL     1      -1.517   3.135   0.391  0.00  0.00    +0.000 A 
ATOM     34  C   UNL     1      -0.960   2.401   1.422  0.00  0.00    +0.002 A 
ATOM     35  C   UNL     1      -1.558   2.397   2.669  0.00  0.00    -0.054 A 
ENDBRANCH  19  35
ENDBRANCH   1  27
TORSDOF 5
