REMARK  Name = ZINC60242689
REMARK  7 active torsions:
REMARK  status: ('A' for Active; 'I' for Inactive)
REMARK    1  A    between atoms: C_1  and  C_2
REMARK    2  A    between atoms: C_2  and  C_3
REMARK    3  A    between atoms: C_3  and  N_4
REMARK    4  A    between atoms: C_13  and  C_15
REMARK    5  A    between atoms: N_17  and  N_18
REMARK    6  A    between atoms: C_19  and  C_21
REMARK    7  A    between atoms: C_24  and  C_26
REMARK                            x       y       z     vdW  Elec       q    Type
REMARK                         _______ _______ _______ _____ _____    ______ ____
ROOT
ATOM      1  C   UNL     1       3.038  -4.457   0.015  0.00  0.00    +0.281 C 
ATOM      2  O   UNL     1       3.157  -5.666   0.068  0.00  0.00    -0.267 OA
ATOM      3  N   UNL     1       3.979  -3.662   0.563  0.00  0.00    -0.229 N 
ATOM      4  H   UNL     1       3.883  -2.698   0.521  0.00  0.00    +0.173 HD
ENDROOT
BRANCH   1  14
ATOM      5  N   UNL     1       0.738  -1.962  -1.265  0.00  0.00    -0.228 N 
ATOM      6  C   UNL     1      -0.285  -2.611  -1.857  0.00  0.00    +0.275 A 
ATOM      7  O   UNL     1      -1.200  -1.994  -2.372  0.00  0.00    -0.266 OA
ATOM      8  C   UNL     1      -0.270  -4.081  -1.868  0.00  0.00    +0.050 A 
ATOM      9  C   UNL     1      -1.277  -4.843  -2.452  0.00  0.00    +0.014 A 
ATOM     10  C   UNL     1      -1.188  -6.218  -2.420  0.00  0.00    +0.001 A 
ATOM     11  C   UNL     1      -0.109  -6.846  -1.811  0.00  0.00    +0.001 A 
ATOM     12  C   UNL     1       0.899  -6.108  -1.227  0.00  0.00    +0.011 A 
ATOM     13  C   UNL     1       0.829  -4.720  -1.249  0.00  0.00    +0.020 A 
ATOM     14  C   UNL     1       1.862  -3.860  -0.648  0.00  0.00    +0.155 A 
ATOM     15  N   UNL     1       1.728  -2.557  -0.714  0.00  0.00    -0.163 NA
BRANCH   5  16
ATOM     16  C   UNL     1       0.718  -0.497  -1.257  0.00  0.00    +0.147 C 
BRANCH  16  18
ATOM     17  C   UNL     1      -0.019   1.526   0.010  0.00  0.00    +0.005 C 
ATOM     18  C   UNL     1       0.002  -0.004   0.002  0.00  0.00    +0.020 C 
ENDBRANCH  16  18
ENDBRANCH   5  16
ENDBRANCH   1  14
BRANCH   3  19
ATOM     19  N   UNL     1       5.094  -4.229   1.192  0.00  0.00    -0.234 N 
ATOM     20  C   UNL     1       6.035  -3.434   1.740  0.00  0.00    +0.233 C 
ATOM     21  O   UNL     1       5.916  -2.228   1.687  0.00  0.00    -0.274 OA
ATOM     22  H   UNL     1       5.190  -5.193   1.235  0.00  0.00    +0.173 HD
BRANCH  20  23
ATOM     23  C   UNL     1       7.235  -4.043   2.417  0.00  0.00    +0.084 C 
ATOM     24  C   UNL     1       8.595  -3.865   1.740  0.00  0.00    +0.022 C 
ATOM     25  C   UNL     1       8.269  -3.088   3.018  0.00  0.00    +0.032 C 
BRANCH  25  26
ATOM     26  C   UNL     1       8.009  -1.610   2.886  0.00  0.00    -0.042 A 
ATOM     27  C   UNL     1       7.888  -1.038   1.633  0.00  0.00    +0.004 A 
ATOM     28  C   UNL     1       7.649   0.318   1.511  0.00  0.00    +0.001 A 
ATOM     29  C   UNL     1       7.531   1.103   2.643  0.00  0.00    +0.015 A 
ATOM     30  C   UNL     1       7.652   0.532   3.897  0.00  0.00    +0.018 A 
ATOM     31  C   UNL     1       7.886  -0.826   4.018  0.00  0.00    +0.019 A 
ATOM     32 BR   UNL     1       7.492   1.606   5.445  0.00  0.00    -0.050 Br
ENDBRANCH  25  26
ENDBRANCH  20  23
ENDBRANCH   3  19
TORSDOF 6
