REMARK  Name = ZINC39659975
REMARK  8 active torsions:
REMARK  status: ('A' for Active; 'I' for Inactive)
REMARK    1  A    between atoms: C_5  and  C_7
REMARK    2  A    between atoms: C_11  and  C_20
REMARK    3  A    between atoms: N_22  and  C_23
REMARK    4  A    between atoms: C_23  and  C_24
REMARK    5  A    between atoms: C_24  and  C_25
REMARK    6  A    between atoms: C_25  and  C_26
REMARK    7  A    between atoms: C_26  and  C_27
REMARK    8  A    between atoms: C_27  and  C_28
REMARK                            x       y       z     vdW  Elec       q    Type
REMARK                         _______ _______ _______ _____ _____    ______ ____
ROOT
ATOM      1  C   UNL     1       1.190  -1.966  -0.096  0.00  0.00    +0.249 C 
ATOM      2  O   UNL     1       2.273  -2.517  -0.135  0.00  0.00    -0.270 OA
ATOM      3  N   UNL     1       0.068  -2.695   0.064  0.00  0.00    -0.296 N 
ATOM      4  C   UNL     1      -1.335  -2.222   0.029  0.00  0.00    +0.121 C 
ATOM      5  C   UNL     1      -2.104  -3.334  -0.719  0.00  0.00    +0.100 C 
ATOM      6  C   UNL     1      -1.250  -4.599  -0.526  0.00  0.00    -0.004 C 
ATOM      7  C   UNL     1      -0.040  -4.154   0.309  0.00  0.00    +0.115 C 
ATOM      8  C   UNL     1      -2.046  -5.665   0.222  0.00  0.00    -0.010 C 
ATOM      9  C   UNL     1      -1.196  -6.933   0.350  0.00  0.00    -0.082 C 
ATOM     10  N   UNL     1      -0.829  -7.415  -0.987  0.00  0.00    +0.379 N 
ATOM     11  C   UNL     1       0.014  -6.422  -1.663  0.00  0.00    -0.082 C 
ATOM     12  C   UNL     1      -0.784  -5.133  -1.877  0.00  0.00    -0.010 C 
ATOM     13  H   UNL     1      -0.321  -8.283  -0.902  0.00  0.00    -0.086 HD
ATOM     14  H   UNL     1      -1.666  -7.570  -1.529  0.00  0.00    -0.086 HD
ENDROOT
BRANCH   1  19
ATOM     15  C   UNL     1       0.047   1.583   0.349  0.00  0.00    +0.001 A 
ATOM     16  C   UNL     1       0.941   2.259  -0.463  0.00  0.00    +0.003 A 
ATOM     17  C   UNL     1       1.916   1.567  -1.156  0.00  0.00    +0.039 A 
ATOM     18  C   UNL     1       2.005   0.191  -1.042  0.00  0.00    +0.135 A 
ATOM     19  C   UNL     1       1.104  -0.497  -0.223  0.00  0.00    +0.072 A 
ATOM     20  C   UNL     1       0.122   0.212   0.473  0.00  0.00    +0.016 A 
ATOM     21  F   UNL     1       2.957  -0.485  -1.720  0.00  0.00    -0.205 F 
ENDBRANCH   1  19
BRANCH   5  22
ATOM     22  C   UNL     1      -3.471  -3.525  -0.115  0.00  0.00    +0.218 C 
ATOM     23  O   UNL     1      -3.647  -3.316   1.067  0.00  0.00    -0.275 OA
ATOM     24  N   UNL     1      -4.500  -3.927  -0.888  0.00  0.00    -0.315 N 
ATOM     25  H   UNL     1      -4.360  -4.093  -1.833  0.00  0.00    +0.149 HD
BRANCH  24  26
ATOM     26  C   UNL     1      -5.829  -4.112  -0.300  0.00  0.00    +0.104 C 
BRANCH  26  27
ATOM     27  C   UNL     1      -6.807  -4.568  -1.385  0.00  0.00    +0.019 C 
BRANCH  27  28
ATOM     28  C   UNL     1      -8.195  -4.761  -0.772  0.00  0.00    +0.002 C 
BRANCH  28  29
ATOM     29  C   UNL     1      -9.173  -5.217  -1.857  0.00  0.00    +0.011 C 
BRANCH  29  30
ATOM     30  C   UNL     1     -10.561  -5.410  -1.243  0.00  0.00    +0.125 C 
BRANCH  30  31
ATOM     31  C   UNL     1     -11.524  -5.859  -2.312  0.00  0.00    +0.356 C 
ATOM     32  O   UNL     1     -11.136  -6.011  -3.458  0.00  0.00    -0.246 OA
ATOM     33  O   UNL     1     -12.692  -6.071  -2.030  0.00  0.00    -0.246 OA
ENDBRANCH  30  31
ENDBRANCH  29  30
ENDBRANCH  28  29
ENDBRANCH  27  28
ENDBRANCH  26  27
ENDBRANCH  24  26
ENDBRANCH   5  22
TORSDOF 8
