REMARK  Name = ZINC45470515
REMARK  7 active torsions:
REMARK  status: ('A' for Active; 'I' for Inactive)
REMARK    1  A    between atoms: C_1  and  C_2
REMARK    2  A    between atoms: C_15  and  C_17
REMARK    3  A    between atoms: C_17  and  N_18
REMARK    4  A    between atoms: N_18  and  C_19
REMARK    5  A    between atoms: N_18  and  C_25
REMARK    6  A    between atoms: C_19  and  C_20
REMARK    7  A    between atoms: C_25  and  C_26
REMARK                            x       y       z     vdW  Elec       q    Type
REMARK                         _______ _______ _______ _____ _____    ______ ____
ROOT
ATOM      1  C   UNL     1       0.637   1.510  -0.910  0.00  0.00    +0.029 C 
ATOM      2  C   UNL     1       0.492  -0.003  -0.734  0.00  0.00    +0.087 C 
ATOM      3  C   UNL     1      -0.988  -0.383  -0.799  0.00  0.00    +0.118 C 
ATOM      4  C   UNL     1      -1.192  -1.768  -0.244  0.00  0.00    +0.219 C 
ATOM      5  O   UNL     1      -1.388  -2.697  -1.000  0.00  0.00    -0.275 OA
ATOM      6  N   UNL     1      -1.157  -1.983   1.089  0.00  0.00    -0.284 N 
ATOM      7  C   UNL     1      -0.836  -0.942   1.967  0.00  0.00    +0.055 A 
ATOM      8  C   UNL     1      -1.625  -0.678   3.075  0.00  0.00    +0.025 A 
ATOM      9  C   UNL     1      -1.275   0.341   3.942  0.00  0.00    +0.002 A 
ATOM     10  C   UNL     1      -0.140   1.096   3.708  0.00  0.00    +0.002 A 
ATOM     11  C   UNL     1       0.647   0.845   2.599  0.00  0.00    +0.025 A 
ATOM     12  C   UNL     1       0.297  -0.167   1.720  0.00  0.00    +0.058 A 
ATOM     13  N   UNL     1       1.049  -0.398   0.561  0.00  0.00    -0.268 N 
ATOM     14  C   UNL     1       2.266  -0.973   0.639  0.00  0.00    +0.204 C 
ATOM     15  O   UNL     1       2.910  -1.168  -0.370  0.00  0.00    -0.277 OA
ATOM     16  H   UNL     1      -1.356  -2.865   1.440  0.00  0.00    +0.155 HD
ENDROOT
BRANCH  14  17
ATOM     17  C   UNL     1       2.826  -1.373   1.980  0.00  0.00    +0.020 C 
BRANCH  17  18
ATOM     18  N   UNL     1       4.154  -1.973   1.796  0.00  0.00    +0.390 N 
ATOM     19  H   UNL     1       4.090  -2.739   1.142  0.00  0.00    -0.081 HD
BRANCH  18  20
ATOM     20  C   UNL     1       4.649  -2.472   3.086  0.00  0.00    -0.035 C 
BRANCH  20  21
ATOM     21  C   UNL     1       3.771  -3.602   3.558  0.00  0.00    -0.027 A 
ATOM     22  C   UNL     1       3.829  -4.918   3.239  0.00  0.00    +0.009 A 
ATOM     23  C   UNL     1       2.910  -5.785   3.799  0.00  0.00    +0.008 A 
ATOM     24  C   UNL     1       1.977  -5.294   4.651  0.00  0.00    +0.045 A 
ATOM     25  S   UNL     1       2.389  -3.557   4.687  0.00  0.00    -0.103 S 
ENDBRANCH  20  21
ENDBRANCH  18  20
BRANCH  18  26
ATOM     26  C   UNL     1       5.081  -0.960   1.275  0.00  0.00    -0.046 C 
BRANCH  26  27
ATOM     27  C   UNL     1       6.424  -1.617   0.948  0.00  0.00    +0.102 C 
ATOM     28  C   UNL     1       7.389  -0.568   0.355  0.00  0.00    +0.032 C 
ATOM     29  C   UNL     1       8.113  -1.377  -0.756  0.00  0.00    +0.030 C 
ATOM     30  C   UNL     1       6.972  -2.313  -1.228  0.00  0.00    +0.160 C 
ATOM     31  O   UNL     1       6.237  -2.641  -0.036  0.00  0.00    -0.378 OA
ENDBRANCH  26  27
ENDBRANCH  18  26
ENDBRANCH  17  18
ENDBRANCH  14  17
TORSDOF 6
