REMARK  Name = ZINC10651369
REMARK  4 active torsions:
REMARK  status: ('A' for Active; 'I' for Inactive)
REMARK    1  A    between atoms: C_1  and  C_2
REMARK    2  A    between atoms: C_2  and  N_3
REMARK    3  A    between atoms: C_13  and  C_15
REMARK    4  A    between atoms: C_15  and  C_16
REMARK                            x       y       z     vdW  Elec       q    Type
REMARK                         _______ _______ _______ _____ _____    ______ ____
ROOT
ATOM      1  N   UNL     1      -0.020   1.094   2.454  0.00  0.00    -0.312 N 
ATOM      2  C   UNL     1      -0.258  -0.094   3.123  0.00  0.00    +0.070 A 
ATOM      3  C   UNL     1      -1.149  -1.141   2.939  0.00  0.00    +0.028 A 
ATOM      4  C   UNL     1      -1.136  -2.215   3.804  0.00  0.00    +0.002 A 
ATOM      5  C   UNL     1      -0.235  -2.256   4.859  0.00  0.00    +0.002 A 
ATOM      6  C   UNL     1       0.661  -1.230   5.053  0.00  0.00    +0.030 A 
ATOM      7  C   UNL     1       0.658  -0.132   4.188  0.00  0.00    +0.091 A 
ATOM      8  N   UNL     1       1.390   1.011   4.126  0.00  0.00    -0.214 NA
ATOM      9  C   UNL     1       0.993   1.732   3.109  0.00  0.00    +0.203 A 
ATOM     10  N   UNL     1       1.524   2.959   2.750  0.00  0.00    -0.256 N 
ATOM     11  C   UNL     1       2.527   3.497   3.471  0.00  0.00    +0.224 C 
ATOM     12  O   UNL     1       2.965   2.906   4.435  0.00  0.00    -0.275 OA
ATOM     13  H   UNL     1       1.173   3.432   1.978  0.00  0.00    +0.158 HD
ENDROOT
BRANCH   1  15
ATOM     14  C   UNL     1      -0.013   1.086   0.008  0.00  0.00    +0.027 C 
ATOM     15  C   UNL     1      -0.729   1.579   1.267  0.00  0.00    +0.122 C 
ENDBRANCH   1  15
BRANCH  11  16
ATOM     16  C   UNL     1       3.104   4.833   3.080  0.00  0.00    +0.132 C 
BRANCH  16  17
ATOM     17  C   UNL     1       4.203   5.206   4.042  0.00  0.00    -0.031 A 
ATOM     18  C   UNL     1       3.935   6.002   5.113  0.00  0.00    +0.005 A 
ATOM     19  C   UNL     1       4.938   6.357   6.012  0.00  0.00    +0.001 A 
ATOM     20  C   UNL     1       6.216   5.918   5.846  0.00  0.00    +0.008 A 
ATOM     21  C   UNL     1       6.531   5.095   4.752  0.00  0.00    -0.018 A 
ATOM     22  C   UNL     1       5.509   4.729   3.840  0.00  0.00    -0.014 A 
ATOM     23  C   UNL     1       5.826   3.909   2.743  0.00  0.00    +0.009 A 
ATOM     24  C   UNL     1       7.104   3.471   2.577  0.00  0.00    +0.001 A 
ATOM     25  C   UNL     1       8.107   3.827   3.476  0.00  0.00    +0.001 A 
ATOM     26  C   UNL     1       7.839   4.623   4.547  0.00  0.00    +0.008 A 
ENDBRANCH  16  17
ENDBRANCH  11  16
TORSDOF 3
