REMARK  Name = ZINC65314172
REMARK  11 active torsions:
REMARK  status: ('A' for Active; 'I' for Inactive)
REMARK    1  A    between atoms: C_1  and  C_2
REMARK    2  A    between atoms: C_2  and  N_3
REMARK    3  A    between atoms: N_3  and  C_4
REMARK    4  A    between atoms: N_3  and  C_30
REMARK    5  A    between atoms: C_4  and  C_5
REMARK    6  A    between atoms: C_5  and  N_6
REMARK    7  A    between atoms: C_7  and  C_9
REMARK    8  A    between atoms: N_14  and  C_16
REMARK    9  A    between atoms: N_20  and  C_23
REMARK   10  A    between atoms: C_23  and  C_24
REMARK   11  A    between atoms: C_30  and  C_31
REMARK                            x       y       z     vdW  Elec       q    Type
REMARK                         _______ _______ _______ _____ _____    ______ ____
ROOT
ATOM      1  C   UNL     1      -3.243   3.823  -3.880  0.00  0.00    +0.092 C 
ATOM      2  C   UNL     1      -4.698   3.350  -3.940  0.00  0.00    +0.016 C 
ATOM      3  C   UNL     1      -5.325   3.791  -5.265  0.00  0.00    +0.020 C 
ATOM      4  C   UNL     1      -5.310   5.321  -5.348  0.00  0.00    +0.105 C 
ATOM      5  N   UNL     1      -3.933   5.792  -5.146  0.00  0.00    -0.328 N 
ATOM      6  C   UNL     1      -3.204   5.353  -3.948  0.00  0.00    +0.118 C 
ENDROOT
BRANCH   5   7
ATOM      7  C   UNL     1      -3.333   6.633  -6.067  0.00  0.00    +0.055 A 
ATOM      8  C   UNL     1      -1.996   6.963  -5.943  0.00  0.00    +0.096 A 
ATOM      9  C   UNL     1      -1.416   7.817  -6.891  0.00  0.00    +0.269 A 
ATOM     10  O   UNL     1      -0.237   8.123  -6.802  0.00  0.00    -0.266 OA
ATOM     11  N   UNL     1      -2.167   8.299  -7.900  0.00  0.00    -0.225 N 
ATOM     12  N   UNL     1      -3.518   7.954  -8.009  0.00  0.00    -0.174 NA
ATOM     13  C   UNL     1      -4.080   7.157  -7.144  0.00  0.00    +0.156 A 
BRANCH  11  14
ATOM     14  C   UNL     1      -1.563   9.192  -8.892  0.00  0.00    +0.182 C 
BRANCH  14  15
ATOM     15  C   UNL     1      -1.005   8.376 -10.029  0.00  0.00    -0.026 A 
ATOM     16  C   UNL     1       0.299   7.920  -9.978  0.00  0.00    +0.005 A 
ATOM     17  C   UNL     1       0.811   7.171 -11.021  0.00  0.00    +0.000 A 
ATOM     18  C   UNL     1       0.019   6.877 -12.115  0.00  0.00    +0.000 A 
ATOM     19  C   UNL     1      -1.285   7.332 -12.166  0.00  0.00    +0.000 A 
ATOM     20  C   UNL     1      -1.798   8.077 -11.121  0.00  0.00    +0.005 A 
ENDBRANCH  14  15
ENDBRANCH  11  14
ENDBRANCH   5   7
BRANCH   1  22
ATOM     21  N   UNL     1      -2.542   2.044  -2.311  0.00  0.00    -0.317 N 
ATOM     22  C   UNL     1      -2.617   3.361  -2.590  0.00  0.00    +0.218 C 
ATOM     23  O   UNL     1      -2.181   4.173  -1.802  0.00  0.00    -0.275 OA
ATOM     24  H   UNL     1      -2.891   1.394  -2.941  0.00  0.00    +0.149 HD
BRANCH  21  25
ATOM     25  C   UNL     1      -1.933   1.595  -1.056  0.00  0.00    +0.085 C 
BRANCH  25  26
ATOM     26  C   UNL     1      -1.974   0.067  -0.989  0.00  0.00    -0.059 C 
BRANCH  26  27
ATOM     27  N   UNL     1      -1.250  -0.390   0.206  0.00  0.00    +0.383 N 
ATOM     28  H   UNL     1      -0.319  -0.002   0.203  0.00  0.00    -0.081 HD
BRANCH  27  30
ATOM     29  C   UNL     1      -0.311  -2.315  -0.981  0.00  0.00    -0.017 C 
ATOM     30  C   UNL     1      -1.171  -1.857   0.199  0.00  0.00    -0.082 C 
ENDBRANCH  27  30
BRANCH  27  31
ATOM     31  C   UNL     1      -1.963   0.057   1.410  0.00  0.00    -0.043 C 
BRANCH  31  32
ATOM     32  C   UNL     1      -1.158  -0.305   2.632  0.00  0.00    -0.064 A 
ATOM     33  C   UNL     1      -1.348  -1.528   3.248  0.00  0.00    +0.002 A 
ATOM     34  C   UNL     1      -0.610  -1.859   4.369  0.00  0.00    +0.000 A 
ATOM     35  C   UNL     1       0.318  -0.968   4.874  0.00  0.00    +0.000 A 
ATOM     36  C   UNL     1       0.508   0.255   4.258  0.00  0.00    +0.000 A 
ATOM     37  C   UNL     1      -0.227   0.585   3.135  0.00  0.00    +0.002 A 
ENDBRANCH  31  32
ENDBRANCH  27  31
ENDBRANCH  26  27
ENDBRANCH  25  26
ENDBRANCH  21  25
ENDBRANCH   1  22
TORSDOF 10
