REMARK  Name = ZINC20755242
REMARK  4 active torsions:
REMARK  status: ('A' for Active; 'I' for Inactive)
REMARK    1  A    between atoms: C_10  and  C_25
REMARK    2  A    between atoms: C_12  and  C_14
REMARK    3  A    between atoms: C_19  and  O_20
REMARK    4  A    between atoms: O_20  and  C_21
REMARK                            x       y       z     vdW  Elec       q    Type
REMARK                         _______ _______ _______ _____ _____    ______ ____
ROOT
ATOM      1  C   UNL     1      -0.016   1.362   0.009  0.00  0.00    +0.002 A 
ATOM      2  C   UNL     1       1.168   2.084   0.002  0.00  0.00    +0.002 A 
ATOM      3  C   UNL     1       2.384   1.434  -0.015  0.00  0.00    +0.028 A 
ATOM      4  C   UNL     1       2.426   0.046  -0.024  0.00  0.00    +0.069 A 
ATOM      5  C   UNL     1       1.222  -0.686  -0.013  0.00  0.00    +0.066 A 
ATOM      6  C   UNL     1       0.002  -0.004   0.002  0.00  0.00    +0.028 A 
ATOM      7  N   UNL     1       1.549  -2.004  -0.019  0.00  0.00    -0.324 N 
ATOM      8  C   UNL     1       2.848  -2.135  -0.032  0.00  0.00    +0.210 A 
ATOM      9  N   UNL     1       3.434  -0.885  -0.045  0.00  0.00    -0.302 N 
ATOM     10  C   UNL     1       4.887  -0.698  -0.082  0.00  0.00    +0.126 C 
ATOM     11  C   UNL     1       5.537  -1.896   0.619  0.00  0.00    +0.086 C 
ATOM     12  C   UNL     1       4.879  -3.183   0.210  0.00  0.00    +0.058 C 
ATOM     13  N   UNL     1       3.602  -3.269  -0.057  0.00  0.00    -0.218 NA
ATOM     14  H   UNL     1       0.914  -2.737  -0.013  0.00  0.00    +0.169 HD
ENDROOT
BRANCH  12  15
ATOM     15  C   UNL     1       5.702  -4.393   0.104  0.00  0.00    +0.038 A 
ATOM     16  C   UNL     1       7.073  -4.339   0.388  0.00  0.00    +0.015 A 
ATOM     17  C   UNL     1       7.839  -5.478   0.287  0.00  0.00    +0.021 A 
ATOM     18  C   UNL     1       7.261  -6.681  -0.093  0.00  0.00    +0.044 A 
ATOM     19  C   UNL     1       5.909  -6.748  -0.377  0.00  0.00    +0.066 A 
ATOM     20  C   UNL     1       5.120  -5.614  -0.276  0.00  0.00    +0.137 A 
ATOM     21 CL   UNL     1       8.240  -8.109  -0.216  0.00  0.00    -0.083 Cl
BRANCH  20  22
ATOM     22  O   UNL     1       3.793  -5.680  -0.548  0.00  0.00    -0.434 OA
BRANCH  22  23
ATOM     23  C   UNL     1       3.271  -6.955  -0.928  0.00  0.00    +0.541 C 
ATOM     24  F   UNL     1       3.916  -7.395  -2.089  0.00  0.00    -0.166 F 
ATOM     25  F   UNL     1       3.490  -7.875   0.104  0.00  0.00    -0.166 F 
ENDBRANCH  22  23
ENDBRANCH  20  22
ENDBRANCH  12  15
BRANCH  10  26
ATOM     26  C   UNL     1       5.256   0.574   0.637  0.00  0.00    -0.024 A 
ATOM     27  C   UNL     1       4.942   0.727   1.975  0.00  0.00    +0.007 A 
ATOM     28  C   UNL     1       5.280   1.894   2.635  0.00  0.00    +0.015 A 
ATOM     29  C   UNL     1       5.933   2.908   1.957  0.00  0.00    +0.018 A 
ATOM     30  C   UNL     1       6.246   2.754   0.618  0.00  0.00    +0.015 A 
ATOM     31  C   UNL     1       5.912   1.585  -0.040  0.00  0.00    +0.007 A 
ATOM     32 BR   UNL     1       6.395   4.504   2.859  0.00  0.00    -0.050 Br
ENDBRANCH  10  26
TORSDOF 4
