REMARK  Name = ZINC12070356
REMARK  10 active torsions:
REMARK  status: ('A' for Active; 'I' for Inactive)
REMARK    1  A    between atoms: C_1  and  C_2
REMARK    2  A    between atoms: C_4  and  C_28
REMARK    3  A    between atoms: N_8  and  C_27
REMARK    4  A    between atoms: N_10  and  C_11
REMARK    5  A    between atoms: C_11  and  C_13
REMARK    6  A    between atoms: C_13  and  C_14
REMARK    7  A    between atoms: C_17  and  S_20
REMARK    8  A    between atoms: S_20  and  C_23
REMARK    9  A    between atoms: C_23  and  C_24
REMARK   10  A    between atoms: C_23  and  C_25
REMARK                            x       y       z     vdW  Elec       q    Type
REMARK                         _______ _______ _______ _____ _____    ______ ____
ROOT
ATOM      1  C   UNL     1       5.615   3.353   0.114  0.00  0.00    +0.243 C 
ATOM      2  O   UNL     1       4.636   4.003   0.427  0.00  0.00    -0.273 OA
ENDROOT
BRANCH   1  12
ATOM      3  C   UNL     1       2.938   0.273   6.697  0.00  0.00    +0.044 C 
ATOM      4  C   UNL     1       3.337  -0.002   5.270  0.00  0.00    -0.048 A 
ATOM      5  C   UNL     1       3.191  -1.280   4.758  0.00  0.00    +0.008 A 
ATOM      6  C   UNL     1       3.553  -1.528   3.446  0.00  0.00    -0.034 A 
ATOM      7  C   UNL     1       4.049  -0.504   2.674  0.00  0.00    +0.042 A 
ATOM      8  C   UNL     1       4.208   0.800   3.165  0.00  0.00    +0.058 A 
ATOM      9  C   UNL     1       3.833   1.023   4.499  0.00  0.00    +0.030 A 
ATOM     10  N   UNL     1       4.720   1.706   2.255  0.00  0.00    -0.324 N 
ATOM     11  C   UNL     1       5.028   1.306   0.993  0.00  0.00    +0.166 A 
ATOM     12  N   UNL     1       5.525   2.032  -0.005  0.00  0.00    -0.156 NA
ATOM     13  S   UNL     1       4.618  -0.379   0.997  0.00  0.00    -0.052 S 
ATOM     14  C   UNL     1       4.930   3.101   2.652  0.00  0.00    +0.151 C 
ATOM     15  C   UNL     1       3.404  -2.911   2.866  0.00  0.00    +0.045 C 
ENDBRANCH   1  12
BRANCH   1  16
ATOM     16  C   UNL     1       6.930   4.045  -0.137  0.00  0.00    +0.133 C 
BRANCH  16  17
ATOM     17  C   UNL     1       6.763   5.529   0.064  0.00  0.00    -0.038 A 
ATOM     18  C   UNL     1       6.406   6.334  -1.001  0.00  0.00    +0.006 A 
ATOM     19  C   UNL     1       6.248   7.695  -0.816  0.00  0.00    +0.027 A 
ATOM     20  C   UNL     1       6.457   8.252   0.432  0.00  0.00    +0.088 A 
ATOM     21  C   UNL     1       6.820   7.447   1.495  0.00  0.00    +0.027 A 
ATOM     22  C   UNL     1       6.973   6.085   1.311  0.00  0.00    +0.006 A 
BRANCH  20  23
ATOM     23  S   UNL     1       6.261   9.987   0.666  0.00  0.00    -0.001 S 
ATOM     24  O   UNL     1       5.345  10.388  -0.343  0.00  0.00    -0.169 OA
ATOM     25  O   UNL     1       5.934  10.132   2.042  0.00  0.00    -0.169 OA
BRANCH  23  26
ATOM     26  C   UNL     1       7.901  10.690   0.337  0.00  0.00    +0.130 C 
ATOM     27  C   UNL     1       7.880  12.191   0.634  0.00  0.00    +0.032 C 
ATOM     28  C   UNL     1       8.937  10.008   1.231  0.00  0.00    +0.032 C 
ENDBRANCH  23  26
ENDBRANCH  20  23
ENDBRANCH  16  17
ENDBRANCH   1  16
TORSDOF 5
