REMARK  Name = ZINC38611529
REMARK  8 active torsions:
REMARK  status: ('A' for Active; 'I' for Inactive)
REMARK    1  A    between atoms: C_1  and  C_2
REMARK    2  A    between atoms: N_7  and  C_9
REMARK    3  A    between atoms: C_9  and  C_11
REMARK    4  A    between atoms: C_9  and  C_12
REMARK    5  A    between atoms: N_14  and  C_15
REMARK    6  A    between atoms: C_23  and  C_25
REMARK    7  A    between atoms: C_25  and  O_27
REMARK    8  A    between atoms: O_27  and  C_28
REMARK                            x       y       z     vdW  Elec       q    Type
REMARK                         _______ _______ _______ _____ _____    ______ ____
ROOT
ATOM      1  C   UNL     1       5.641  -1.714   3.360  0.00  0.00    +0.053 C 
ATOM      2  C   UNL     1       6.937  -1.829   3.831  0.00  0.00    +0.019 A 
ATOM      3  C   UNL     1       7.472  -2.335   5.040  0.00  0.00    +0.031 A 
ATOM      4  C   UNL     1       8.814  -2.323   5.238  0.00  0.00    +0.042 A 
ATOM      5  C   UNL     1       9.693  -1.820   4.274  0.00  0.00    +0.022 A 
ATOM      6  C   UNL     1       9.251  -1.320   3.094  0.00  0.00    +0.027 A 
ATOM      7  C   UNL     1       7.860  -1.299   2.813  0.00  0.00    +0.045 A 
ATOM      8  N   UNL     1       7.189  -0.874   1.761  0.00  0.00    -0.367 N 
ATOM      9  C   UNL     1       5.756  -1.091   1.987  0.00  0.00    +0.234 C 
ATOM     10 CL   UNL     1       9.457  -2.946   6.726  0.00  0.00    -0.084 Cl
ATOM     11  H   UNL     1       7.581  -0.484   0.964  0.00  0.00    +0.161 HD
ENDROOT
BRANCH   1  14
ATOM     12  C   UNL     1       3.311  -2.004   3.364  0.00  0.00    +0.203 C 
ATOM     13  O   UNL     1       3.270  -1.675   2.198  0.00  0.00    -0.277 OA
ATOM     14  N   UNL     1       4.497  -2.090   3.999  0.00  0.00    -0.288 N 
ATOM     15  H   UNL     1       4.536  -2.419   4.910  0.00  0.00    +0.155 HD
BRANCH  12  16
ATOM     16  C   UNL     1       2.036  -2.317   4.104  0.00  0.00    +0.016 C 
ATOM     17  C   UNL     1       2.027  -3.794   4.503  0.00  0.00    -0.004 C 
BRANCH  16  23
ATOM     18  C   UNL     1      -2.839  -1.896   3.952  0.00  0.00    +0.005 C 
ATOM     19  C   UNL     1      -1.550  -1.778   3.136  0.00  0.00    -0.031 C 
ATOM     20  C   UNL     1      -1.612  -2.734   1.941  0.00  0.00    -0.001 C 
ATOM     21  C   UNL     1      -0.287  -2.667   1.177  0.00  0.00    -0.018 C 
ATOM     22  C   UNL     1       0.863  -3.002   2.129  0.00  0.00    -0.078 C 
ATOM     23  N   UNL     1       0.885  -2.038   3.235  0.00  0.00    +0.387 N 
ATOM     24  C   UNL     1      -0.353  -2.146   4.016  0.00  0.00    -0.075 C 
ATOM     25  H   UNL     1       0.965  -1.103   2.863  0.00  0.00    -0.081 HD
ENDBRANCH  16  23
ENDBRANCH  12  16
ENDBRANCH   1  14
BRANCH   9  26
ATOM     26  C   UNL     1       5.023   0.225   1.950  0.00  0.00    +0.335 C 
ATOM     27  O   UNL     1       5.540   1.217   2.407  0.00  0.00    -0.248 OA
BRANCH  26  28
ATOM     28  O   UNL     1       3.796   0.295   1.411  0.00  0.00    -0.466 OA
ATOM     29  C   UNL     1       3.160   1.574   1.410  0.00  0.00    +0.280 C 
ENDBRANCH  26  28
ENDBRANCH   9  26
TORSDOF 5
