REMARK  Name = ZINC63141884
REMARK  6 active torsions:
REMARK  status: ('A' for Active; 'I' for Inactive)
REMARK    1  A    between atoms: C_4  and  C_7
REMARK    2  A    between atoms: C_7  and  C_8
REMARK    3  A    between atoms: C_8  and  C_9
REMARK    4  A    between atoms: C_9  and  N_10
REMARK    5  A    between atoms: C_30  and  C_32
REMARK    6  A    between atoms: C_36  and  N_38
REMARK                            x       y       z     vdW  Elec       q    Type
REMARK                         _______ _______ _______ _____ _____    ______ ____
ROOT
ATOM      1  N   UNL     1       5.947  -1.955   2.757  0.00  0.00    -0.291 N 
ATOM      2  C   UNL     1       6.788  -0.987   3.484  0.00  0.00    +0.203 C 
ATOM      3  C   UNL     1       6.218  -0.805   4.875  0.00  0.00    +0.234 C 
ATOM      4  O   UNL     1       6.108   0.293   5.378  0.00  0.00    -0.274 OA
ATOM      5  N   UNL     1       5.829  -1.943   5.541  0.00  0.00    -0.279 N 
ATOM      6  C   UNL     1       6.093  -3.188   4.851  0.00  0.00    +0.167 C 
ATOM      7  C   UNL     1       5.595  -3.090   3.431  0.00  0.00    +0.237 C 
ATOM      8  O   UNL     1       4.928  -3.965   2.919  0.00  0.00    -0.274 OA
ATOM      9  C   UNL     1       5.680  -4.475   5.515  0.00  0.00    +0.065 C 
ATOM     10  C   UNL     1       4.838  -4.179   6.726  0.00  0.00    -0.034 C 
ATOM     11  C   UNL     1       3.744  -4.750   7.210  0.00  0.00    -0.001 A 
ATOM     12  C   UNL     1       2.969  -5.920   6.765  0.00  0.00    +0.010 A 
ATOM     13  C   UNL     1       1.872  -6.230   7.504  0.00  0.00    +0.001 A 
ATOM     14  C   UNL     1       1.472  -5.503   8.630  0.00  0.00    +0.002 A 
ATOM     15  C   UNL     1       2.126  -4.417   9.113  0.00  0.00    +0.026 A 
ATOM     16  C   UNL     1       3.299  -3.996   8.421  0.00  0.00    +0.043 A 
ATOM     17  N   UNL     1       4.111  -3.012   8.667  0.00  0.00    -0.375 N 
ATOM     18  C   UNL     1       5.187  -3.028   7.667  0.00  0.00    +0.131 C 
ATOM     19  C   UNL     1       5.163  -1.763   6.823  0.00  0.00    +0.133 C 
ATOM     20  H   UNL     1       4.022  -2.373   9.391  0.00  0.00    +0.160 HD
ENDROOT
BRANCH  19  21
ATOM     21  C   UNL     1       3.719  -1.409   6.579  0.00  0.00    -0.023 A 
ATOM     22  C   UNL     1       3.011  -2.044   5.575  0.00  0.00    +0.005 A 
ATOM     23  C   UNL     1       1.686  -1.719   5.352  0.00  0.00    +0.003 A 
ATOM     24  C   UNL     1       1.068  -0.760   6.133  0.00  0.00    +0.033 A 
ATOM     25  C   UNL     1       1.775  -0.127   7.138  0.00  0.00    +0.127 A 
ATOM     26  C   UNL     1       3.099  -0.455   7.364  0.00  0.00    +0.038 A 
BRANCH  25  27
ATOM     27  N   UNL     1       1.114   0.900   7.974  0.00  0.00    +0.056 N 
ATOM     28  O   UNL     1      -0.045   1.184   7.778  0.00  0.00    -0.126 OA
ATOM     29  O   UNL     1       1.732   1.454   8.853  0.00  0.00    -0.126 OA
ENDBRANCH  25  27
ENDBRANCH  19  21
BRANCH   1  30
ATOM     30  C   UNL     1       5.507  -1.710   1.381  0.00  0.00    +0.108 C 
BRANCH  30  31
ATOM     31  C   UNL     1       4.171  -0.963   1.399  0.00  0.00    +0.024 C 
BRANCH  31  32
ATOM     32  C   UNL     1       3.711  -0.707  -0.038  0.00  0.00    +0.036 C 
BRANCH  32  36
ATOM     33  C   UNL     1      -0.017   1.378   0.010  0.00  0.00    +0.000 A 
ATOM     34  C   UNL     1       1.171   2.086   0.002  0.00  0.00    +0.000 A 
ATOM     35  C   UNL     1       2.377   1.411  -0.013  0.00  0.00    +0.003 A 
ATOM     36  C   UNL     1       2.396   0.029  -0.020  0.00  0.00    -0.047 A 
ATOM     37  C   UNL     1       1.208  -0.679  -0.012  0.00  0.00    +0.003 A 
ATOM     38  C   UNL     1       0.002  -0.004   0.002  0.00  0.00    +0.000 A 
ENDBRANCH  32  36
ENDBRANCH  31  32
ENDBRANCH  30  31
ENDBRANCH   1  30
TORSDOF 6
