REMARK  Name = ZINC02084581
REMARK  10 active torsions:
REMARK  status: ('A' for Active; 'I' for Inactive)
REMARK    1  A    between atoms: C_1  and  C_2
REMARK    2  A    between atoms: C_2  and  C_3
REMARK    3  A    between atoms: C_3  and  C_4
REMARK    4  A    between atoms: C_4  and  C_5
REMARK    5  A    between atoms: C_5  and  S_6
REMARK    6  A    between atoms: S_6  and  C_7
REMARK    7  A    between atoms: C_20  and  C_23
REMARK    8  A    between atoms: C_25  and  O_31
REMARK    9  A    between atoms: C_26  and  O_30
REMARK   10  A    between atoms: O_31  and  C_32
REMARK                            x       y       z     vdW  Elec       q    Type
REMARK                         _______ _______ _______ _____ _____    ______ ____
ROOT
ATOM      1  C   UNL     1      -0.869   1.670   6.497  0.00  0.00    +0.212 A 
ATOM      2  N   UNL     1      -0.558   1.453   7.771  0.00  0.00    -0.184 NA
ATOM      3  C   UNL     1      -1.308   1.987   8.720  0.00  0.00    +0.248 A 
ATOM      4  C   UNL     1      -2.417   2.778   8.344  0.00  0.00    +0.156 A 
ATOM      5  N   UNL     1      -2.674   2.952   7.057  0.00  0.00    -0.141 NA
ATOM      6  N   UNL     1      -1.915   2.416   6.165  0.00  0.00    -0.122 NA
ATOM      7  C   UNL     1      -3.262   3.394   9.389  0.00  0.00    +0.028 A 
ATOM      8  C   UNL     1      -4.649   3.323   9.338  0.00  0.00    +0.012 A 
ATOM      9  C   UNL     1      -5.403   3.940  10.317  0.00  0.00    +0.001 A 
ATOM     10  C   UNL     1      -4.786   4.627  11.349  0.00  0.00    +0.002 A 
ATOM     11  C   UNL     1      -3.407   4.699  11.415  0.00  0.00    +0.024 A 
ATOM     12  C   UNL     1      -2.638   4.082  10.446  0.00  0.00    +0.039 A 
ATOM     13  N   UNL     1      -1.241   4.122  10.489  0.00  0.00    -0.305 N 
ATOM     14  C   UNL     1      -0.511   2.888  10.766  0.00  0.00    +0.294 C 
ATOM     15  O   UNL     1      -1.035   1.788  10.031  0.00  0.00    -0.449 OA
ATOM     16  H   UNL     1      -0.765   4.954  10.339  0.00  0.00    +0.150 HD
ENDROOT
BRANCH  14  17
ATOM     17  C   UNL     1      -0.602   2.584  12.239  0.00  0.00    +0.016 A 
ATOM     18  C   UNL     1      -0.722   1.274  12.666  0.00  0.00    +0.058 A 
ATOM     19  C   UNL     1      -0.800   0.991  14.020  0.00  0.00    +0.163 A 
ATOM     20  C   UNL     1      -0.769   2.028  14.948  0.00  0.00    +0.173 A 
ATOM     21  C   UNL     1      -0.654   3.339  14.513  0.00  0.00    +0.063 A 
ATOM     22  C   UNL     1      -0.571   3.614  13.159  0.00  0.00    +0.028 A 
ATOM     23 BR   UNL     1      -0.611   4.752  15.769  0.00  0.00    -0.046 Br
BRANCH  20  24
ATOM     24  O   UNL     1      -0.852   1.756  16.278  0.00  0.00    -0.503 OA
ATOM     25  H   UNL     1      -1.756   1.741  16.621  0.00  0.00    +0.292 HD
ENDBRANCH  20  24
BRANCH  19  26
ATOM     26  O   UNL     1      -0.912  -0.297  14.442  0.00  0.00    -0.491 OA
ATOM     27  C   UNL     1      -0.938  -1.310  13.434  0.00  0.00    +0.277 C 
ENDBRANCH  19  26
ENDBRANCH  14  17
BRANCH   1  28
ATOM     28  S   UNL     1       0.128   0.962   5.228  0.00  0.00    -0.084 S 
BRANCH  28  29
ATOM     29  C   UNL     1      -0.743   1.575   3.765  0.00  0.00    +0.077 C 
BRANCH  29  30
ATOM     30  C   UNL     1      -0.038   1.073   2.503  0.00  0.00    +0.011 C 
BRANCH  30  31
ATOM     31  C   UNL     1      -0.774   1.591   1.266  0.00  0.00    +0.001 C 
BRANCH  31  33
ATOM     32  C   UNL     1      -0.805   1.607  -1.232  0.00  0.00    +0.004 C 
ATOM     33  C   UNL     1      -0.069   1.089   0.005  0.00  0.00    -0.003 C 
ENDBRANCH  31  33
ENDBRANCH  30  31
ENDBRANCH  29  30
ENDBRANCH  28  29
ENDBRANCH   1  28
TORSDOF 8
