REMARK  Name = ZINC00724338
REMARK  11 active torsions:
REMARK  status: ('A' for Active; 'I' for Inactive)
REMARK    1  A    between atoms: C_1  and  C_2
REMARK    2  A    between atoms: C_2  and  C_3
REMARK    3  A    between atoms: C_3  and  C_4
REMARK    4  A    between atoms: N_6  and  C_7
REMARK    5  A    between atoms: C_7  and  N_9
REMARK    6  A    between atoms: N_9  and  C_10
REMARK    7  A    between atoms: C_17  and  C_19
REMARK    8  A    between atoms: C_22  and  C_25
REMARK    9  A    between atoms: C_25  and  C_26
REMARK   10  A    between atoms: C_25  and  C_27
REMARK   11  A    between atoms: C_25  and  C_28
REMARK                            x       y       z     vdW  Elec       q    Type
REMARK                         _______ _______ _______ _____ _____    ______ ____
ROOT
ATOM      1  C   UNL     1      -6.698  -0.645   0.037  0.00  0.00    +0.035 A 
ATOM      2  C   UNL     1      -5.985  -1.814   0.296  0.00  0.00    +0.027 A 
ATOM      3  C   UNL     1      -4.606  -1.805   0.299  0.00  0.00    +0.050 A 
ATOM      4  C   UNL     1      -3.920  -0.627   0.043  0.00  0.00    +0.156 A 
ATOM      5  C   UNL     1      -4.632   0.555  -0.220  0.00  0.00    +0.112 A 
ATOM      6  C   UNL     1      -6.028   0.537  -0.220  0.00  0.00    +0.054 A 
ATOM      7  N   UNL     1      -3.708   1.528  -0.425  0.00  0.00    -0.209 NA
ATOM      8  C   UNL     1      -2.513   1.006  -0.311  0.00  0.00    +0.228 A 
ATOM      9  O   UNL     1      -2.608  -0.306  -0.024  0.00  0.00    -0.435 OA
ENDROOT
BRANCH   8  10
ATOM     10  C   UNL     1      -1.245   1.749  -0.470  0.00  0.00    +0.037 A 
ATOM     11  C   UNL     1      -0.024   1.090  -0.321  0.00  0.00    +0.013 A 
ATOM     12  C   UNL     1       1.157   1.788  -0.475  0.00  0.00    +0.005 A 
ATOM     13  C   UNL     1       1.131   3.139  -0.773  0.00  0.00    -0.042 A 
ATOM     14  C   UNL     1      -0.076   3.799  -0.917  0.00  0.00    +0.005 A 
ATOM     15  C   UNL     1      -1.264   3.113  -0.763  0.00  0.00    +0.013 A 
BRANCH  13  16
ATOM     16  C   UNL     1       2.424   3.894  -0.941  0.00  0.00    -0.013 C 
ATOM     17  C   UNL     1       3.230   3.277  -2.086  0.00  0.00    +0.015 C 
ATOM     18  C   UNL     1       2.120   5.359  -1.263  0.00  0.00    +0.015 C 
ATOM     19  C   UNL     1       3.234   3.814   0.354  0.00  0.00    +0.015 C 
ENDBRANCH  13  16
ENDBRANCH   8  10
BRANCH   1  20
ATOM     20  N   UNL     1      -8.098  -0.668   0.037  0.00  0.00    -0.297 N 
ATOM     21  H   UNL     1      -8.575  -1.165   0.720  0.00  0.00    +0.154 HD
BRANCH  20  22
ATOM     22  C   UNL     1      -8.783  -0.001  -0.912  0.00  0.00    +0.141 C 
ATOM     23  S   UNL     1      -7.945   0.757  -2.199  0.00  0.00    -0.018 S 
BRANCH  22  26
ATOM     24  C   UNL     1     -10.812   0.739  -1.799  0.00  0.00    +0.218 C 
ATOM     25  O   UNL     1     -10.219   1.275  -2.710  0.00  0.00    -0.275 OA
ATOM     26  N   UNL     1     -10.127   0.071  -0.849  0.00  0.00    -0.268 N 
ATOM     27  H   UNL     1     -10.602  -0.359  -0.121  0.00  0.00    +0.156 HD
BRANCH  24  28
ATOM     28  C   UNL     1     -12.315   0.818  -1.728  0.00  0.00    +0.096 C 
BRANCH  28  30
ATOM     29  C   UNL     1     -14.366   1.707  -2.845  0.00  0.00    +0.004 C 
ATOM     30  C   UNL     1     -12.839   1.627  -2.917  0.00  0.00    +0.006 C 
ENDBRANCH  28  30
ENDBRANCH  24  28
ENDBRANCH  22  26
ENDBRANCH  20  22
ENDBRANCH   1  20
TORSDOF 7
