REMARK  Name = ZINC15858868
REMARK  8 active torsions:
REMARK  status: ('A' for Active; 'I' for Inactive)
REMARK    1  A    between atoms: C_1  and  C_2
REMARK    2  A    between atoms: C_9  and  C_32
REMARK    3  A    between atoms: C_13  and  C_16
REMARK    4  A    between atoms: C_20  and  O_23
REMARK    5  A    between atoms: C_21  and  O_22
REMARK    6  A    between atoms: N_24  and  C_31
REMARK    7  A    between atoms: N_27  and  C_30
REMARK    8  A    between atoms: C_37  and  C_38
REMARK                            x       y       z     vdW  Elec       q    Type
REMARK                         _______ _______ _______ _____ _____    ______ ____
ROOT
ATOM      1  C   UNL     1       3.667  -1.326   0.049  0.00  0.00    +0.044 C 
ATOM      2  C   UNL     1       3.385   0.123   0.354  0.00  0.00    -0.048 A 
ATOM      3  C   UNL     1       4.406   0.952   0.781  0.00  0.00    +0.007 A 
ATOM      4  C   UNL     1       4.156   2.279   1.074  0.00  0.00    +0.048 A 
ATOM      5  C   UNL     1       2.874   2.791   0.940  0.00  0.00    +0.146 A 
ATOM      6  C   UNL     1       1.852   1.953   0.487  0.00  0.00    +0.089 A 
ATOM      7  C   UNL     1       2.104   0.624   0.206  0.00  0.00    +0.033 A 
ATOM      8  N   UNL     1       0.576   2.513   0.327  0.00  0.00    -0.303 N 
ATOM      9  C   UNL     1      -0.620   1.908   0.121  0.00  0.00    +0.069 A 
ATOM     10  C   UNL     1      -1.570   2.895   0.017  0.00  0.00    +0.089 A 
ATOM     11  C   UNL     1      -0.857   4.188   0.180  0.00  0.00    +0.084 A 
ATOM     12  C   UNL     1       0.422   3.895   0.350  0.00  0.00    +0.094 A 
ATOM     13  C   UNL     1       1.617   4.803   0.532  0.00  0.00    +0.256 C 
ATOM     14  O   UNL     1       2.624   4.088   1.253  0.00  0.00    -0.476 OA
ATOM     15  N   UNL     1      -1.597   5.378   0.123  0.00  0.00    -0.294 N 
ATOM     16  C   UNL     1      -2.927   5.271  -0.091  0.00  0.00    +0.332 A 
ATOM     17  O   UNL     1      -3.567   6.303  -0.144  0.00  0.00    -0.246 OA
ATOM     18  N   UNL     1      -3.600   4.126  -0.239  0.00  0.00    -0.263 N 
ATOM     19  C   UNL     1      -3.020   2.899  -0.201  0.00  0.00    +0.266 A 
ATOM     20  O   UNL     1      -3.659   1.873  -0.339  0.00  0.00    -0.267 OA
ATOM     21  C   UNL     1      -5.047   4.199  -0.457  0.00  0.00    +0.157 C 
ATOM     22  C   UNL     1      -0.952   6.685   0.274  0.00  0.00    +0.154 C 
ENDROOT
BRANCH   9  23
ATOM     23  C   UNL     1      -0.857   0.455   0.022  0.00  0.00    +0.003 A 
ATOM     24  C   UNL     1      -1.143  -0.290   1.169  0.00  0.00    +0.010 A 
ATOM     25  C   UNL     1      -1.369  -1.647   1.067  0.00  0.00    +0.001 A 
ATOM     26  C   UNL     1      -1.302  -2.272  -0.166  0.00  0.00    +0.000 A 
ATOM     27  C   UNL     1      -1.015  -1.542  -1.305  0.00  0.00    +0.004 A 
ATOM     28  C   UNL     1      -0.792  -0.183  -1.219  0.00  0.00    -0.041 A 
ATOM     29  C   UNL     1      -0.479   0.611  -2.461  0.00  0.00    +0.044 C 
ENDBRANCH   9  23
BRANCH  13  30
ATOM     30  C   UNL     1       2.153   5.211  -0.816  0.00  0.00    +0.044 A 
ATOM     31  C   UNL     1       2.726   4.266  -1.648  0.00  0.00    +0.011 A 
ATOM     32  C   UNL     1       3.214   4.636  -2.887  0.00  0.00    +0.004 A 
ATOM     33  C   UNL     1       3.141   5.955  -3.296  0.00  0.00    +0.049 A 
ATOM     34  C   UNL     1       2.573   6.908  -2.466  0.00  0.00    +0.159 A 
ATOM     35  C   UNL     1       2.077   6.534  -1.220  0.00  0.00    +0.165 A 
BRANCH  35  36
ATOM     36  O   UNL     1       1.519   7.466  -0.402  0.00  0.00    -0.503 OA
ATOM     37  H   UNL     1       2.148   7.891   0.197  0.00  0.00    +0.292 HD
ENDBRANCH  35  36
BRANCH  34  38
ATOM     38  O   UNL     1       2.500   8.205  -2.867  0.00  0.00    -0.503 OA
ATOM     39  H   UNL     1       3.270   8.737  -2.622  0.00  0.00    +0.292 HD
ENDBRANCH  34  38
ENDBRANCH  13  30
TORSDOF 4
