REMARK  Name = ZINC07380372
REMARK  5 active torsions:
REMARK  status: ('A' for Active; 'I' for Inactive)
REMARK    1  A    between atoms: C_1  and  C_2
REMARK    2  A    between atoms: C_10  and  C_11
REMARK    3  A    between atoms: N_13  and  N_14
REMARK    4  A    between atoms: N_14  and  S_15
REMARK    5  A    between atoms: S_15  and  C_18
REMARK                            x       y       z     vdW  Elec       q    Type
REMARK                         _______ _______ _______ _____ _____    ______ ____
ROOT
ATOM      1  C   UNL     1       5.682   0.185  -3.149  0.00  0.00    +0.294 C 
ATOM      2  O   UNL     1       6.568  -0.640  -3.027  0.00  0.00    -0.265 OA
ATOM      3  N   UNL     1       4.527   0.038  -2.471  0.00  0.00    -0.225 N 
ATOM      4  H   UNL     1       3.821   0.696  -2.568  0.00  0.00    +0.171 HD
ENDROOT
BRANCH   1  14
ATOM      5  C   UNL     1       8.248   0.763  -4.809  0.00  0.00    +0.048 C 
ATOM      6  C   UNL     1       6.992   1.595  -4.761  0.00  0.00    +0.008 A 
ATOM      7  C   UNL     1       6.732   2.837  -5.487  0.00  0.00    +0.024 A 
ATOM      8  C   UNL     1       7.469   3.612  -6.386  0.00  0.00    +0.012 A 
ATOM      9  C   UNL     1       6.926   4.756  -6.898  0.00  0.00    +0.001 A 
ATOM     10  C   UNL     1       5.647   5.153  -6.530  0.00  0.00    +0.004 A 
ATOM     11  C   UNL     1       4.904   4.403  -5.644  0.00  0.00    +0.047 A 
ATOM     12  C   UNL     1       5.436   3.235  -5.111  0.00  0.00    +0.136 A 
ATOM     13  O   UNL     1       4.963   2.316  -4.246  0.00  0.00    -0.450 OA
ATOM     14  C   UNL     1       5.873   1.342  -4.035  0.00  0.00    +0.195 A 
ENDBRANCH   1  14
BRANCH   3  15
ATOM     15  N   UNL     1       4.345  -1.065  -1.627  0.00  0.00    -0.108 NA
ATOM     16  H   UNL     1       4.461  -1.964  -1.971  0.00  0.00    +0.172 HD
BRANCH  15  17
ATOM     17  S   UNL     1       3.933  -0.834  -0.039  0.00  0.00    +0.074 S 
ATOM     18  O   UNL     1       4.902   0.051   0.507  0.00  0.00    -0.152 OA
ATOM     19  O   UNL     1       3.683  -2.121   0.507  0.00  0.00    -0.152 OA
BRANCH  17  20
ATOM     20  C   UNL     1       2.397   0.028  -0.021  0.00  0.00    +0.108 A 
ATOM     21  C   UNL     1       1.208  -0.678  -0.013  0.00  0.00    +0.031 A 
ATOM     22  C   UNL     1       0.002  -0.004   0.002  0.00  0.00    +0.042 A 
ATOM     23  C   UNL     1      -0.017   1.380   0.010  0.00  0.00    +0.142 A 
ATOM     24  C   UNL     1       1.174   2.088   0.002  0.00  0.00    +0.078 A 
ATOM     25  C   UNL     1       2.380   1.410  -0.013  0.00  0.00    +0.051 A 
ATOM     26 CL   UNL     1       1.153   3.824   0.011  0.00  0.00    -0.081 Cl
ATOM     27  F   UNL     1      -1.195   2.040   0.019  0.00  0.00    -0.204 F 
ENDBRANCH  17  20
ENDBRANCH  15  17
ENDBRANCH   3  15
TORSDOF 4
