REMARK  Name = ZINC32944468
REMARK  13 active torsions:
REMARK  status: ('A' for Active; 'I' for Inactive)
REMARK    1  A    between atoms: C_1  and  C_2
REMARK    2  A    between atoms: C_5  and  C_8
REMARK    3  A    between atoms: C_8  and  C_10
REMARK    4  A    between atoms: C_10  and  S_11
REMARK    5  A    between atoms: S_11  and  C_12
REMARK    6  A    between atoms: C_16  and  C_27
REMARK    7  A    between atoms: N_22  and  C_23
REMARK    8  A    between atoms: C_23  and  C_24
REMARK    9  A    between atoms: C_24  and  C_25
REMARK   10  A    between atoms: C_24  and  C_26
REMARK   11  A    between atoms: N_29  and  C_30
REMARK   12  A    between atoms: C_30  and  C_31
REMARK   13  A    between atoms: C_30  and  C_32
REMARK                            x       y       z     vdW  Elec       q    Type
REMARK                         _______ _______ _______ _____ _____    ______ ____
ROOT
ATOM      1  C   UNL     1      -0.340   2.752   1.773  0.00  0.00    +0.173 A 
ATOM      2  N   UNL     1      -0.913   3.239   2.845  0.00  0.00    -0.223 NA
ATOM      3  C   UNL     1      -1.905   2.573   3.484  0.00  0.00    +0.080 A 
ATOM      4  C   UNL     1      -2.511   3.092   4.631  0.00  0.00    +0.041 A 
ATOM      5  C   UNL     1      -3.524   2.373   5.252  0.00  0.00    +0.039 A 
ATOM      6  C   UNL     1      -3.939   1.139   4.736  0.00  0.00    +0.014 A 
ATOM      7  C   UNL     1      -3.354   0.622   3.616  0.00  0.00    +0.016 A 
ATOM      8  C   UNL     1      -2.335   1.326   2.976  0.00  0.00    +0.065 A 
ATOM      9  C   UNL     1      -1.678   0.806   1.767  0.00  0.00    +0.262 A 
ATOM     10  O   UNL     1      -2.003  -0.262   1.282  0.00  0.00    -0.267 OA
ATOM     11  N   UNL     1      -0.698   1.558   1.213  0.00  0.00    -0.287 N 
ENDROOT
BRANCH   5  12
ATOM     12  C   UNL     1      -4.171   2.917   6.468  0.00  0.00    +0.244 C 
ATOM     13  O   UNL     1      -3.816   3.987   6.919  0.00  0.00    -0.270 OA
ATOM     14  N   UNL     1      -5.156   2.224   7.074  0.00  0.00    -0.309 N 
ATOM     15  H   UNL     1      -5.478   1.254   6.666  0.00  0.00    +0.149 HD
BRANCH  14  16
ATOM     16  C   UNL     1      -5.796   2.761   8.277  0.00  0.00    +0.067 C 
ATOM     17  C   UNL     1      -6.919   3.718   7.872  0.00  0.00    +0.027 C 
ATOM     18  C   UNL     1      -6.378   1.611   9.102  0.00  0.00    +0.027 C 
ENDBRANCH  14  16
ENDBRANCH   5  12
BRANCH   1  19
ATOM     19  S   UNL     1       0.948   3.683   1.012  0.00  0.00    -0.080 S 
BRANCH  19  20
ATOM     20  C   UNL     1       1.003   5.110   2.124  0.00  0.00    +0.157 C 
BRANCH  20  21
ATOM     21  C   UNL     1       2.065   6.071   1.655  0.00  0.00    +0.173 C 
ATOM     22  O   UNL     1       2.720   5.816   0.667  0.00  0.00    -0.291 OA
BRANCH  21  27
ATOM     23  C   UNL     1       3.010  10.945   4.554  0.00  0.00    +0.044 C 
ATOM     24  C   UNL     1       2.762   9.667   3.794  0.00  0.00    -0.050 A 
ATOM     25  C   UNL     1       3.512   9.380   2.667  0.00  0.00    +0.004 A 
ATOM     26  C   UNL     1       3.292   8.213   1.966  0.00  0.00    +0.011 A 
ATOM     27  C   UNL     1       2.307   7.319   2.397  0.00  0.00    +0.018 A 
ATOM     28  C   UNL     1       1.550   7.619   3.534  0.00  0.00    +0.011 A 
ATOM     29  C   UNL     1       1.786   8.787   4.227  0.00  0.00    +0.004 A 
ENDBRANCH  21  27
ENDBRANCH  20  21
ENDBRANCH  19  20
ENDBRANCH   1  19
BRANCH  11  30
ATOM     30  C   UNL     1      -0.013   1.086   0.008  0.00  0.00    +0.130 C 
BRANCH  30  31
ATOM     31  C   UNL     1      -0.753   1.593  -1.232  0.00  0.00    +0.003 C 
ATOM     32  C   UNL     1       0.031   1.205  -2.487  0.00  0.00    +0.009 C 
ATOM     33  C   UNL     1      -2.147   0.964  -1.286  0.00  0.00    +0.009 C 
ENDBRANCH  30  31
ENDBRANCH  11  30
TORSDOF 8
