REMARK  Name = ZINC02916822
REMARK  5 active torsions:
REMARK  status: ('A' for Active; 'I' for Inactive)
REMARK    1  A    between atoms: C_1  and  O_2
REMARK    2  A    between atoms: O_2  and  C_3
REMARK    3  A    between atoms: C_3  and  C_5
REMARK    4  A    between atoms: C_8  and  C_11
REMARK    5  A    between atoms: C_28  and  C_30
REMARK                            x       y       z     vdW  Elec       q    Type
REMARK                         _______ _______ _______ _____ _____    ______ ____
ROOT
ATOM      1  C   UNL     1      -1.778  -6.158   0.305  0.00  0.00    +0.234 C 
ATOM      2  C   UNL     1      -1.663  -6.815   1.649  0.00  0.00    +0.027 C 
ATOM      3  C   UNL     1      -2.765  -7.084   2.379  0.00  0.00    +0.083 C 
ATOM      4  C   UNL     1      -4.080  -6.716   1.795  0.00  0.00    +0.042 A 
ATOM      5  C   UNL     1      -5.226  -6.647   2.575  0.00  0.00    +0.013 A 
ATOM      6  C   UNL     1      -6.429  -6.298   1.990  0.00  0.00    +0.001 A 
ATOM      7  C   UNL     1      -6.490  -6.020   0.636  0.00  0.00    +0.004 A 
ATOM      8  C   UNL     1      -5.353  -6.089  -0.148  0.00  0.00    +0.046 A 
ATOM      9  C   UNL     1      -4.142  -6.437   0.424  0.00  0.00    +0.131 A 
ATOM     10  O   UNL     1      -3.013  -6.518  -0.318  0.00  0.00    -0.479 OA
ATOM     11  N   UNL     1      -2.681  -7.670   3.599  0.00  0.00    -0.213 NA
ATOM     12  C   UNL     1      -1.556  -8.031   4.171  0.00  0.00    +0.237 C 
ATOM     13  N   UNL     1      -1.297  -8.620   5.360  0.00  0.00    -0.205 NA
ATOM     14  C   UNL     1      -0.012  -8.793   5.510  0.00  0.00    +0.203 C 
ATOM     15  N   UNL     1       0.641  -8.321   4.412  0.00  0.00    -0.251 N 
ATOM     16  N   UNL     1      -0.340  -7.829   3.549  0.00  0.00    -0.208 N 
ATOM     17  C   UNL     1      -0.317  -7.194   2.225  0.00  0.00    +0.160 C 
ATOM     18  H   UNL     1       1.599  -8.325   4.260  0.00  0.00    +0.171 HD
ENDROOT
BRANCH  17  19
ATOM     19  C   UNL     1       0.524  -5.947   2.316  0.00  0.00    -0.003 A 
ATOM     20  C   UNL     1       1.568  -5.752   1.431  0.00  0.00    +0.009 A 
ATOM     21  C   UNL     1       2.340  -4.609   1.514  0.00  0.00    +0.020 A 
ATOM     22  C   UNL     1       2.068  -3.658   2.482  0.00  0.00    +0.042 A 
ATOM     23  C   UNL     1       1.023  -3.853   3.367  0.00  0.00    +0.040 A 
ATOM     24  C   UNL     1       0.248  -4.995   3.281  0.00  0.00    +0.048 A 
ATOM     25 CL   UNL     1      -1.068  -5.238   4.388  0.00  0.00    -0.083 Cl
ATOM     26 CL   UNL     1       3.038  -2.222   2.586  0.00  0.00    -0.083 Cl
ENDBRANCH  17  19
BRANCH   1  30
ATOM     27  C   UNL     1      -1.623  -1.912   0.787  0.00  0.00    +0.059 A 
ATOM     28  C   UNL     1      -0.529  -2.598   0.254  0.00  0.00    +0.015 A 
ATOM     29  C   UNL     1      -0.586  -3.967   0.101  0.00  0.00    +0.008 A 
ATOM     30  C   UNL     1      -1.724  -4.662   0.475  0.00  0.00    -0.003 A 
ATOM     31  C   UNL     1      -2.811  -3.988   1.003  0.00  0.00    +0.008 A 
ATOM     32  C   UNL     1      -2.765  -2.619   1.168  0.00  0.00    +0.015 A 
BRANCH  27  33
ATOM     33  C   UNL     1      -1.569  -0.445   0.954  0.00  0.00    +0.339 C 
ATOM     34  O   UNL     1      -2.519   0.148   1.423  0.00  0.00    -0.245 OA
BRANCH  33  36
ATOM     35  C   UNL     1      -0.482   1.651   0.776  0.00  0.00    +0.280 C 
ATOM     36  O   UNL     1      -0.465   0.234   0.586  0.00  0.00    -0.464 OA
ENDBRANCH  33  36
ENDBRANCH  27  33
ENDBRANCH   1  30
TORSDOF 4
