REMARK  Name = ZINC13063676
REMARK  14 active torsions:
REMARK  status: ('A' for Active; 'I' for Inactive)
REMARK    1  A    between atoms: C_1  and  C_2
REMARK    2  A    between atoms: C_2  and  C_3
REMARK    3  A    between atoms: C_10  and  C_15
REMARK    4  A    between atoms: C_15  and  N_74
REMARK    5  A    between atoms: C_16  and  C_17
REMARK    6  A    between atoms: C_16  and  N_74
REMARK    7  A    between atoms: C_22  and  O_23
REMARK    8  A    between atoms: O_23  and  C_24
REMARK    9  A    between atoms: C_25  and  C_27
REMARK   10  A    between atoms: C_25  and  C_29
REMARK   11  A    between atoms: C_25  and  N_74
REMARK   12  A    between atoms: C_27  and  C_28
REMARK   13  A    between atoms: N_33  and  C_34
REMARK   14  A    between atoms: C_34  and  C_35
REMARK                            x       y       z     vdW  Elec       q    Type
REMARK                         _______ _______ _______ _____ _____    ______ ____
ROOT
ATOM      1  N   UNL     1       1.062   3.981  -1.534  0.00  0.00    +0.392 N 
ATOM      2  H   UNL     1       1.607   3.755  -2.373  0.00  0.00    -0.080 HD
ENDROOT
BRANCH   1   3
ATOM      3  C   UNL     1       1.772   3.462  -0.346  0.00  0.00    -0.036 C 
BRANCH   3  11
ATOM      4  C   UNL     1       5.982  -0.683  -2.182  0.00  0.00    -0.047 A 
ATOM      5  C   UNL     1       5.173  -1.802  -2.037  0.00  0.00    +0.005 A 
ATOM      6  C   UNL     1       3.873  -1.678  -1.596  0.00  0.00    +0.026 A 
ATOM      7  C   UNL     1       3.365  -0.419  -1.292  0.00  0.00    +0.049 A 
ATOM      8  C   UNL     1       4.189   0.713  -1.440  0.00  0.00    -0.001 A 
ATOM      9  C   UNL     1       5.505   0.563  -1.890  0.00  0.00    +0.013 A 
ATOM     10  C   UNL     1       3.645   2.034  -1.118  0.00  0.00    +0.017 A 
ATOM     11  C   UNL     1       2.362   2.118  -0.686  0.00  0.00    +0.001 A 
ATOM     12  C   UNL     1       1.579   0.952  -0.554  0.00  0.00    +0.251 A 
ATOM     13  O   UNL     1       0.426   1.051  -0.169  0.00  0.00    -0.268 OA
ATOM     14  N   UNL     1       2.069  -0.265  -0.848  0.00  0.00    -0.322 N 
ATOM     15  H   UNL     1       1.503  -1.046  -0.746  0.00  0.00    +0.169 HD
BRANCH   4  17
ATOM     16  C   UNL     1       8.329  -1.047  -1.468  0.00  0.00    +0.009 C 
ATOM     17  C   UNL     1       7.400  -0.845  -2.667  0.00  0.00    +0.032 C 
ENDBRANCH   4  17
ENDBRANCH   3  11
ENDBRANCH   1   3
BRANCH   1  18
ATOM     18  C   UNL     1      -0.270   3.348  -1.642  0.00  0.00    -0.038 C 
BRANCH  18  19
ATOM     19  C   UNL     1      -0.777   3.528  -3.050  0.00  0.00    -0.022 A 
ATOM     20  C   UNL     1      -1.808   4.412  -3.306  0.00  0.00    +0.005 A 
ATOM     21  C   UNL     1      -2.273   4.578  -4.597  0.00  0.00    +0.000 A 
ATOM     22  C   UNL     1      -1.708   3.861  -5.635  0.00  0.00    +0.004 A 
ATOM     23  C   UNL     1      -0.677   2.976  -5.385  0.00  0.00    +0.046 A 
ATOM     24  C   UNL     1      -0.205   2.811  -4.090  0.00  0.00    +0.121 A 
BRANCH  24  25
ATOM     25  O   UNL     1       0.813   1.946  -3.842  0.00  0.00    -0.495 OA
ATOM     26  C   UNL     1       1.353   1.242  -4.962  0.00  0.00    +0.277 C 
ENDBRANCH  24  25
ENDBRANCH  18  19
ENDBRANCH   1  18
BRANCH   1  27
ATOM     27  C   UNL     1       0.917   5.448  -1.435  0.00  0.00    +0.003 C 
BRANCH  27  28
ATOM     28  C   UNL     1       0.612   5.854  -0.016  0.00  0.00    +0.138 A 
ATOM     29  N   UNL     1       1.167   5.376   1.071  0.00  0.00    -0.115 NA
ATOM     30  N   UNL     1       0.641   5.976   2.083  0.00  0.00    -0.023 NA
ATOM     31  N   UNL     1      -0.241   6.817   1.670  0.00  0.00    -0.044 NA
ATOM     32  N   UNL     1      -0.289   6.772   0.381  0.00  0.00    -0.228 N 
BRANCH  32  33
ATOM     33  C   UNL     1      -1.159   7.569  -0.486  0.00  0.00    +0.178 C 
BRANCH  33  34
ATOM     34  C   UNL     1      -2.474   6.822  -0.715  0.00  0.00    +0.140 C 
ATOM     35  C   UNL     1      -3.351   7.601  -1.720  0.00  0.00    +0.035 C 
ATOM     36  C   UNL     1      -4.773   7.425  -1.121  0.00  0.00    +0.031 C 
ATOM     37  C   UNL     1      -4.456   7.422   0.396  0.00  0.00    +0.160 C 
ATOM     38  O   UNL     1      -3.202   6.732   0.515  0.00  0.00    -0.375 OA
ENDBRANCH  33  34
ENDBRANCH  32  33
ENDBRANCH  27  28
BRANCH  27  39
ATOM     39  C   UNL     1       2.228   6.099  -1.880  0.00  0.00    -0.011 C 
ATOM     40  C   UNL     1       2.472   5.796  -3.360  0.00  0.00    +0.002 C 
ENDBRANCH  27  39
ENDBRANCH   1  27
TORSDOF 11
