REMARK  Name = ZINC01255055
REMARK  9 active torsions:
REMARK  status: ('A' for Active; 'I' for Inactive)
REMARK    1  A    between atoms: C_1  and  N_2
REMARK    2  A    between atoms: N_2  and  C_3
REMARK    3  A    between atoms: N_2  and  S_4
REMARK    4  A    between atoms: S_4  and  C_7
REMARK    5  A    between atoms: C_10  and  C_13
REMARK    6  A    between atoms: C_13  and  C_15
REMARK    7  A    between atoms: C_17  and  C_29
REMARK    8  A    between atoms: C_23  and  C_24
REMARK    9  A    between atoms: C_23  and  O_28
REMARK                            x       y       z     vdW  Elec       q    Type
REMARK                         _______ _______ _______ _____ _____    ______ ____
ROOT
ATOM      1  C   UNL     1       3.828  -2.307   6.201  0.00  0.00    +0.144 C 
ATOM      2  C   UNL     1       5.181  -1.784   6.693  0.00  0.00    +0.120 C 
ATOM      3  N   UNL     1       5.085  -1.467   8.118  0.00  0.00    -0.292 N 
ATOM      4  C   UNL     1       4.233  -2.122   8.922  0.00  0.00    +0.302 C 
ATOM      5  O   UNL     1       4.200  -1.827  10.101  0.00  0.00    -0.253 OA
ATOM      6  N   UNL     1       3.419  -3.090   8.477  0.00  0.00    -0.264 N 
ATOM      7  C   UNL     1       3.418  -3.502   7.068  0.00  0.00    +0.243 C 
ATOM      8  H   UNL     1       5.647  -0.769   8.489  0.00  0.00    +0.151 HD
ATOM      9  H   UNL     1       2.816  -3.527   9.099  0.00  0.00    +0.153 HD
ENDROOT
BRANCH   2  10
ATOM     10  C   UNL     1       6.236  -2.839   6.482  0.00  0.00    -0.026 A 
ATOM     11  C   UNL     1       6.613  -3.659   7.529  0.00  0.00    +0.005 A 
ATOM     12  C   UNL     1       7.577  -4.630   7.335  0.00  0.00    +0.000 A 
ATOM     13  C   UNL     1       8.172  -4.775   6.095  0.00  0.00    +0.000 A 
ATOM     14  C   UNL     1       7.799  -3.952   5.049  0.00  0.00    +0.000 A 
ATOM     15  C   UNL     1       6.831  -2.984   5.242  0.00  0.00    +0.005 A 
ENDBRANCH   2  10
BRANCH   7  16
ATOM     16  C   UNL     1       2.017  -3.969   6.666  0.00  0.00    +0.436 C 
ATOM     17  F   UNL     1       1.981  -4.202   5.287  0.00  0.00    -0.166 F 
ATOM     18  F   UNL     1       1.706  -5.150   7.348  0.00  0.00    -0.166 F 
ATOM     19  F   UNL     1       1.083  -2.980   6.996  0.00  0.00    -0.166 F 
ENDBRANCH   7  16
BRANCH   1  20
ATOM     20  C   UNL     1       2.792  -1.218   6.316  0.00  0.00    +0.173 C 
ATOM     21  O   UNL     1       2.302  -0.960   7.395  0.00  0.00    -0.292 OA
BRANCH  20  25
ATOM     22  C   UNL     1       1.590   0.940   2.868  0.00  0.00    +0.105 A 
ATOM     23  C   UNL     1       2.622   0.021   2.780  0.00  0.00    +0.029 A 
ATOM     24  C   UNL     1       3.021  -0.681   3.898  0.00  0.00    +0.013 A 
ATOM     25  C   UNL     1       2.375  -0.469   5.120  0.00  0.00    +0.018 A 
ATOM     26  C   UNL     1       1.331   0.457   5.199  0.00  0.00    +0.013 A 
ATOM     27  C   UNL     1       0.946   1.154   4.074  0.00  0.00    +0.029 A 
BRANCH  22  28
ATOM     28  S   UNL     1       1.091   1.836   1.436  0.00  0.00    +0.060 S 
ATOM     29  O   UNL     1      -0.257   2.231   1.653  0.00  0.00    -0.153 OA
ATOM     30  O   UNL     1       1.485   1.060   0.313  0.00  0.00    -0.153 OA
BRANCH  28  32
ATOM     31  C   UNL     1       3.275   3.244   0.686  0.00  0.00    +0.131 C 
ATOM     32  N   UNL     1       1.990   3.226   1.389  0.00  0.00    -0.183 NA
ATOM     33  C   UNL     1       1.500   4.438   2.052  0.00  0.00    +0.131 C 
ENDBRANCH  28  32
ENDBRANCH  22  28
ENDBRANCH  20  25
ENDBRANCH   1  20
BRANCH   7  34
ATOM     34  O   UNL     1       4.350  -4.569   6.883  0.00  0.00    -0.364 OA
ATOM     35  H   UNL     1       4.151  -5.360   7.403  0.00  0.00    +0.212 HD
ENDBRANCH   7  34
TORSDOF 7
