REMARK  Name = ZINC06993103
REMARK  4 active torsions:
REMARK  status: ('A' for Active; 'I' for Inactive)
REMARK    1  A    between atoms: C_5  and  O_7
REMARK    2  A    between atoms: O_7  and  C_8
REMARK    3  A    between atoms: C_8  and  C_9
REMARK    4  A    between atoms: N_11  and  N_12
REMARK                            x       y       z     vdW  Elec       q    Type
REMARK                         _______ _______ _______ _____ _____    ______ ____
ROOT
ATOM      1  C   UNL     1      -2.545   4.035   0.036  0.00  0.00    +0.267 C 
ATOM      2  O   UNL     1      -3.498   3.284   0.036  0.00  0.00    -0.271 OA
ATOM      3  N   UNL     1      -2.738   5.369   0.044  0.00  0.00    -0.221 N 
ATOM      4  H   UNL     1      -1.977   5.969   0.044  0.00  0.00    +0.174 HD
ENDROOT
BRANCH   3   5
ATOM      5  N   UNL     1      -4.040   5.888   0.053  0.00  0.00    -0.137 N 
ATOM      6  C   UNL     1      -4.632   6.431   1.137  0.00  0.00    +0.263 C 
ATOM      7  O   UNL     1      -4.158   6.559   2.245  0.00  0.00    -0.271 OA
ATOM      8  C   UNL     1      -6.010   6.848   0.677  0.00  0.00    +0.114 C 
ATOM      9  C   UNL     1      -6.186   8.355   0.823  0.00  0.00    +0.035 C 
ATOM     10  C   UNL     1      -7.576   8.761   0.327  0.00  0.00    +0.003 C 
ATOM     11  C   UNL     1      -8.642   8.025   1.142  0.00  0.00    +0.000 C 
ATOM     12  C   UNL     1      -8.468   6.515   0.966  0.00  0.00    +0.003 C 
ATOM     13  C   UNL     1      -7.081   6.101   1.465  0.00  0.00    +0.035 C 
ATOM     14  N   UNL     1      -6.047   6.460  -0.738  0.00  0.00    -0.284 N 
ATOM     15  C   UNL     1      -4.848   5.912  -1.014  0.00  0.00    +0.326 C 
ATOM     16  O   UNL     1      -4.535   5.484  -2.108  0.00  0.00    -0.251 OA
ATOM     17  H   UNL     1      -6.787   6.578  -1.354  0.00  0.00    +0.151 HD
ENDBRANCH   3   5
BRANCH   1  18
ATOM     18  C   UNL     1      -1.145   3.477   0.026  0.00  0.00    +0.326 C 
BRANCH  18  19
ATOM     19  O   UNL     1      -1.202   2.049   0.019  0.00  0.00    -0.481 OA
BRANCH  19  24
ATOM     20  C   UNL     1       2.380   1.413  -0.013  0.00  0.00    +0.004 A 
ATOM     21  C   UNL     1       2.397   0.031  -0.021  0.00  0.00    +0.002 A 
ATOM     22  C   UNL     1       1.210  -0.677  -0.013  0.00  0.00    +0.023 A 
ATOM     23  C   UNL     1       0.002  -0.004   0.002  0.00  0.00    +0.083 A 
ATOM     24  C   UNL     1      -0.017   1.384   0.010  0.00  0.00    +0.139 A 
ATOM     25  C   UNL     1       1.176   2.091   0.002  0.00  0.00    +0.047 A 
ATOM     26 CL   UNL     1      -1.489  -0.893   0.011  0.00  0.00    -0.080 Cl
ENDBRANCH  19  24
ENDBRANCH  18  19
ENDBRANCH   1  18
TORSDOF 4
