REMARK  Name = ZINC66482593
REMARK  10 active torsions:
REMARK  status: ('A' for Active; 'I' for Inactive)
REMARK    1  A    between atoms: C_4  and  C_7
REMARK    2  A    between atoms: C_7  and  N_8
REMARK    3  A    between atoms: N_8  and  C_9
REMARK    4  A    between atoms: N_8  and  C_14
REMARK    5  A    between atoms: C_9  and  C_10
REMARK    6  A    between atoms: C_10  and  C_11
REMARK    7  A    between atoms: C_14  and  C_15
REMARK    8  A    between atoms: C_15  and  C_17
REMARK    9  A    between atoms: C_15  and  O_28
REMARK   10  A    between atoms: C_17  and  N_18
REMARK                            x       y       z     vdW  Elec       q    Type
REMARK                         _______ _______ _______ _____ _____    ______ ____
ROOT
ATOM      1  N   UNL     1       4.164  -0.909   1.339  0.00  0.00    +0.384 N 
ATOM      2  H   UNL     1       4.370  -0.090   1.892  0.00  0.00    -0.081 HD
ENDROOT
BRANCH   1   3
ATOM      3  C   UNL     1       3.568  -0.499   0.061  0.00  0.00    -0.043 C 
BRANCH   3   7
ATOM      4  C   UNL     1       0.152   1.957   0.803  0.00  0.00    +0.000 A 
ATOM      5  C   UNL     1       1.402   2.533   0.671  0.00  0.00    +0.000 A 
ATOM      6  C   UNL     1       2.507   1.738   0.431  0.00  0.00    +0.002 A 
ATOM      7  C   UNL     1       2.363   0.368   0.323  0.00  0.00    -0.064 A 
ATOM      8  C   UNL     1       1.113  -0.208   0.456  0.00  0.00    +0.002 A 
ATOM      9  C   UNL     1       0.008   0.587   0.695  0.00  0.00    +0.000 A 
ENDBRANCH   3   7
ENDBRANCH   1   3
BRANCH   1  10
ATOM     10  C   UNL     1       3.219  -1.767   2.067  0.00  0.00    -0.069 C 
BRANCH  10  11
ATOM     11  C   UNL     1       2.991  -3.058   1.278  0.00  0.00    +0.077 C 
BRANCH  11  12
ATOM     12  C   UNL     1       1.926  -3.880   1.957  0.00  0.00    +0.209 C 
ATOM     13  O   UNL     1       1.402  -3.474   2.973  0.00  0.00    -0.276 OA
ATOM     14  N   UNL     1       1.557  -5.067   1.437  0.00  0.00    -0.329 N 
ATOM     15  H   UNL     1       1.976  -5.392   0.624  0.00  0.00    +0.145 HD
ATOM     16  H   UNL     1       0.872  -5.596   1.874  0.00  0.00    +0.145 HD
ENDBRANCH  11  12
ENDBRANCH  10  11
ENDBRANCH   1  10
BRANCH   1  17
ATOM     17  C   UNL     1       5.405  -1.653   1.085  0.00  0.00    -0.045 C 
BRANCH  17  18
ATOM     18  C   UNL     1       6.087  -1.978   2.415  0.00  0.00    +0.112 C 
BRANCH  18  19
ATOM     19  O   UNL     1       6.417  -0.763   3.091  0.00  0.00    -0.392 OA
ATOM     20  H   UNL     1       7.016  -0.188   2.596  0.00  0.00    +0.210 HD
ENDBRANCH  18  19
BRANCH  18  21
ATOM     21  C   UNL     1       7.364  -2.778   2.151  0.00  0.00    +0.114 C 
BRANCH  21  22
ATOM     22  N   UNL     1       7.954  -3.193   3.431  0.00  0.00    -0.295 NA
ATOM     23  C   UNL     1       9.290  -3.777   3.230  0.00  0.00    +0.089 C 
ATOM     24  C   UNL     1       9.997  -3.848   4.584  0.00  0.00    +0.051 C 
ATOM     25  C   UNL     1       9.099  -4.506   5.600  0.00  0.00    -0.042 A 
ATOM     26  C   UNL     1       9.665  -4.985   6.771  0.00  0.00    +0.004 A 
ATOM     27  C   UNL     1       8.878  -5.592   7.729  0.00  0.00    +0.000 A 
ATOM     28  C   UNL     1       7.517  -5.721   7.520  0.00  0.00    +0.000 A 
ATOM     29  C   UNL     1       6.953  -5.245   6.354  0.00  0.00    +0.005 A 
ATOM     30  C   UNL     1       7.743  -4.638   5.388  0.00  0.00    -0.030 A 
ATOM     31  C   UNL     1       7.083  -4.145   4.127  0.00  0.00    +0.120 C 
ENDBRANCH  21  22
ENDBRANCH  18  21
ENDBRANCH  17  18
ENDBRANCH   1  17
TORSDOF 10
