REMARK  Name = ZINC30979433
REMARK  9 active torsions:
REMARK  status: ('A' for Active; 'I' for Inactive)
REMARK    1  A    between atoms: C_1  and  C_2
REMARK    2  A    between atoms: C_2  and  C_4
REMARK    3  A    between atoms: C_2  and  N_12
REMARK    4  A    between atoms: C_4  and  C_5
REMARK    5  A    between atoms: C_5  and  C_6
REMARK    6  A    between atoms: C_13  and  C_15
REMARK    7  A    between atoms: N_18  and  C_21
REMARK    8  A    between atoms: C_21  and  C_22
REMARK    9  A    between atoms: C_24  and  C_27
REMARK                            x       y       z     vdW  Elec       q    Type
REMARK                         _______ _______ _______ _____ _____    ______ ____
ROOT
ATOM      1  C   UNL     1       8.689  -0.527   0.220  0.00  0.00    +0.071 C 
ATOM      2  C   UNL     1       9.257   0.394  -0.864  0.00  0.00    -0.006 C 
ATOM      3  C   UNL     1      10.387   1.236  -0.269  0.00  0.00    -0.077 C 
ATOM      4  N   UNL     1      11.439   0.352   0.248  0.00  0.00    +0.386 N 
ATOM      5  C   UNL     1      10.928  -0.508   1.323  0.00  0.00    -0.077 C 
ATOM      6  C   UNL     1       9.814  -1.403   0.775  0.00  0.00    -0.006 C 
ATOM      7  H   UNL     1      11.765  -0.299  -0.577  0.00  0.00    -0.081 HD
ENDROOT
BRANCH   1   9
ATOM      8  N   UNL     1       6.520  -0.844  -0.927  0.00  0.00    -0.312 N 
ATOM      9  C   UNL     1       7.615  -1.402  -0.375  0.00  0.00    +0.216 C 
ATOM     10  O   UNL     1       7.738  -2.608  -0.357  0.00  0.00    -0.276 OA
ATOM     11  H   UNL     1       6.409   0.250  -0.944  0.00  0.00    +0.149 HD
BRANCH   8  13
ATOM     12  C   UNL     1       5.846  -2.045  -2.948  0.00  0.00    +0.028 C 
ATOM     13  C   UNL     1       5.477  -1.695  -1.505  0.00  0.00    +0.070 C 
BRANCH  13  14
ATOM     14  C   UNL     1       4.142  -0.948  -1.488  0.00  0.00    +0.026 C 
BRANCH  14  15
ATOM     15  C   UNL     1       3.711  -0.707  -0.039  0.00  0.00    +0.037 C 
BRANCH  15  16
ATOM     16  C   UNL     1       2.396   0.029  -0.022  0.00  0.00    -0.047 A 
ATOM     17  C   UNL     1       1.208  -0.679  -0.014  0.00  0.00    +0.003 A 
ATOM     18  C   UNL     1       0.002  -0.004   0.002  0.00  0.00    +0.000 A 
ATOM     19  C   UNL     1      -0.017   1.378   0.010  0.00  0.00    +0.000 A 
ATOM     20  C   UNL     1       1.171   2.086   0.002  0.00  0.00    +0.000 A 
ATOM     21  C   UNL     1       2.377   1.411  -0.014  0.00  0.00    +0.003 A 
ENDBRANCH  15  16
ENDBRANCH  14  15
ENDBRANCH  13  14
ENDBRANCH   8  13
ENDBRANCH   1   9
BRANCH   4  22
ATOM     22  C   UNL     1      12.602   1.126   0.702  0.00  0.00    +0.022 C 
BRANCH  22  23
ATOM     23  C   UNL     1      13.246   1.804  -0.480  0.00  0.00    +0.211 A 
ATOM     24  N   UNL     1      12.961   2.996  -0.944  0.00  0.00    -0.193 NA
ATOM     25  C   UNL     1      13.783   3.180  -2.001  0.00  0.00    +0.202 A 
ATOM     26  N   UNL     1      14.512   2.101  -2.117  0.00  0.00    -0.056 NA
ATOM     27  O   UNL     1      14.219   1.306  -1.249  0.00  0.00    -0.340 OA
BRANCH  25  28
ATOM     28  C   UNL     1      13.846   4.383  -2.869  0.00  0.00    +0.023 A 
ATOM     29  C   UNL     1      12.999   5.463  -2.629  0.00  0.00    +0.013 A 
ATOM     30  C   UNL     1      13.065   6.581  -3.436  0.00  0.00    +0.016 A 
ATOM     31  C   UNL     1      13.963   6.626  -4.488  0.00  0.00    +0.018 A 
ATOM     32  C   UNL     1      14.803   5.553  -4.733  0.00  0.00    +0.016 A 
ATOM     33  C   UNL     1      14.749   4.433  -3.929  0.00  0.00    +0.013 A 
ATOM     34 BR   UNL     1      14.044   8.158  -5.593  0.00  0.00    -0.050 Br
ENDBRANCH  25  28
ENDBRANCH  22  23
ENDBRANCH   4  22
TORSDOF 8
