REMARK  Name = ZINC12870841
REMARK  9 active torsions:
REMARK  status: ('A' for Active; 'I' for Inactive)
REMARK    1  A    between atoms: C_1  and  C_2
REMARK    2  A    between atoms: C_2  and  C_3
REMARK    3  A    between atoms: C_2  and  C_4
REMARK    4  A    between atoms: C_7  and  C_10
REMARK    5  A    between atoms: C_12  and  C_15
REMARK    6  A    between atoms: C_20  and  C_23
REMARK    7  A    between atoms: C_26  and  C_28
REMARK    8  A    between atoms: C_28  and  N_29
REMARK    9  A    between atoms: C_30  and  C_32
REMARK                            x       y       z     vdW  Elec       q    Type
REMARK                         _______ _______ _______ _____ _____    ______ ____
ROOT
ATOM      1  C   UNL     1      -3.854   5.777   6.723  0.00  0.00    +0.269 C 
ATOM      2  O   UNL     1      -4.447   5.971   7.767  0.00  0.00    -0.268 OA
ATOM      3  N   UNL     1      -3.444   6.822   5.977  0.00  0.00    -0.259 N 
ATOM      4  C   UNL     1      -3.697   8.120   6.401  0.00  0.00    +0.165 A 
ATOM      5  N   UNL     1      -3.382   9.263   5.822  0.00  0.00    -0.221 NA
ATOM      6  C   UNL     1      -3.707  10.429   6.376  0.00  0.00    +0.115 A 
ATOM      7  C   UNL     1      -4.381  10.437   7.567  0.00  0.00    +0.080 A 
ATOM      8  S   UNL     1      -4.543   8.683   7.871  0.00  0.00    -0.060 S 
ATOM      9  H   UNL     1      -2.971   6.668   5.144  0.00  0.00    +0.157 HD
ENDROOT
BRANCH   1  12
ATOM     10  C   UNL     1      -2.706   2.942   4.743  0.00  0.00    +0.109 A 
ATOM     11  N   UNL     1      -2.941   4.180   5.137  0.00  0.00    -0.234 NA
ATOM     12  C   UNL     1      -3.586   4.401   6.273  0.00  0.00    +0.134 A 
ATOM     13  C   UNL     1      -4.000   3.330   7.026  0.00  0.00    +0.080 A 
ATOM     14  S   UNL     1      -3.449   1.994   6.062  0.00  0.00    -0.075 S 
BRANCH  10  18
ATOM     15  C   UNL     1      -0.718   1.572   1.248  0.00  0.00    -0.045 A 
ATOM     16  C   UNL     1      -0.854   2.930   1.475  0.00  0.00    +0.004 A 
ATOM     17  C   UNL     1      -1.504   3.381   2.606  0.00  0.00    +0.011 A 
ATOM     18  C   UNL     1      -2.014   2.465   3.526  0.00  0.00    +0.007 A 
ATOM     19  C   UNL     1      -1.869   1.097   3.294  0.00  0.00    +0.011 A 
ATOM     20  C   UNL     1      -1.222   0.658   2.157  0.00  0.00    +0.004 A 
BRANCH  15  22
ATOM     21  C   UNL     1       1.423   1.615  -0.003  0.00  0.00    +0.012 C 
ATOM     22  C   UNL     1      -0.013   1.086   0.008  0.00  0.00    +0.013 C 
ATOM     23  C   UNL     1      -0.753   1.593  -1.232  0.00  0.00    +0.012 C 
ENDBRANCH  15  22
ENDBRANCH  10  18
ENDBRANCH   1  12
BRANCH   6  24
ATOM     24  C   UNL     1      -3.345  11.699   5.712  0.00  0.00    +0.154 A 
ATOM     25  C   UNL     1      -2.675  11.822   4.536  0.00  0.00    +0.052 A 
ATOM     26  C   UNL     1      -2.551  13.203   4.281  0.00  0.00    +0.047 A 
ATOM     27  C   UNL     1      -3.137  13.848   5.308  0.00  0.00    +0.123 A 
ATOM     28  O   UNL     1      -3.616  12.936   6.171  0.00  0.00    -0.457 OA
BRANCH  27  29
ATOM     29  C   UNL     1      -3.240  15.343   5.463  0.00  0.00    +0.178 C 
BRANCH  29  30
ATOM     30  N   UNL     1      -4.476  15.816   4.834  0.00  0.00    -0.308 N 
ATOM     31  C   UNL     1      -4.781  17.128   4.849  0.00  0.00    +0.210 C 
ATOM     32  O   UNL     1      -4.032  17.919   5.383  0.00  0.00    -0.276 OA
ATOM     33  C   UNL     1      -6.052  17.614   4.202  0.00  0.00    +0.109 C 
ATOM     34  H   UNL     1      -5.075  15.184   4.407  0.00  0.00    +0.149 HD
ENDBRANCH  29  30
ENDBRANCH  27  29
ENDBRANCH   6  24
TORSDOF 6
