REMARK  Name = ZINC19760011
REMARK  7 active torsions:
REMARK  status: ('A' for Active; 'I' for Inactive)
REMARK    1  A    between atoms: C_3  and  N_28
REMARK    2  A    between atoms: C_6  and  C_7
REMARK    3  A    between atoms: C_7  and  N_8
REMARK    4  A    between atoms: C_9  and  C_11
REMARK    5  A    between atoms: C_11  and  C_12
REMARK    6  A    between atoms: N_19  and  C_20
REMARK    7  A    between atoms: C_20  and  C_21
REMARK                            x       y       z     vdW  Elec       q    Type
REMARK                         _______ _______ _______ _____ _____    ______ ____
ROOT
ATOM      1  C   UNL     1      -1.820   6.443  -1.719  0.00  0.00    +0.089 C 
ENDROOT
BRANCH   1   2
ATOM      2  C   UNL     1      -1.973   4.993  -2.183  0.00  0.00    +0.028 C 
ATOM      3  C   UNL     1      -2.918   4.272  -1.264  0.00  0.00    +0.200 C 
ATOM      4  O   UNL     1      -3.928   4.840  -0.906  0.00  0.00    -0.278 OA
ATOM      5  N   UNL     1      -2.692   3.030  -0.824  0.00  0.00    -0.318 N 
ATOM      6  C   UNL     1      -1.491   2.273  -1.165  0.00  0.00    +0.085 C 
ATOM      7  C   UNL     1      -0.814   2.889  -2.392  0.00  0.00    -0.058 C 
ATOM      8  N   UNL     1      -0.660   4.335  -2.170  0.00  0.00    +0.391 N 
ATOM      9  H   UNL     1      -3.459   2.580  -0.177  0.00  0.00    +0.149 HD
ATOM     10  H   UNL     1      -0.203   4.492  -1.182  0.00  0.00    -0.080 HD
BRANCH   8  11
ATOM     11  C   UNL     1       0.236   4.929  -3.172  0.00  0.00    -0.042 C 
BRANCH  11  12
ATOM     12  C   UNL     1      -0.383   4.798  -4.540  0.00  0.00    -0.064 A 
ATOM     13  C   UNL     1      -0.132   3.676  -5.307  0.00  0.00    +0.004 A 
ATOM     14  C   UNL     1      -0.696   3.557  -6.563  0.00  0.00    +0.038 A 
ATOM     15  C   UNL     1      -1.519   4.558  -7.049  0.00  0.00    +0.123 A 
ATOM     16  C   UNL     1      -1.774   5.680  -6.278  0.00  0.00    +0.038 A 
ATOM     17  C   UNL     1      -1.205   5.798  -5.024  0.00  0.00    +0.004 A 
ATOM     18  F   UNL     1      -2.074   4.441  -8.275  0.00  0.00    -0.205 F 
ENDBRANCH  11  12
ENDBRANCH   8  11
ENDBRANCH   1   2
BRANCH   1  20
ATOM     19  N   UNL     1      -0.918   7.641   0.248  0.00  0.00    -0.311 N 
ATOM     20  C   UNL     1      -1.237   6.466  -0.329  0.00  0.00    +0.212 C 
ATOM     21  O   UNL     1      -1.056   5.427   0.270  0.00  0.00    -0.276 OA
ATOM     22  H   UNL     1      -1.083   8.584  -0.295  0.00  0.00    +0.149 HD
BRANCH  19  23
ATOM     23  C   UNL     1      -0.351   7.664   1.599  0.00  0.00    +0.139 C 
BRANCH  23  29
ATOM     24  C   UNL     1       1.142   9.667   1.739  0.00  0.00    +0.007 A 
ATOM     25  C   UNL     1       1.387  10.975   2.109  0.00  0.00    +0.024 A 
ATOM     26  C   UNL     1       0.403  11.707   2.760  0.00  0.00    +0.036 A 
ATOM     27  C   UNL     1      -0.827  11.122   3.034  0.00  0.00    +0.024 A 
ATOM     28  C   UNL     1      -1.067   9.816   2.657  0.00  0.00    +0.007 A 
ATOM     29  C   UNL     1      -0.086   9.090   2.008  0.00  0.00    -0.030 A 
BRANCH  26  30
ATOM     30  N   UNL     1       0.649  13.031   3.140  0.00  0.00    -0.271 N 
ATOM     31  C   UNL     1       1.867  13.777   2.801  0.00  0.00    +0.114 C 
ATOM     32  C   UNL     1       1.514  15.265   3.029  0.00  0.00    +0.029 C 
ATOM     33  C   UNL     1       0.386  15.161   4.082  0.00  0.00    +0.098 C 
ATOM     34  C   UNL     1      -0.196  13.781   3.868  0.00  0.00    +0.220 C 
ATOM     35  O   UNL     1      -1.270  13.407   4.290  0.00  0.00    -0.275 OA
ENDBRANCH  26  30
ENDBRANCH  23  29
ENDBRANCH  19  23
ENDBRANCH   1  20
TORSDOF 7
