REMARK  Name = ZINC06894639
REMARK  5 active torsions:
REMARK  status: ('A' for Active; 'I' for Inactive)
REMARK    1  A    between atoms: C_1  and  C_2
REMARK    2  A    between atoms: C_4  and  C_30
REMARK    3  A    between atoms: C_5  and  N_9
REMARK    4  A    between atoms: C_6  and  C_8
REMARK    5  A    between atoms: C_10  and  C_12
REMARK                            x       y       z     vdW  Elec       q    Type
REMARK                         _______ _______ _______ _____ _____    ______ ____
ROOT
ATOM      1  C   UNL     1      -5.245   1.864   0.756  0.00  0.00    +0.076 C 
ATOM      2  C   UNL     1      -5.305   1.118   2.102  0.00  0.00    -0.003 C 
ATOM      3  C   UNL     1      -6.400   1.825   2.924  0.00  0.00    -0.066 C 
ATOM      4  C   UNL     1      -5.850   2.118   4.333  0.00  0.00    -0.017 C 
ATOM      5  C   UNL     1      -5.731   3.657   4.412  0.00  0.00    -0.020 C 
ATOM      6  C   UNL     1      -5.677   4.078   2.922  0.00  0.00    -0.077 C 
ATOM      7  C   UNL     1      -6.301   2.969   0.853  0.00  0.00    +0.052 C 
ATOM      8  C   UNL     1      -5.800   4.251   0.243  0.00  0.00    -0.027 A 
ATOM      9  C   UNL     1      -4.729   5.071   0.517  0.00  0.00    +0.004 A 
ATOM     10  C   UNL     1      -4.521   6.212  -0.238  0.00  0.00    +0.000 A 
ATOM     11  C   UNL     1      -5.391   6.525  -1.266  0.00  0.00    +0.002 A 
ATOM     12  C   UNL     1      -6.465   5.705  -1.544  0.00  0.00    +0.023 A 
ATOM     13  C   UNL     1      -6.682   4.554  -0.789  0.00  0.00    +0.036 A 
ATOM     14  N   UNL     1      -7.679   3.581  -0.874  0.00  0.00    -0.286 N 
ATOM     15  C   UNL     1      -7.527   2.616   0.051  0.00  0.00    +0.212 C 
ATOM     16  O   UNL     1      -8.241   1.648   0.210  0.00  0.00    -0.277 OA
ATOM     17  H   UNL     1      -8.398   3.598  -1.526  0.00  0.00    +0.155 HD
ATOM     18  N   UNL     1      -6.600   3.112   2.290  0.00  0.00    +0.394 N 
ATOM     19  H   UNL     1      -7.570   3.425   2.414  0.00  0.00    -0.079 HD
ENDROOT
BRANCH   1  21
ATOM     20  N   UNL     1      -3.346   2.527  -0.684  0.00  0.00    -0.285 N 
ATOM     21  C   UNL     1      -3.878   2.466   0.553  0.00  0.00    +0.220 C 
ATOM     22  O   UNL     1      -3.257   2.894   1.503  0.00  0.00    -0.275 OA
ATOM     23  H   UNL     1      -3.809   2.119  -1.432  0.00  0.00    +0.155 HD
BRANCH  20  28
ATOM     24  C   UNL     1       1.604   5.170  -1.522  0.00  0.00    +0.044 C 
ATOM     25  C   UNL     1       0.288   4.470  -1.297  0.00  0.00    -0.050 A 
ATOM     26  C   UNL     1       0.188   3.483  -0.334  0.00  0.00    +0.008 A 
ATOM     27  C   UNL     1      -1.017   2.839  -0.126  0.00  0.00    -0.029 A 
ATOM     28  C   UNL     1      -2.126   3.181  -0.888  0.00  0.00    +0.039 A 
ATOM     29  C   UNL     1      -2.023   4.176  -1.851  0.00  0.00    -0.029 A 
ATOM     30  C   UNL     1      -0.816   4.816  -2.055  0.00  0.00    +0.008 A 
ATOM     31  C   UNL     1      -3.225   4.554  -2.678  0.00  0.00    +0.045 C 
ATOM     32  C   UNL     1      -1.125   1.764   0.924  0.00  0.00    +0.045 C 
ENDBRANCH  20  28
ENDBRANCH   1  21
TORSDOF 2
