REMARK  Name = ZINC38903554
REMARK  16 active torsions:
REMARK  status: ('A' for Active; 'I' for Inactive)
REMARK    1  A    between atoms: C_1  and  C_2
REMARK    2  A    between atoms: C_2  and  C_3
REMARK    3  A    between atoms: C_2  and  C_4
REMARK    4  A    between atoms: C_4  and  C_5
REMARK    5  A    between atoms: C_5  and  C_7
REMARK    6  A    between atoms: C_5  and  N_15
REMARK    7  A    between atoms: C_10  and  O_13
REMARK    8  A    between atoms: O_13  and  C_14
REMARK    9  A    between atoms: C_16  and  C_18
REMARK   10  A    between atoms: N_23  and  C_25
REMARK   11  A    between atoms: C_25  and  C_26
REMARK   12  A    between atoms: C_28  and  C_31
REMARK   13  A    between atoms: C_34  and  C_37
REMARK   14  A    between atoms: C_37  and  C_38
REMARK   15  A    between atoms: C_37  and  C_39
REMARK   16  A    between atoms: C_37  and  C_40
REMARK                            x       y       z     vdW  Elec       q    Type
REMARK                         _______ _______ _______ _____ _____    ______ ____
ROOT
ATOM      1  C   UNL     1       0.273  -0.928  -4.153  0.00  0.00    +0.058 C 
ATOM      2  C   UNL     1      -0.722  -1.056  -5.310  0.00  0.00    +0.009 C 
ATOM      3  C   UNL     1      -0.012  -1.681  -6.515  0.00  0.00    -0.018 C 
ATOM      4  C   UNL     1       1.201  -0.824  -6.885  0.00  0.00    -0.078 C 
ATOM      5  N   UNL     1       2.126  -0.762  -5.747  0.00  0.00    +0.386 N 
ATOM      6  C   UNL     1       1.476  -0.100  -4.610  0.00  0.00    -0.065 C 
ATOM      7  H   UNL     1       2.394  -1.697  -5.481  0.00  0.00    -0.081 HD
ENDROOT
BRANCH   1   9
ATOM      8  N   UNL     1      -1.486  -0.796  -2.418  0.00  0.00    -0.308 N 
ATOM      9  C   UNL     1      -0.396  -0.244  -2.988  0.00  0.00    +0.215 C 
ATOM     10  O   UNL     1       0.047   0.802  -2.563  0.00  0.00    -0.276 OA
ATOM     11  H   UNL     1      -1.840  -1.632  -2.758  0.00  0.00    +0.149 HD
BRANCH   8  12
ATOM     12  C   UNL     1      -2.135  -0.131  -1.286  0.00  0.00    +0.103 C 
BRANCH  12  13
ATOM     13  C   UNL     1      -3.583  -0.545  -1.223  0.00  0.00    -0.027 A 
ATOM     14  C   UNL     1      -3.936  -1.859  -1.473  0.00  0.00    +0.009 A 
ATOM     15  C   UNL     1      -5.263  -2.241  -1.417  0.00  0.00    +0.046 A 
ATOM     16  C   UNL     1      -6.240  -1.306  -1.109  0.00  0.00    +0.120 A 
ATOM     17  C   UNL     1      -5.883   0.011  -0.859  0.00  0.00    +0.046 A 
ATOM     18  C   UNL     1      -4.555   0.387  -0.911  0.00  0.00    +0.009 A 
BRANCH  16  19
ATOM     19  O   UNL     1      -7.546  -1.679  -1.054  0.00  0.00    -0.495 OA
ATOM     20  C   UNL     1      -8.498  -0.663  -0.732  0.00  0.00    +0.277 C 
ENDBRANCH  16  19
ENDBRANCH  12  13
BRANCH  12  21
ATOM     21  C   UNL     1      -1.433  -0.534   0.013  0.00  0.00    +0.030 C 
BRANCH  21  23
ATOM     22  C   UNL     1      -0.019   1.526   0.010  0.00  0.00    +0.007 C 
ATOM     23  C   UNL     1       0.002  -0.004   0.002  0.00  0.00    -0.015 C 
ATOM     24  C   UNL     1       0.742  -0.511   1.242  0.00  0.00    +0.007 C 
ENDBRANCH  21  23
ENDBRANCH  12  21
ENDBRANCH   8  12
ENDBRANCH   1   9
BRANCH   5  25
ATOM     25  C   UNL     1       3.324  -0.004  -6.133  0.00  0.00    +0.022 C 
BRANCH  25  26
ATOM     26  C   UNL     1       4.066  -0.751  -7.211  0.00  0.00    +0.211 A 
ATOM     27  N   UNL     1       3.885  -0.616  -8.493  0.00  0.00    -0.193 NA
ATOM     28  C   UNL     1       4.714  -1.435  -9.165  0.00  0.00    +0.202 A 
ATOM     29  N   UNL     1       5.436  -2.102  -8.298  0.00  0.00    -0.056 NA
ATOM     30  O   UNL     1       5.027  -1.662  -7.011  0.00  0.00    -0.340 OA
BRANCH  28  31
ATOM     31  C   UNL     1       4.798  -1.562 -10.641  0.00  0.00    +0.022 A 
ATOM     32  C   UNL     1       3.975  -0.788 -11.457  0.00  0.00    +0.012 A 
ATOM     33  C   UNL     1       4.057  -0.910 -12.829  0.00  0.00    +0.005 A 
ATOM     34  C   UNL     1       4.954  -1.798 -13.395  0.00  0.00    -0.042 A 
ATOM     35  C   UNL     1       5.773  -2.569 -12.590  0.00  0.00    +0.005 A 
ATOM     36  C   UNL     1       5.704  -2.450 -11.216  0.00  0.00    +0.012 A 
BRANCH  34  37
ATOM     37  C   UNL     1       5.038  -1.928 -14.894  0.00  0.00    -0.013 C 
ATOM     38  C   UNL     1       5.420  -0.577 -15.502  0.00  0.00    +0.015 C 
ATOM     39  C   UNL     1       6.099  -2.969 -15.257  0.00  0.00    +0.015 C 
ATOM     40  C   UNL     1       3.681  -2.369 -15.445  0.00  0.00    +0.015 C 
ENDBRANCH  34  37
ENDBRANCH  28  31
ENDBRANCH  25  26
ENDBRANCH   5  25
TORSDOF 10
