REMARK  Name = ZINC03665888
REMARK  6 active torsions:
REMARK  status: ('A' for Active; 'I' for Inactive)
REMARK    1  A    between atoms: C_1  and  C_2
REMARK    2  A    between atoms: C_5  and  C_8
REMARK    3  A    between atoms: C_8  and  N_9
REMARK    4  A    between atoms: C_10  and  C_12
REMARK    5  A    between atoms: C_12  and  O_30
REMARK    6  A    between atoms: N_22  and  C_23
REMARK                            x       y       z     vdW  Elec       q    Type
REMARK                         _______ _______ _______ _____ _____    ______ ____
ROOT
ATOM      1  C   UNL     1       2.496   3.854   0.424  0.00  0.00    +0.247 C 
ATOM      2  C   UNL     1       1.178   3.115   0.402  0.00  0.00    +0.033 A 
ATOM      3  C   UNL     1       0.009   3.726   0.794  0.00  0.00    +0.010 A 
ATOM      4  C   UNL     1      -1.180   3.018   0.761  0.00  0.00    +0.001 A 
ATOM      5  C   UNL     1      -1.192   1.704   0.328  0.00  0.00    +0.002 A 
ATOM      6  C   UNL     1      -0.019   1.087  -0.061  0.00  0.00    +0.024 A 
ATOM      7  C   UNL     1       1.177   1.793  -0.029  0.00  0.00    +0.043 A 
ATOM      8  N   UNL     1       2.371   1.190  -0.423  0.00  0.00    -0.269 N 
ATOM      9  C   UNL     1       3.549   1.828  -0.410  0.00  0.00    +0.314 C 
ATOM     10  O   UNL     1       4.540   1.223  -0.772  0.00  0.00    -0.252 OA
ATOM     11  N   UNL     1       3.686   3.107  -0.017  0.00  0.00    -0.214 N 
ATOM     12  H   UNL     1       2.348   0.267  -0.720  0.00  0.00    +0.156 HD
ENDROOT
BRANCH  11  13
ATOM     13  C   UNL     1       4.945   3.720  -0.026  0.00  0.00    +0.041 A 
ATOM     14  C   UNL     1       5.340   4.482  -1.117  0.00  0.00    +0.025 A 
ATOM     15  C   UNL     1       6.580   5.089  -1.122  0.00  0.00    +0.022 A 
ATOM     16  C   UNL     1       7.433   4.930  -0.044  0.00  0.00    +0.041 A 
ATOM     17  C   UNL     1       7.045   4.167   1.043  0.00  0.00    +0.022 A 
ATOM     18  C   UNL     1       5.803   3.562   1.054  0.00  0.00    +0.025 A 
ATOM     19 CL   UNL     1       8.994   5.690  -0.056  0.00  0.00    -0.084 Cl
ENDBRANCH  11  13
BRANCH   1  21
ATOM     20  N   UNL     1       2.926   3.431   2.823  0.00  0.00    -0.307 N 
ATOM     21  C   UNL     1       2.740   4.327   1.834  0.00  0.00    +0.269 C 
ATOM     22  O   UNL     1       2.769   5.515   2.078  0.00  0.00    -0.270 OA
ATOM     23  H   UNL     1       2.903   2.481   2.627  0.00  0.00    +0.149 HD
BRANCH  20  24
ATOM     24  C   UNL     1       3.163   3.891   4.193  0.00  0.00    +0.139 C 
BRANCH  24  29
ATOM     25  C   UNL     1       3.833  -0.676   7.670  0.00  0.00    +0.044 C 
ATOM     26  C   UNL     1       3.659   0.515   6.763  0.00  0.00    -0.050 A 
ATOM     27  C   UNL     1       4.757   1.076   6.139  0.00  0.00    +0.003 A 
ATOM     28  C   UNL     1       4.597   2.168   5.307  0.00  0.00    +0.005 A 
ATOM     29  C   UNL     1       3.338   2.700   5.100  0.00  0.00    -0.030 A 
ATOM     30  C   UNL     1       2.240   2.143   5.729  0.00  0.00    +0.005 A 
ATOM     31  C   UNL     1       2.400   1.047   6.556  0.00  0.00    +0.003 A 
ENDBRANCH  24  29
ENDBRANCH  20  24
ENDBRANCH   1  21
BRANCH   1  32
ATOM     32  O   UNL     1       2.368   5.009  -0.408  0.00  0.00    -0.360 OA
ATOM     33  H   UNL     1       1.677   5.623  -0.125  0.00  0.00    +0.213 HD
ENDBRANCH   1  32
TORSDOF 5
