REMARK  Name = ZINC12218925
REMARK  11 active torsions:
REMARK  status: ('A' for Active; 'I' for Inactive)
REMARK    1  A    between atoms: C_1  and  C_2
REMARK    2  A    between atoms: C_2  and  N_3
REMARK    3  A    between atoms: N_3  and  S_4
REMARK    4  A    between atoms: S_4  and  C_7
REMARK    5  A    between atoms: C_8  and  C_28
REMARK    6  A    between atoms: C_15  and  C_16
REMARK    7  A    between atoms: C_15  and  N_58
REMARK    8  A    between atoms: C_19  and  O_26
REMARK    9  A    between atoms: O_26  and  C_27
REMARK   10  A    between atoms: C_28  and  O_30
REMARK   11  A    between atoms: O_30  and  C_31
REMARK                            x       y       z     vdW  Elec       q    Type
REMARK                         _______ _______ _______ _____ _____    ______ ____
ROOT
ATOM      1  C   UNL     1       0.253  -0.184  -3.061  0.00  0.00    +0.157 A 
ATOM      2  C   UNL     1       0.821  -0.726  -4.196  0.00  0.00    +0.096 A 
ATOM      3  C   UNL     1       0.907  -2.169  -4.283  0.00  0.00    -0.025 A 
ATOM      4  C   UNL     1       0.399  -2.842  -3.224  0.00  0.00    -0.021 A 
ATOM      5  S   UNL     1      -0.175  -1.580  -2.126  0.00  0.00    -0.074 S 
ATOM      6  C   UNL     1       0.349  -4.328  -3.056  0.00  0.00    -0.035 C 
ATOM      7  C   UNL     1       1.803  -4.363  -4.994  0.00  0.00    -0.073 C 
ATOM      8  C   UNL     1       1.508  -2.933  -5.457  0.00  0.00    +0.018 C 
ATOM      9  N   UNL     1       0.589  -4.942  -4.385  0.00  0.00    +0.386 N 
ATOM     10  H   UNL     1      -0.216  -4.748  -4.993  0.00  0.00    -0.081 HD
ENDROOT
BRANCH   1  11
ATOM     11  S   UNL     1       0.013   1.515  -2.662  0.00  0.00    +0.065 S 
ATOM     12  O   UNL     1      -0.926   2.024  -3.599  0.00  0.00    -0.153 OA
ATOM     13  O   UNL     1       1.306   2.080  -2.496  0.00  0.00    -0.153 OA
BRANCH  11  14
ATOM     14  N   UNL     1      -0.721   1.571  -1.179  0.00  0.00    -0.190 NA
ATOM     15  H   UNL     1      -1.621   1.925  -1.096  0.00  0.00    +0.148 HD
BRANCH  14  17
ATOM     16  C   UNL     1      -0.729   1.579   1.267  0.00  0.00    +0.022 C 
ATOM     17  C   UNL     1      -0.013   1.086   0.008  0.00  0.00    +0.102 C 
ENDBRANCH  14  17
ENDBRANCH  11  14
ENDBRANCH   1  11
BRANCH   2  18
ATOM     18  C   UNL     1       1.325   0.133  -5.277  0.00  0.00    +0.342 C 
ATOM     19  O   UNL     1       2.480   0.513  -5.263  0.00  0.00    -0.245 OA
BRANCH  18  20
ATOM     20  O   UNL     1       0.508   0.499  -6.284  0.00  0.00    -0.464 OA
ATOM     21  C   UNL     1       1.074   1.348  -7.318  0.00  0.00    +0.280 C 
ENDBRANCH  18  20
ENDBRANCH   2  18
BRANCH   9  22
ATOM     22  C   UNL     1       0.742  -6.407  -4.245  0.00  0.00    -0.042 C 
BRANCH  22  23
ATOM     23  C   UNL     1      -0.582  -6.998  -3.833  0.00  0.00    -0.056 A 
ATOM     24  C   UNL     1      -0.805  -7.332  -2.531  0.00  0.00    +0.006 A 
ATOM     25  C   UNL     1      -2.020  -7.879  -2.129  0.00  0.00    +0.046 A 
ATOM     26  C   UNL     1      -3.025  -8.097  -3.030  0.00  0.00    +0.128 A 
ATOM     27  C   UNL     1      -2.828  -7.763  -4.385  0.00  0.00    +0.024 A 
ATOM     28  C   UNL     1      -1.591  -7.202  -4.789  0.00  0.00    -0.013 A 
ATOM     29  C   UNL     1      -1.392  -6.874  -6.141  0.00  0.00    +0.009 A 
ATOM     30  C   UNL     1      -2.390  -7.091  -7.040  0.00  0.00    +0.001 A 
ATOM     31  C   UNL     1      -3.608  -7.638  -6.642  0.00  0.00    +0.001 A 
ATOM     32  C   UNL     1      -3.834  -7.972  -5.341  0.00  0.00    +0.012 A 
BRANCH  26  33
ATOM     33  O   UNL     1      -4.205  -8.631  -2.622  0.00  0.00    -0.495 OA
ATOM     34  C   UNL     1      -4.330  -8.943  -1.233  0.00  0.00    +0.277 C 
ENDBRANCH  26  33
ENDBRANCH  22  23
ENDBRANCH   9  22
TORSDOF 8
