REMARK  Name = ZINC11591676
REMARK  6 active torsions:
REMARK  status: ('A' for Active; 'I' for Inactive)
REMARK    1  A    between atoms: C_1  and  C_2
REMARK    2  A    between atoms: C_4  and  C_16
REMARK    3  A    between atoms: C_5  and  C_15
REMARK    4  A    between atoms: N_6  and  C_7
REMARK    5  A    between atoms: C_16  and  C_18
REMARK    6  A    between atoms: C_18  and  N_19
REMARK                            x       y       z     vdW  Elec       q    Type
REMARK                         _______ _______ _______ _____ _____    ______ ____
ROOT
ATOM      1  C   UNL     1       3.498   5.471   2.239  0.00  0.00    +0.197 C 
ENDROOT
BRANCH   1   2
ATOM      2  N   UNL     1       2.743   4.797   1.180  0.00  0.00    -0.216 N 
ATOM      3  C   UNL     1       1.608   4.097   1.385  0.00  0.00    +0.252 C 
ATOM      4  O   UNL     1       1.040   3.912   2.440  0.00  0.00    -0.272 OA
ATOM      5  C   UNL     1       1.194   3.592   0.022  0.00  0.00    +0.144 C 
ATOM      6  C   UNL     1      -0.172   4.154  -0.361  0.00  0.00    +0.081 C 
ATOM      7  C   UNL     1      -1.248   3.391   0.423  0.00  0.00    +0.232 C 
ATOM      8  O   UNL     1      -1.217   2.022   0.019  0.00  0.00    -0.492 OA
ATOM      9  C   UNL     1      -0.017   1.386   0.010  0.00  0.00    +0.126 A 
ATOM     10  C   UNL     1       1.177   2.090   0.002  0.00  0.00    +0.027 A 
ATOM     11  C   UNL     1       2.379   1.403  -0.019  0.00  0.00    +0.010 A 
ATOM     12  C   UNL     1       2.393   0.021  -0.029  0.00  0.00    +0.001 A 
ATOM     13  C   UNL     1       1.204  -0.683  -0.017  0.00  0.00    +0.004 A 
ATOM     14  C   UNL     1       0.002  -0.004   0.002  0.00  0.00    +0.046 A 
ATOM     15  N   UNL     1       2.232   4.107  -0.880  0.00  0.00    -0.281 N 
ATOM     16  C   UNL     1       3.094   4.800  -0.112  0.00  0.00    +0.310 C 
ATOM     17  O   UNL     1       4.080   5.364  -0.544  0.00  0.00    -0.252 OA
ATOM     18  H   UNL     1       2.286   3.973  -1.839  0.00  0.00    +0.152 HD
ENDBRANCH   1   2
BRANCH   1  19
ATOM     19  C   UNL     1       4.522   4.523   2.808  0.00  0.00    +0.183 C 
ATOM     20  O   UNL     1       4.612   3.394   2.370  0.00  0.00    -0.290 OA
BRANCH  19  24
ATOM     21  C   UNL     1       6.789   7.369   6.374  0.00  0.00    +0.064 C 
ATOM     22  C   UNL     1       6.399   6.236   5.460  0.00  0.00    +0.022 A 
ATOM     23  C   UNL     1       5.437   6.286   4.524  0.00  0.00    +0.034 A 
ATOM     24  C   UNL     1       5.407   4.963   3.887  0.00  0.00    +0.040 A 
ATOM     25  C   UNL     1       6.391   4.219   4.512  0.00  0.00    +0.031 A 
ATOM     26  N   UNL     1       6.973   4.995   5.448  0.00  0.00    -0.317 N 
ATOM     27  C   UNL     1       6.752   2.790   4.200  0.00  0.00    +0.064 C 
BRANCH  26  28
ATOM     28  C   UNL     1       8.017   4.588   6.289  0.00  0.00    +0.049 A 
ATOM     29  C   UNL     1       7.804   3.587   7.227  0.00  0.00    +0.046 A 
ATOM     30  C   UNL     1       8.838   3.185   8.053  0.00  0.00    +0.044 A 
ATOM     31  C   UNL     1      10.081   3.784   7.950  0.00  0.00    +0.040 A 
ATOM     32  C   UNL     1      10.294   4.785   7.019  0.00  0.00    +0.044 A 
ATOM     33  C   UNL     1       9.265   5.188   6.188  0.00  0.00    +0.046 A 
ATOM     34 CL   UNL     1      11.854   5.535   6.893  0.00  0.00    -0.083 Cl
ATOM     35 CL   UNL     1       8.574   1.930   9.224  0.00  0.00    -0.083 Cl
ENDBRANCH  26  28
ENDBRANCH  19  24
ENDBRANCH   1  19
TORSDOF 4
