REMARK  Name = ZINC03654417
REMARK  6 active torsions:
REMARK  status: ('A' for Active; 'I' for Inactive)
REMARK    1  A    between atoms: C_1  and  C_2
REMARK    2  A    between atoms: C_2  and  O_3
REMARK    3  A    between atoms: O_3  and  C_4
REMARK    4  A    between atoms: C_7  and  C_10
REMARK    5  A    between atoms: C_12  and  C_38
REMARK    6  A    between atoms: C_28  and  C_31
REMARK                            x       y       z     vdW  Elec       q    Type
REMARK                         _______ _______ _______ _____ _____    ______ ____
ROOT
ATOM      1  C   UNL     1       1.526   0.036   6.139  0.00  0.00    +0.098 C 
ATOM      2  C   UNL     1       2.939   0.582   6.204  0.00  0.00    +0.082 C 
ATOM      3  C   UNL     1       3.966  -0.308   5.909  0.00  0.00    +0.146 C 
ATOM      4  N   UNL     1       5.221   0.163   5.955  0.00  0.00    -0.215 NA
ATOM      5  C   UNL     1       6.258  -0.568   5.597  0.00  0.00    +0.127 C 
ATOM      6  C   UNL     1       6.015  -1.911   5.049  0.00  0.00    +0.036 A 
ATOM      7  C   UNL     1       7.063  -2.702   4.580  0.00  0.00    +0.013 A 
ATOM      8  C   UNL     1       6.788  -3.930   4.017  0.00  0.00    +0.001 A 
ATOM      9  C   UNL     1       5.477  -4.359   3.892  0.00  0.00    +0.002 A 
ATOM     10  C   UNL     1       4.433  -3.582   4.358  0.00  0.00    +0.024 A 
ATOM     11  C   UNL     1       4.691  -2.390   5.013  0.00  0.00    +0.050 A 
ATOM     12  N   UNL     1       3.697  -1.636   5.632  0.00  0.00    -0.256 N 
ATOM     13  C   UNL     1       2.509  -2.219   5.992  0.00  0.00    +0.025 C 
ATOM     14  C   UNL     1       1.412  -1.470   6.270  0.00  0.00    +0.025 C 
ATOM     15  C   UNL     1       0.199  -2.032   6.682  0.00  0.00    +0.162 C 
ATOM     16  O   UNL     1      -0.761  -1.314   6.887  0.00  0.00    -0.292 OA
ATOM     17  C   UNL     1       0.060  -3.519   6.885  0.00  0.00    +0.088 C 
ATOM     18  C   UNL     1       1.440  -4.091   7.227  0.00  0.00    +0.032 C 
ATOM     19  C   UNL     1       2.405  -3.721   6.094  0.00  0.00    +0.060 C 
ATOM     20  N   UNL     1       7.531  -0.073   5.717  0.00  0.00    -0.343 N 
ATOM     21  H   UNL     1       7.673   0.821   6.066  0.00  0.00    +0.144 HD
ATOM     22  H   UNL     1       8.290  -0.616   5.451  0.00  0.00    +0.144 HD
ENDROOT
BRANCH   1  26
ATOM     23  C   UNL     1      -0.149   1.182   2.380  0.00  0.00    +0.121 A 
ATOM     24  C   UNL     1       0.991   0.392   2.421  0.00  0.00    +0.046 A 
ATOM     25  C   UNL     1       1.534   0.028   3.638  0.00  0.00    +0.008 A 
ATOM     26  C   UNL     1       0.936   0.440   4.814  0.00  0.00    -0.034 A 
ATOM     27  C   UNL     1      -0.203   1.223   4.776  0.00  0.00    +0.008 A 
ATOM     28  C   UNL     1      -0.747   1.595   3.561  0.00  0.00    +0.046 A 
BRANCH  23  29
ATOM     29  O   UNL     1      -0.682   1.547   1.184  0.00  0.00    -0.492 OA
BRANCH  29  31
ATOM     30  C   UNL     1      -0.753   1.593  -1.232  0.00  0.00    +0.048 C 
ATOM     31  C   UNL     1      -0.013   1.086   0.008  0.00  0.00    +0.225 C 
ENDBRANCH  29  31
ENDBRANCH  23  29
ENDBRANCH   1  26
BRANCH  18  32
ATOM     32  C   UNL     1       1.356  -5.590   7.353  0.00  0.00    -0.044 A 
ATOM     33  C   UNL     1       0.913  -6.349   6.286  0.00  0.00    +0.004 A 
ATOM     34  C   UNL     1       0.840  -7.725   6.400  0.00  0.00    +0.000 A 
ATOM     35  C   UNL     1       1.201  -8.341   7.583  0.00  0.00    +0.000 A 
ATOM     36  C   UNL     1       1.640  -7.581   8.652  0.00  0.00    +0.000 A 
ATOM     37  C   UNL     1       1.717  -6.206   8.537  0.00  0.00    +0.004 A 
ENDBRANCH  18  32
BRANCH   2  38
ATOM     38  C   UNL     1       3.195   1.944   6.551  0.00  0.00    +0.099 C 
ATOM     39  N   UNL     1       3.398   3.026   6.827  0.00  0.00    -0.191 NA
ENDBRANCH   2  38
TORSDOF 5
