REMARK  Name = ZINC12503499
REMARK  9 active torsions:
REMARK  status: ('A' for Active; 'I' for Inactive)
REMARK    1  A    between atoms: C_1  and  C_2
REMARK    2  A    between atoms: C_2  and  C_4
REMARK    3  A    between atoms: C_2  and  O_25
REMARK    4  A    between atoms: N_6  and  N_7
REMARK    5  A    between atoms: N_7  and  C_8
REMARK    6  A    between atoms: C_8  and  N_10
REMARK    7  A    between atoms: C_11  and  C_13
REMARK    8  A    between atoms: C_14  and  C_15
REMARK    9  A    between atoms: O_25  and  C_26
REMARK                            x       y       z     vdW  Elec       q    Type
REMARK                         _______ _______ _______ _____ _____    ______ ____
ROOT
ATOM      1  C   UNL     1      -5.305  -3.305   0.482  0.00  0.00    +0.153 C 
ATOM      2  S   UNL     1      -6.847  -2.562   0.444  0.00  0.00    -0.017 S 
ENDROOT
BRANCH   1   3
ATOM      3  N   UNL     1      -4.202  -2.559   0.694  0.00  0.00    -0.263 N 
ATOM      4  C   UNL     1      -4.314  -1.229   0.875  0.00  0.00    +0.242 C 
ATOM      5  O   UNL     1      -5.410  -0.701   0.848  0.00  0.00    -0.270 OA
ATOM      6  H   UNL     1      -3.329  -2.981   0.715  0.00  0.00    +0.157 HD
BRANCH   4   7
ATOM      7  C   UNL     1      -3.119  -0.420   1.104  0.00  0.00    +0.068 C 
ATOM      8  C   UNL     1      -3.230   0.915   1.286  0.00  0.00    +0.013 C 
BRANCH   8   9
ATOM      9  C   UNL     1      -2.030   1.727   1.516  0.00  0.00    -0.017 A 
ATOM     10  C   UNL     1      -0.769   1.139   1.550  0.00  0.00    +0.008 A 
ATOM     11  C   UNL     1       0.363   1.911   1.762  0.00  0.00    +0.001 A 
ATOM     12  C   UNL     1       0.291   3.258   1.949  0.00  0.00    +0.008 A 
ATOM     13  C   UNL     1      -0.949   3.919   1.933  0.00  0.00    -0.017 A 
ATOM     14  C   UNL     1      -2.134   3.172   1.720  0.00  0.00    -0.011 A 
ATOM     15  C   UNL     1      -3.370   3.827   1.703  0.00  0.00    +0.009 A 
ATOM     16  C   UNL     1      -3.421   5.176   1.891  0.00  0.00    +0.001 A 
ATOM     17  C   UNL     1      -2.259   5.913   2.101  0.00  0.00    +0.001 A 
ATOM     18  C   UNL     1      -1.039   5.308   2.124  0.00  0.00    +0.008 A 
ENDBRANCH   8   9
ENDBRANCH   4   7
ENDBRANCH   1   3
BRANCH   1  19
ATOM     19  N   UNL     1      -5.193  -4.636   0.301  0.00  0.00    -0.245 N 
ATOM     20  H   UNL     1      -5.987  -5.173   0.149  0.00  0.00    +0.172 HD
BRANCH  19  23
ATOM     21  C   UNL     1      -3.820  -6.575   0.151  0.00  0.00    +0.270 C 
ATOM     22  O   UNL     1      -4.812  -7.247  -0.039  0.00  0.00    -0.270 OA
ATOM     23  N   UNL     1      -3.932  -5.244   0.332  0.00  0.00    -0.232 N 
ATOM     24  H   UNL     1      -3.138  -4.707   0.484  0.00  0.00    +0.173 HD
BRANCH  21  26
ATOM     25  C   UNL     1      -1.623  -6.723  -0.990  0.00  0.00    +0.062 C 
ATOM     26  C   UNL     1      -2.463  -7.229   0.184  0.00  0.00    +0.257 C 
BRANCH  26  27
ATOM     27  O   UNL     1      -2.615  -8.647   0.085  0.00  0.00    -0.478 OA
BRANCH  27  28
ATOM     28  C   UNL     1      -1.618  -9.412   0.605  0.00  0.00    +0.140 A 
ATOM     29  C   UNL     1      -0.467  -8.814   1.095  0.00  0.00    +0.048 A 
ATOM     30  C   UNL     1       0.542  -9.593   1.627  0.00  0.00    +0.023 A 
ATOM     31  C   UNL     1       0.410 -10.970   1.663  0.00  0.00    +0.043 A 
ATOM     32  C   UNL     1      -0.735 -11.569   1.169  0.00  0.00    +0.043 A 
ATOM     33  C   UNL     1      -1.750 -10.793   0.640  0.00  0.00    +0.084 A 
ATOM     34 CL   UNL     1      -3.187 -11.546   0.022  0.00  0.00    -0.080 Cl
ATOM     35 CL   UNL     1       1.683 -11.946   2.326  0.00  0.00    -0.083 Cl
ENDBRANCH  27  28
ENDBRANCH  26  27
ENDBRANCH  21  26
ENDBRANCH  19  23
ENDBRANCH   1  19
TORSDOF 8
