REMARK  Name = ZINC21523630
REMARK  7 active torsions:
REMARK  status: ('A' for Active; 'I' for Inactive)
REMARK    1  A    between atoms: C_1  and  C_2
REMARK    2  A    between atoms: C_21  and  C_23
REMARK    3  A    between atoms: C_26  and  O_31
REMARK    4  A    between atoms: C_27  and  O_29
REMARK    5  A    between atoms: O_29  and  C_30
REMARK    6  A    between atoms: O_31  and  C_32
REMARK    7  A    between atoms: C_32  and  C_33
REMARK                            x       y       z     vdW  Elec       q    Type
REMARK                         _______ _______ _______ _____ _____    ______ ____
ROOT
ATOM      1  C   UNL     1      -0.936   3.653  -2.523  0.00  0.00    +0.068 C 
ATOM      2  C   UNL     1      -1.858   4.825  -2.302  0.00  0.00    +0.067 A 
ATOM      3  C   UNL     1      -2.461   5.175  -1.074  0.00  0.00    +0.033 A 
ATOM      4  C   UNL     1      -3.214   6.274  -1.286  0.00  0.00    +0.136 A 
ATOM      5  N   UNL     1      -3.080   6.606  -2.618  0.00  0.00    -0.193 N 
ATOM      6  N   UNL     1      -2.228   5.679  -3.212  0.00  0.00    -0.168 NA
ATOM      7  C   UNL     1      -3.686   7.682  -3.256  0.00  0.00    +0.196 A 
ATOM      8  N   UNL     1      -4.495   8.585  -2.756  0.00  0.00    -0.221 NA
ATOM      9  C   UNL     1      -5.011   9.588  -3.498  0.00  0.00    +0.081 A 
ATOM     10  C   UNL     1      -5.884  10.621  -3.083  0.00  0.00    +0.029 A 
ATOM     11  C   UNL     1      -6.323  11.566  -3.974  0.00  0.00    +0.002 A 
ATOM     12  C   UNL     1      -5.931  11.545  -5.305  0.00  0.00    +0.001 A 
ATOM     13  C   UNL     1      -5.079  10.550  -5.745  0.00  0.00    +0.017 A 
ATOM     14  C   UNL     1      -4.634   9.599  -4.860  0.00  0.00    +0.041 A 
ATOM     15  S   UNL     1      -3.567   8.182  -4.968  0.00  0.00    -0.048 S 
ATOM     16  N   UNL     1      -4.005   7.019  -0.445  0.00  0.00    -0.269 N 
ATOM     17  C   UNL     1      -4.282   6.986   0.824  0.00  0.00    +0.228 C 
ATOM     18  O   UNL     1      -4.966   7.905   1.221  0.00  0.00    -0.275 OA
ATOM     19  C   UNL     1      -3.895   6.005   1.860  0.00  0.00    +0.166 C 
ATOM     20  S   UNL     1      -2.215   5.396   1.658  0.00  0.00    -0.138 S 
ATOM     21  C   UNL     1      -2.230   4.385   0.176  0.00  0.00    +0.112 C 
ATOM     22  H   UNL     1      -4.582   7.868  -0.841  0.00  0.00    +0.156 HD
ENDROOT
BRANCH  21  23
ATOM     23  C   UNL     1      -0.905   3.675   0.062  0.00  0.00    -0.026 A 
ATOM     24  C   UNL     1       0.272   4.396   0.134  0.00  0.00    +0.009 A 
ATOM     25  C   UNL     1       1.490   3.749   0.030  0.00  0.00    +0.050 A 
ATOM     26  C   UNL     1       1.532   2.376  -0.148  0.00  0.00    +0.162 A 
ATOM     27  C   UNL     1       0.346   1.650  -0.221  0.00  0.00    +0.162 A 
ATOM     28  C   UNL     1      -0.871   2.305  -0.122  0.00  0.00    +0.054 A 
BRANCH  27  29
ATOM     29  O   UNL     1       0.382   0.302  -0.396  0.00  0.00    -0.491 OA
ATOM     30  C   UNL     1      -0.873  -0.377  -0.462  0.00  0.00    +0.277 C 
ENDBRANCH  27  29
BRANCH  26  31
ATOM     31  O   UNL     1       2.728   1.738  -0.251  0.00  0.00    -0.484 OA
BRANCH  31  32
ATOM     32  C   UNL     1       3.904   2.546  -0.167  0.00  0.00    +0.256 C 
BRANCH  32  33
ATOM     33  C   UNL     1       5.125   1.673  -0.301  0.00  0.00    +0.006 C 
ATOM     34  C   UNL     1       6.112   2.043  -1.079  0.00  0.00    +0.007 C 
ENDBRANCH  32  33
ENDBRANCH  31  32
ENDBRANCH  26  31
ENDBRANCH  21  23
TORSDOF 5
