REMARK  Name = ZINC36026771
REMARK  9 active torsions:
REMARK  status: ('A' for Active; 'I' for Inactive)
REMARK    1  A    between atoms: C_1  and  C_2
REMARK    2  A    between atoms: C_2  and  C_3
REMARK    3  A    between atoms: C_3  and  N_4
REMARK    4  A    between atoms: C_7  and  C_23
REMARK    5  A    between atoms: N_18  and  C_19
REMARK    6  A    between atoms: C_19  and  C_20
REMARK    7  A    between atoms: C_19  and  C_21
REMARK    8  A    between atoms: C_19  and  C_22
REMARK    9  A    between atoms: C_23  and  C_24
REMARK                            x       y       z     vdW  Elec       q    Type
REMARK                         _______ _______ _______ _____ _____    ______ ____
ROOT
ATOM      1  N   UNL     1      -1.411  -1.995   0.126  0.00  0.00    -0.314 N 
ATOM      2  C   UNL     1      -1.338  -2.855  -0.912  0.00  0.00    +0.201 C 
ATOM      3  O   UNL     1      -1.276  -2.549  -2.083  0.00  0.00    -0.277 OA
ATOM      4  C   UNL     1      -1.347  -4.266  -0.366  0.00  0.00    +0.023 C 
ATOM      5  N   UNL     1      -1.841  -4.131   1.026  0.00  0.00    +0.401 N 
ATOM      6  C   UNL     1      -1.458  -2.747   1.382  0.00  0.00    +0.006 C 
ATOM      7  C   UNL     1      -0.085  -2.744   2.052  0.00  0.00    +0.025 C 
ATOM      8  C   UNL     1       0.317  -1.303   2.382  0.00  0.00    +0.109 C 
ATOM      9  N   UNL     1      -0.753  -0.684   3.176  0.00  0.00    -0.286 N 
ATOM     10  C   UNL     1      -2.125  -0.702   2.650  0.00  0.00    +0.109 C 
ATOM     11  C   UNL     1      -2.506  -2.148   2.318  0.00  0.00    +0.025 C 
ATOM     12  C   UNL     1      -0.481  -0.111   4.365  0.00  0.00    +0.303 C 
ATOM     13  O   UNL     1       0.669  -0.021   4.748  0.00  0.00    -0.253 OA
ATOM     14  N   UNL     1      -1.485   0.362   5.130  0.00  0.00    -0.294 N 
ATOM     15  H   UNL     1      -2.842  -4.248   1.061  0.00  0.00    -0.082 HD
ATOM     16  H   UNL     1      -2.394   0.357   4.794  0.00  0.00    +0.151 HD
ATOM     17  H   UNL     1      -1.382  -4.793   1.633  0.00  0.00    -0.082 HD
ENDROOT
BRANCH  14  18
ATOM     18  C   UNL     1      -1.201   0.885   6.469  0.00  0.00    +0.028 C 
ATOM     19  C   UNL     1      -0.231   2.063   6.362  0.00  0.00    +0.031 C 
ATOM     20  C   UNL     1      -2.504   1.355   7.120  0.00  0.00    +0.031 C 
ATOM     21  C   UNL     1      -0.573  -0.217   7.324  0.00  0.00    +0.031 C 
ENDBRANCH  14  18
BRANCH   1  22
ATOM     22  C   UNL     1      -1.432  -0.534   0.013  0.00  0.00    +0.106 C 
BRANCH  22  24
ATOM     23  C   UNL     1      -2.913   1.473  -0.120  0.00  0.00    +0.005 C 
ATOM     24  C   UNL     1      -2.878  -0.056  -0.139  0.00  0.00    +0.015 C 
ENDBRANCH  22  24
ENDBRANCH   1  22
BRANCH   4  25
ATOM     25  C   UNL     1      -2.291  -5.149  -1.186  0.00  0.00    +0.028 C 
BRANCH  25  26
ATOM     26  C   UNL     1      -2.218  -6.567  -0.681  0.00  0.00    -0.048 A 
ATOM     27  C   UNL     1      -1.296  -7.445  -1.218  0.00  0.00    +0.003 A 
ATOM     28  C   UNL     1      -1.229  -8.746  -0.755  0.00  0.00    +0.000 A 
ATOM     29  C   UNL     1      -2.085  -9.168   0.245  0.00  0.00    +0.000 A 
ATOM     30  C   UNL     1      -3.006  -8.289   0.783  0.00  0.00    +0.000 A 
ATOM     31  C   UNL     1      -3.070  -6.987   0.323  0.00  0.00    +0.003 A 
ENDBRANCH  25  26
ENDBRANCH   4  25
TORSDOF 5
