REMARK  Name = ZINC20106835
REMARK  13 active torsions:
REMARK  status: ('A' for Active; 'I' for Inactive)
REMARK    1  A    between atoms: C_1  and  C_2
REMARK    2  A    between atoms: C_2  and  C_3
REMARK    3  A    between atoms: C_2  and  C_4
REMARK    4  A    between atoms: C_7  and  N_10
REMARK    5  A    between atoms: C_11  and  C_13
REMARK    6  A    between atoms: N_24  and  C_36
REMARK    7  A    between atoms: C_25  and  C_27
REMARK    8  A    between atoms: N_29  and  C_30
REMARK    9  A    between atoms: C_36  and  C_37
REMARK   10  A    between atoms: C_37  and  C_38
REMARK   11  A    between atoms: C_38  and  N_39
REMARK   12  A    between atoms: N_39  and  C_40
REMARK   13  A    between atoms: N_39  and  C_41
REMARK                            x       y       z     vdW  Elec       q    Type
REMARK                         _______ _______ _______ _____ _____    ______ ____
ROOT
ATOM      1  C   UNL     1       2.295   5.673   0.225  0.00  0.00    +0.123 C 
ATOM      2  C   UNL     1       1.614   6.116   1.560  0.00  0.00    +0.155 C 
ATOM      3  C   UNL     1       2.331   5.374   2.694  0.00  0.00    +0.004 C 
ATOM      4  C   UNL     1       3.538   5.934   2.835  0.00  0.00    +0.009 C 
ATOM      5  C   UNL     1       3.570   6.976   1.775  0.00  0.00    +0.127 C 
ATOM      6  C   UNL     1       3.718   6.234   0.395  0.00  0.00    +0.128 C 
ATOM      7  C   UNL     1       4.059   7.383  -0.512  0.00  0.00    +0.223 C 
ATOM      8  O   UNL     1       3.851   7.419  -1.706  0.00  0.00    -0.275 OA
ATOM      9  N   UNL     1       4.636   8.372   0.216  0.00  0.00    -0.287 N 
ATOM     10  C   UNL     1       4.611   8.046   1.663  0.00  0.00    +0.198 C 
ATOM     11  O   UNL     1       2.201   7.459   1.711  0.00  0.00    -0.358 OA
ENDROOT
BRANCH   1  13
ATOM     12  N   UNL     1       1.162   3.485   0.009  0.00  0.00    -0.285 N 
ATOM     13  C   UNL     1       2.318   4.171   0.104  0.00  0.00    +0.224 C 
ATOM     14  O   UNL     1       3.377   3.580   0.091  0.00  0.00    -0.275 OA
ATOM     15  H   UNL     1       0.206   4.025  -0.056  0.00  0.00    +0.155 HD
BRANCH  12  19
ATOM     16  C   UNL     1       1.209  -0.680  -0.037  0.00  0.00    -0.045 A 
ATOM     17  C   UNL     1       0.172  -0.009   0.585  0.00  0.00    +0.006 A 
ATOM     18  C   UNL     1       0.154   1.372   0.602  0.00  0.00    +0.023 A 
ATOM     19  C   UNL     1       1.178   2.086  -0.006  0.00  0.00    +0.033 A 
ATOM     20  C   UNL     1       2.218   1.409  -0.628  0.00  0.00    +0.023 A 
ATOM     21  C   UNL     1       2.231   0.028  -0.643  0.00  0.00    +0.006 A 
BRANCH  16  23
ATOM     22  C   UNL     1       1.211  -2.681  -1.502  0.00  0.00    +0.012 C 
ATOM     23  C   UNL     1       1.226  -2.187  -0.054  0.00  0.00    +0.013 C 
ATOM     24  C   UNL     1       2.491  -2.691   0.643  0.00  0.00    +0.012 C 
ENDBRANCH  16  23
ENDBRANCH  12  19
ENDBRANCH   1  13
BRANCH  10  25
ATOM     25  C   UNL     1       5.952   7.527   2.112  0.00  0.00    +0.237 C 
ATOM     26  O   UNL     1       6.773   7.178   1.290  0.00  0.00    -0.274 OA
ATOM     27  N   UNL     1       6.240   7.449   3.426  0.00  0.00    -0.311 N 
ATOM     28  H   UNL     1       5.495   7.765   4.172  0.00  0.00    +0.149 HD
BRANCH  27  29
ATOM     29  C   UNL     1       7.544   6.944   3.862  0.00  0.00    +0.073 C 
ATOM     30  C   UNL     1       7.503   5.416   3.931  0.00  0.00    +0.022 C 
ATOM     31  C   UNL     1       8.865   4.889   4.386  0.00  0.00    +0.002 C 
ATOM     32  C   UNL     1       9.194   5.453   5.770  0.00  0.00    +0.000 C 
ATOM     33  C   UNL     1       9.235   6.981   5.701  0.00  0.00    +0.002 C 
ATOM     34  C   UNL     1       7.873   7.508   5.246  0.00  0.00    +0.022 C 
ENDBRANCH  27  29
ENDBRANCH  10  25
BRANCH   9  35
ATOM     35  C   UNL     1       5.207   9.597  -0.351  0.00  0.00    +0.107 C 
BRANCH  35  36
ATOM     36  C   UNL     1       4.126  10.677  -0.423  0.00  0.00    +0.000 C 
BRANCH  36  37
ATOM     37  C   UNL     1       4.723  11.956  -1.015  0.00  0.00    -0.078 C 
BRANCH  37  38
ATOM     38  N   UNL     1       3.685  12.994  -1.083  0.00  0.00    +0.376 N 
ATOM     39  C   UNL     1       4.268  14.299  -1.421  0.00  0.00    -0.097 C 
ATOM     40  C   UNL     1       2.633  12.624  -2.039  0.00  0.00    -0.097 C 
ATOM     41  H   UNL     1       3.224  13.077  -0.088  0.00  0.00    -0.083 HD
ENDBRANCH  37  38
ENDBRANCH  36  37
ENDBRANCH  35  36
ENDBRANCH   9  35
TORSDOF 9
