REMARK  Name = ZINC09356620
REMARK  4 active torsions:
REMARK  status: ('A' for Active; 'I' for Inactive)
REMARK    1  A    between atoms: C_21  and  C_32
REMARK    2  A    between atoms: C_23  and  C_25
REMARK    3  A    between atoms: C_25  and  C_27
REMARK    4  A    between atoms: C_32  and  C_34
REMARK                            x       y       z     vdW  Elec       q    Type
REMARK                         _______ _______ _______ _____ _____    ______ ____
ROOT
ATOM      1  C   UNL     1       2.498   4.112   0.368  0.00  0.00    +0.001 A 
ATOM      2  C   UNL     1       3.662   3.474  -0.024  0.00  0.00    +0.000 A 
ATOM      3  C   UNL     1       3.635   2.142  -0.401  0.00  0.00    +0.006 A 
ATOM      4  C   UNL     1       2.447   1.448  -0.388  0.00  0.00    -0.020 A 
ATOM      5  C   UNL     1       1.262   2.085   0.001  0.00  0.00    -0.019 A 
ATOM      6  C   UNL     1       1.300   3.427   0.383  0.00  0.00    +0.008 A 
ATOM      7  C   UNL     1      -0.016   1.345   0.009  0.00  0.00    +0.022 C 
ATOM      8  C   UNL     1       0.002  -0.004   0.002  0.00  0.00    +0.054 C 
ATOM      9  C   UNL     1       2.386  -0.004  -0.785  0.00  0.00    +0.107 C 
ATOM     10  C   UNL     1       3.633  -0.766  -0.343  0.00  0.00    +0.107 C 
ATOM     11  C   UNL     1       4.348  -0.107   0.783  0.00  0.00    -0.008 A 
ATOM     12  C   UNL     1       3.943   0.256   2.050  0.00  0.00    +0.006 A 
ATOM     13  C   UNL     1       4.888   0.870   2.864  0.00  0.00    +0.000 A 
ATOM     14  C   UNL     1       6.174   1.106   2.422  0.00  0.00    +0.002 A 
ATOM     15  C   UNL     1       6.590   0.745   1.151  0.00  0.00    +0.023 A 
ATOM     16  C   UNL     1       5.653   0.127   0.323  0.00  0.00    +0.038 A 
ATOM     17  N   UNL     1       5.795  -0.332  -0.976  0.00  0.00    -0.284 N 
ATOM     18  C   UNL     1       4.650  -0.875  -1.449  0.00  0.00    +0.231 C 
ATOM     19  O   UNL     1       4.476  -1.355  -2.549  0.00  0.00    -0.274 OA
ATOM     20  C   UNL     1       3.087  -2.155   0.047  0.00  0.00    +0.108 C 
ATOM     21  C   UNL     1       1.715  -1.793   0.673  0.00  0.00    +0.143 C 
ATOM     22  H   UNL     1       6.617  -0.271  -1.486  0.00  0.00    +0.155 HD
ATOM     23  N   UNL     1       1.256  -0.782  -0.337  0.00  0.00    -0.383 NA
ATOM     24  H   UNL     1       0.983  -1.336  -1.157  0.00  0.00    +0.127 HD
ENDROOT
BRANCH  21  25
ATOM     25  C   UNL     1       0.738  -2.923   0.472  0.00  0.00    +0.217 C 
ATOM     26  O   UNL     1      -0.059  -2.881  -0.443  0.00  0.00    -0.287 OA
BRANCH  25  27
ATOM     27  C   UNL     1       0.749  -4.030   1.350  0.00  0.00    +0.172 A 
ATOM     28  C   UNL     1      -0.089  -5.126   1.287  0.00  0.00    +0.053 A 
ATOM     29  C   UNL     1       0.279  -5.969   2.345  0.00  0.00    +0.042 A 
ATOM     30  C   UNL     1       1.296  -5.367   3.002  0.00  0.00    +0.196 A 
ATOM     31  O   UNL     1       1.576  -4.204   2.403  0.00  0.00    -0.460 OA
ENDBRANCH  25  27
ENDBRANCH  21  25
BRANCH  20  32
ATOM     32  C   UNL     1       2.911  -3.026  -1.170  0.00  0.00    +0.170 C 
ATOM     33  O   UNL     1       2.744  -2.520  -2.259  0.00  0.00    -0.292 OA
BRANCH  32  34
ATOM     34  C   UNL     1       2.943  -4.490  -1.037  0.00  0.00    +0.018 A 
ATOM     35  C   UNL     1       3.142  -5.078   0.217  0.00  0.00    +0.014 A 
ATOM     36  C   UNL     1       3.165  -6.450   0.336  0.00  0.00    +0.039 A 
ATOM     37  C   UNL     1       3.003  -7.249  -0.786  0.00  0.00    +0.123 A 
ATOM     38  C   UNL     1       2.811  -6.673  -2.033  0.00  0.00    +0.039 A 
ATOM     39  C   UNL     1       2.780  -5.302  -2.165  0.00  0.00    +0.014 A 
ATOM     40  F   UNL     1       3.032  -8.594  -0.663  0.00  0.00    -0.205 F 
ENDBRANCH  32  34
ENDBRANCH  20  32
TORSDOF 4
