REMARK  Name = ZINC02672507
REMARK  6 active torsions:
REMARK  status: ('A' for Active; 'I' for Inactive)
REMARK    1  A    between atoms: C_1  and  C_2
REMARK    2  A    between atoms: C_2  and  C_3
REMARK    3  A    between atoms: C_2  and  C_4
REMARK    4  A    between atoms: C_4  and  N_5
REMARK    5  A    between atoms: N_16  and  C_19
REMARK    6  A    between atoms: C_19  and  C_20
REMARK                            x       y       z     vdW  Elec       q    Type
REMARK                         _______ _______ _______ _____ _____    ______ ____
ROOT
ATOM      1  N   UNL     1      -5.739   2.700  -0.005  0.00  0.00    -0.255 N 
ATOM      2  C   UNL     1      -4.420   2.621  -0.050  0.00  0.00    +0.259 C 
ATOM      3  O   UNL     1      -3.845   1.557  -0.166  0.00  0.00    -0.269 OA
ATOM      4  C   UNL     1      -3.678   3.907   0.056  0.00  0.00    +0.089 C 
ATOM      5  C   UNL     1      -2.317   4.143   0.044  0.00  0.00    +0.065 C 
ATOM      6  C   UNL     1      -1.230   3.142   0.089  0.00  0.00    +0.010 A 
ATOM      7  C   UNL     1      -1.217   1.751   0.147  0.00  0.00    +0.010 A 
ATOM      8  C   UNL     1      -0.012   1.079   0.182  0.00  0.00    +0.001 A 
ATOM      9  C   UNL     1       1.179   1.787   0.149  0.00  0.00    +0.002 A 
ATOM     10  C   UNL     1       1.177   3.166   0.086  0.00  0.00    +0.024 A 
ATOM     11  C   UNL     1      -0.027   3.861   0.055  0.00  0.00    +0.045 A 
ATOM     12  N   UNL     1      -0.306   5.222  -0.006  0.00  0.00    -0.262 N 
ATOM     13  C   UNL     1      -1.631   5.450  -0.016  0.00  0.00    +0.253 C 
ATOM     14  O   UNL     1      -2.170   6.539  -0.064  0.00  0.00    -0.270 OA
ATOM     15  S   UNL     1      -5.034   5.064   0.194  0.00  0.00    -0.060 S 
ATOM     16  C   UNL     1      -6.372   3.884   0.118  0.00  0.00    +0.121 C 
ATOM     17  S   UNL     1      -8.056   4.184   0.186  0.00  0.00    -0.027 S 
ENDROOT
BRANCH   1  18
ATOM     18  C   UNL     1      -6.532   1.472  -0.098  0.00  0.00    +0.118 C 
BRANCH  18  20
ATOM     19  C   UNL     1      -5.541   0.875  -2.313  0.00  0.00    +0.009 C 
ATOM     20  C   UNL     1      -6.843   1.176  -1.567  0.00  0.00    +0.001 C 
ATOM     21  C   UNL     1      -7.774  -0.035  -1.657  0.00  0.00    +0.009 C 
ENDBRANCH  18  20
ENDBRANCH   1  18
BRANCH  12  22
ATOM     22  C   UNL     1       0.713   6.273  -0.056  0.00  0.00    +0.149 C 
BRANCH  22  23
ATOM     23  C   UNL     1       1.060   6.569  -1.492  0.00  0.00    -0.030 A 
ATOM     24  C   UNL     1       2.084   5.876  -2.112  0.00  0.00    +0.006 A 
ATOM     25  C   UNL     1       2.400   6.143  -3.431  0.00  0.00    +0.020 A 
ATOM     26  C   UNL     1       1.699   7.111  -4.127  0.00  0.00    +0.041 A 
ATOM     27  C   UNL     1       0.678   7.808  -3.505  0.00  0.00    +0.020 A 
ATOM     28  C   UNL     1       0.360   7.536  -2.187  0.00  0.00    +0.006 A 
ATOM     29 CL   UNL     1       2.099   7.451  -5.782  0.00  0.00    -0.084 Cl
ENDBRANCH  22  23
ENDBRANCH  12  22
TORSDOF 4
