REMARK  Name = ZINC10013829
REMARK  8 active torsions:
REMARK  status: ('A' for Active; 'I' for Inactive)
REMARK    1  A    between atoms: C_1  and  C_2
REMARK    2  A    between atoms: C_5  and  C_8
REMARK    3  A    between atoms: C_14  and  C_22
REMARK    4  A    between atoms: C_16  and  C_20
REMARK    5  A    between atoms: C_17  and  N_19
REMARK    6  A    between atoms: C_27  and  O_28
REMARK    7  A    between atoms: O_28  and  C_29
REMARK    8  A    between atoms: C_29  and  C_31
REMARK                            x       y       z     vdW  Elec       q    Type
REMARK                         _______ _______ _______ _____ _____    ______ ____
ROOT
ATOM      1  C   UNL     1       0.091  -3.886  -0.288  0.00  0.00    +0.084 C 
ATOM      2  N   UNL     1       0.107  -4.632  -1.360  0.00  0.00    -0.150 NA
ATOM      3  N   UNL     1      -0.007  -5.990  -1.060  0.00  0.00    -0.115 NA
ATOM      4  C   UNL     1      -0.045  -6.202   0.207  0.00  0.00    +0.227 C 
ATOM      5  C   UNL     1      -0.083  -4.832   0.878  0.00  0.00    +0.140 C 
ATOM      6  C   UNL     1       1.135  -4.785   1.807  0.00  0.00    +0.086 C 
ATOM      7  C   UNL     1       1.270  -6.109   2.509  0.00  0.00    +0.095 C 
ATOM      8  C   UNL     1       0.725  -7.262   2.068  0.00  0.00    +0.200 C 
ATOM      9  O   UNL     1      -0.031  -7.337   0.939  0.00  0.00    -0.425 OA
ENDROOT
BRANCH   1  14
ATOM     10  C   UNL     1       0.601   1.835  -0.053  0.00  0.00    +0.044 C 
ATOM     11  C   UNL     1       0.467   0.336  -0.114  0.00  0.00    -0.050 A 
ATOM     12  C   UNL     1       0.499  -0.308  -1.339  0.00  0.00    +0.004 A 
ATOM     13  C   UNL     1       0.378  -1.681  -1.404  0.00  0.00    +0.010 A 
ATOM     14  C   UNL     1       0.222  -2.421  -0.228  0.00  0.00    -0.001 A 
ATOM     15  C   UNL     1       0.191  -1.763   1.005  0.00  0.00    +0.010 A 
ATOM     16  C   UNL     1       0.319  -0.391   1.054  0.00  0.00    +0.004 A 
ENDBRANCH   1  14
BRANCH   6  17
ATOM     17  C   UNL     1       2.377  -4.513   0.997  0.00  0.00    +0.004 A 
ATOM     18  C   UNL     1       2.752  -5.385  -0.007  0.00  0.00    +0.008 A 
ATOM     19  C   UNL     1       3.890  -5.136  -0.751  0.00  0.00    +0.001 A 
ATOM     20  C   UNL     1       4.657  -4.015  -0.492  0.00  0.00    +0.004 A 
ATOM     21  C   UNL     1       4.286  -3.140   0.510  0.00  0.00    +0.047 A 
ATOM     22  C   UNL     1       3.141  -3.384   1.254  0.00  0.00    +0.136 A 
BRANCH  22  23
ATOM     23  O   UNL     1       2.771  -2.522   2.237  0.00  0.00    -0.422 OA
BRANCH  23  24
ATOM     24  C   UNL     1       3.199  -2.770   3.491  0.00  0.00    +0.346 C 
ATOM     25  O   UNL     1       3.976  -3.680   3.698  0.00  0.00    -0.244 OA
BRANCH  24  26
ATOM     26  C   UNL     1       2.724  -1.935   4.612  0.00  0.00    +0.078 A 
ATOM     27  C   UNL     1       1.826  -0.891   4.378  0.00  0.00    +0.016 A 
ATOM     28  C   UNL     1       1.386  -0.116   5.430  0.00  0.00    +0.001 A 
ATOM     29  C   UNL     1       1.831  -0.369   6.716  0.00  0.00    +0.001 A 
ATOM     30  C   UNL     1       2.720  -1.401   6.956  0.00  0.00    +0.021 A 
ATOM     31  C   UNL     1       3.166  -2.190   5.913  0.00  0.00    +0.055 A 
ATOM     32 CL   UNL     1       4.276  -3.489   6.217  0.00  0.00    -0.083 Cl
ENDBRANCH  24  26
ENDBRANCH  23  24
ENDBRANCH  22  23
ENDBRANCH   6  17
BRANCH   8  33
ATOM     33  N   UNL     1       0.937  -8.409   2.793  0.00  0.00    -0.328 N 
ATOM     34  H   UNL     1       1.470  -8.378   3.603  0.00  0.00    +0.145 HD
ATOM     35  H   UNL     1       0.555  -9.249   2.495  0.00  0.00    +0.145 HD
ENDBRANCH   8  33
BRANCH   7  36
ATOM     36  C   UNL     1       2.026  -6.149   3.724  0.00  0.00    +0.100 C 
ATOM     37  N   UNL     1       2.626  -6.180   4.688  0.00  0.00    -0.191 NA
ENDBRANCH   7  36
TORSDOF 7
