REMARK  Name = ZINC09007956
REMARK  13 active torsions:
REMARK  status: ('A' for Active; 'I' for Inactive)
REMARK    1  A    between atoms: C_1  and  C_2
REMARK    2  A    between atoms: C_2  and  N_61
REMARK    3  A    between atoms: C_3  and  C_4
REMARK    4  A    between atoms: C_3  and  N_61
REMARK    5  A    between atoms: C_5  and  C_6
REMARK    6  A    between atoms: C_5  and  N_61
REMARK    7  A    between atoms: C_6  and  C_7
REMARK    8  A    between atoms: C_7  and  N_8
REMARK    9  A    between atoms: C_9  and  C_27
REMARK   10  A    between atoms: C_12  and  C_13
REMARK   11  A    between atoms: C_12  and  O_22
REMARK   12  A    between atoms: C_16  and  O_20
REMARK   13  A    between atoms: O_20  and  C_21
REMARK                            x       y       z     vdW  Elec       q    Type
REMARK                         _______ _______ _______ _____ _____    ______ ____
ROOT
ATOM      1  N   UNL     1       3.812   6.852   0.353  0.00  0.00    -0.284 N 
ATOM      2  C   UNL     1       4.783   6.712   1.442  0.00  0.00    +0.144 C 
ATOM      3  C   UNL     1       6.030   7.446   1.006  0.00  0.00    +0.071 C 
ATOM      4  C   UNL     1       7.207   7.577   1.716  0.00  0.00    +0.133 C 
ATOM      5  C   UNL     1       5.749   7.973  -0.264  0.00  0.00    +0.249 C 
ATOM      6  O   UNL     1       6.509   8.636  -0.946  0.00  0.00    -0.282 OA
ATOM      7  C   UNL     1       4.362   7.581  -0.632  0.00  0.00    +0.288 C 
ATOM      8  O   UNL     1       3.808   7.877  -1.671  0.00  0.00    -0.266 OA
ENDROOT
BRANCH   4   9
ATOM      9  C   UNL     1       8.381   8.202   1.087  0.00  0.00    +0.019 A 
ATOM     10  C   UNL     1       8.824   7.762  -0.166  0.00  0.00    +0.015 A 
ATOM     11  C   UNL     1       9.919   8.353  -0.753  0.00  0.00    +0.048 A 
ATOM     12  C   UNL     1      10.592   9.379  -0.100  0.00  0.00    +0.138 A 
ATOM     13  C   UNL     1      10.160   9.818   1.148  0.00  0.00    +0.083 A 
ATOM     14  C   UNL     1       9.062   9.236   1.742  0.00  0.00    +0.035 A 
ATOM     15 CL   UNL     1      11.005  11.100   1.958  0.00  0.00    -0.080 Cl
BRANCH  12  16
ATOM     16  O   UNL     1      11.675   9.955  -0.680  0.00  0.00    -0.494 OA
ATOM     17  C   UNL     1      12.066   9.458  -1.962  0.00  0.00    +0.277 C 
ENDBRANCH  12  16
ENDBRANCH   4   9
BRANCH   2  18
ATOM     18  C   UNL     1       5.098   5.256   1.669  0.00  0.00    -0.021 A 
ATOM     19  C   UNL     1       5.236   4.402   0.591  0.00  0.00    +0.006 A 
ATOM     20  C   UNL     1       5.529   3.068   0.798  0.00  0.00    +0.002 A 
ATOM     21  C   UNL     1       5.675   2.584   2.085  0.00  0.00    +0.020 A 
ATOM     22  C   UNL     1       5.532   3.437   3.165  0.00  0.00    +0.041 A 
ATOM     23  C   UNL     1       5.243   4.774   2.956  0.00  0.00    +0.025 A 
ATOM     24 CL   UNL     1       5.714   2.830   4.781  0.00  0.00    -0.084 Cl
ENDBRANCH   2  18
BRANCH   4  25
ATOM     25  O   UNL     1       7.281   7.131   2.989  0.00  0.00    -0.506 OA
ATOM     26  H   UNL     1       8.198   7.303   3.350  0.00  0.00    +0.292 HD
ENDBRANCH   4  25
BRANCH   1  27
ATOM     27  C   UNL     1       2.458   6.292   0.343  0.00  0.00    +0.107 C 
BRANCH  27  28
ATOM     28  C   UNL     1       2.490   4.891  -0.271  0.00  0.00    +0.000 C 
BRANCH  28  29
ATOM     29  C   UNL     1       1.076   4.306  -0.281  0.00  0.00    -0.077 C 
BRANCH  29  30
ATOM     30  N   UNL     1       1.128   2.947  -0.860  0.00  0.00    +0.379 N 
ATOM     31  H   UNL     1       1.912   2.435  -0.438  0.00  0.00    -0.082 HD
BRANCH  30  33
ATOM     32  C   UNL     1       0.037   0.761  -0.979  0.00  0.00    -0.017 C 
ATOM     33  C   UNL     1      -0.129   2.226  -0.569  0.00  0.00    -0.082 C 
ENDBRANCH  30  33
BRANCH  30  34
ATOM     34  C   UNL     1       1.338   3.028  -2.321  0.00  0.00    -0.082 C 
ATOM     35  C   UNL     1       0.176   3.765  -2.990  0.00  0.00    -0.017 C 
ENDBRANCH  30  34
ENDBRANCH  29  30
ENDBRANCH  28  29
ENDBRANCH  27  28
ENDBRANCH   1  27
TORSDOF 10
