REMARK  Name = ZINC20558192
REMARK  4 active torsions:
REMARK  status: ('A' for Active; 'I' for Inactive)
REMARK    1  A    between atoms: C_1  and  O_2
REMARK    2  A    between atoms: O_2  and  C_3
REMARK    3  A    between atoms: C_9  and  C_11
REMARK    4  A    between atoms: C_12  and  N_16
REMARK                            x       y       z     vdW  Elec       q    Type
REMARK                         _______ _______ _______ _____ _____    ______ ____
ROOT
ATOM      1  C   UNL     1       0.607  -0.608  -1.057  0.00  0.00    +0.167 C 
ATOM      2  C   UNL     1       1.165   0.148  -2.048  0.00  0.00    +0.061 C 
ATOM      3  C   UNL     1       1.787  -0.476  -3.139  0.00  0.00    +0.024 C 
ATOM      4  C   UNL     1       2.389   0.339  -4.206  0.00  0.00    +0.172 C 
ATOM      5  N   UNL     1       2.414   1.689  -4.251  0.00  0.00    -0.200 N 
ATOM      6  O   UNL     1       3.091   2.034  -5.451  0.00  0.00    -0.357 OA
ATOM      7  C   UNL     1       3.426   0.874  -6.042  0.00  0.00    +0.264 C 
ATOM      8  N   UNL     1       3.004  -0.129  -5.283  0.00  0.00    -0.189 NA
ATOM      9  C   UNL     1       1.837  -1.873  -3.212  0.00  0.00    +0.015 C 
ATOM     10  C   UNL     1       1.279  -2.630  -2.223  0.00  0.00    +0.055 C 
ATOM     11  C   UNL     1       0.662  -2.011  -1.130  0.00  0.00    +0.220 C 
ATOM     12  O   UNL     1       0.122  -2.753  -0.159  0.00  0.00    -0.284 OA
ATOM     13  H   UNL     1       2.043   2.300  -3.595  0.00  0.00    +0.209 HD
ENDROOT
BRANCH   7  14
ATOM     14  C   UNL     1       4.117   0.744  -7.268  0.00  0.00    +0.097 A 
ATOM     15  C   UNL     1       4.602   1.742  -8.116  0.00  0.00    +0.044 A 
ATOM     16  C   UNL     1       5.242   1.293  -9.254  0.00  0.00    +0.031 A 
ATOM     17  C   UNL     1       5.353  -0.039  -9.464  0.00  0.00    +0.048 A 
ATOM     18  S   UNL     1       4.606  -0.737  -8.132  0.00  0.00    -0.090 S 
BRANCH  15  19
ATOM     19  N   UNL     1       4.449   3.098  -7.833  0.00  0.00    -0.357 N 
ATOM     20  H   UNL     1       3.994   3.376  -7.024  0.00  0.00    +0.142 HD
ATOM     21  H   UNL     1       4.799   3.763  -8.446  0.00  0.00    +0.142 HD
ENDBRANCH  15  19
ENDBRANCH   7  14
BRANCH   1  23
ATOM     22  C   UNL     1      -0.017   1.425   0.010  0.00  0.00    +0.277 C 
ATOM     23  O   UNL     1       0.002  -0.004   0.002  0.00  0.00    -0.491 OA
ENDBRANCH   1  23
TORSDOF 3
