REMARK  Name = ZINC43761577
REMARK  4 active torsions:
REMARK  status: ('A' for Active; 'I' for Inactive)
REMARK    1  A    between atoms: C_1  and  C_2
REMARK    2  A    between atoms: C_8  and  C_16
REMARK    3  A    between atoms: C_8  and  C_17
REMARK    4  A    between atoms: N_11  and  N_12
REMARK                            x       y       z     vdW  Elec       q    Type
REMARK                         _______ _______ _______ _____ _____    ______ ____
ROOT
ATOM      1  C   UNL     1      -0.019   1.526   0.010  0.00  0.00    +0.018 C 
ATOM      2  C   UNL     1       0.002  -0.004   0.002  0.00  0.00    +0.018 C 
ATOM      3  C   UNL     1      -1.405  -0.619   0.163  0.00  0.00    +0.040 C 
ATOM      4  C   UNL     1      -1.535  -0.890   1.644  0.00  0.00    -0.030 C 
ATOM      5  C   UNL     1      -0.367  -0.879   2.228  0.00  0.00    -0.026 C 
ATOM      6  C   UNL     1       0.738  -0.603   1.232  0.00  0.00    +0.029 C 
ATOM      7  C   UNL     1       1.293  -1.949   0.725  0.00  0.00    -0.023 C 
ATOM      8  C   UNL     1       1.490  -1.777  -0.788  0.00  0.00    +0.060 C 
ATOM      9  C   UNL     1       0.688  -0.566  -1.218  0.00  0.00    +0.044 C 
ATOM     10  N   UNL     1       0.592  -0.109  -2.410  0.00  0.00    -0.187 NA
ATOM     11  C   UNL     1       2.631  -2.256   1.400  0.00  0.00    +0.012 C 
ATOM     12  C   UNL     1       0.290  -3.071   1.002  0.00  0.00    +0.012 C 
ENDROOT
BRANCH  10  13
ATOM     13  N   UNL     1       1.286  -0.730  -3.456  0.00  0.00    -0.191 N 
ATOM     14  C   UNL     1       1.185  -0.249  -4.711  0.00  0.00    +0.317 C 
ATOM     15  O   UNL     1       1.787  -0.788  -5.619  0.00  0.00    -0.251 OA
ATOM     16  N   UNL     1       0.415   0.829  -4.959  0.00  0.00    -0.312 N 
ATOM     17  H   UNL     1       1.840  -1.506  -3.277  0.00  0.00    +0.179 HD
ATOM     18  H   UNL     1      -0.066   1.259  -4.235  0.00  0.00    +0.147 HD
ATOM     19  H   UNL     1       0.342   1.175  -5.863  0.00  0.00    +0.147 HD
ENDBRANCH  10  13
TORSDOF 1
