REMARK  Name = ZINC28711451
REMARK  11 active torsions:
REMARK  status: ('A' for Active; 'I' for Inactive)
REMARK    1  A    between atoms: C_1  and  C_2
REMARK    2  A    between atoms: C_2  and  C_3
REMARK    3  A    between atoms: C_2  and  N_4
REMARK    4  A    between atoms: N_4  and  C_5
REMARK    5  A    between atoms: C_5  and  C_6
REMARK    6  A    between atoms: C_6  and  C_8
REMARK    7  A    between atoms: C_6  and  O_34
REMARK    8  A    between atoms: C_11  and  C_14
REMARK    9  A    between atoms: C_17  and  N_21
REMARK   10  A    between atoms: C_23  and  C_28
REMARK   11  A    between atoms: C_28  and  N_29
REMARK                            x       y       z     vdW  Elec       q    Type
REMARK                         _______ _______ _______ _____ _____    ______ ____
ROOT
ATOM      1  C   UNL     1      -2.446   3.938   0.047  0.00  0.00    +0.019 A 
ATOM      2  C   UNL     1      -2.615   4.970   0.969  0.00  0.00    +0.013 A 
ATOM      3  C   UNL     1      -3.787   5.696   0.983  0.00  0.00    +0.024 A 
ATOM      4  C   UNL     1      -4.801   5.400   0.079  0.00  0.00    +0.042 A 
ATOM      5  C   UNL     1      -4.636   4.373  -0.842  0.00  0.00    +0.062 A 
ATOM      6  C   UNL     1      -3.462   3.646  -0.864  0.00  0.00    +0.133 A 
ATOM      7  F   UNL     1      -3.299   2.651  -1.763  0.00  0.00    -0.205 F 
ENDROOT
BRANCH   1  11
ATOM      8  C   UNL     1       1.171   1.791  -0.001  0.00  0.00    +0.068 A 
ATOM      9  C   UNL     1      -0.012   1.076   0.023  0.00  0.00    +0.026 A 
ATOM     10  C   UNL     1      -1.216   1.759   0.033  0.00  0.00    +0.012 A 
ATOM     11  C   UNL     1      -1.185   3.157   0.030  0.00  0.00    +0.003 A 
ATOM     12  C   UNL     1       0.049   3.803   0.007  0.00  0.00    +0.119 A 
ATOM     13  N   UNL     1       1.169   3.110  -0.007  0.00  0.00    -0.257 NA
BRANCH   8  14
ATOM     14  C   UNL     1       2.484   1.052  -0.018  0.00  0.00    +0.146 C 
BRANCH  14  15
ATOM     15  O   UNL     1       2.239  -0.352  -0.124  0.00  0.00    -0.388 OA
ATOM     16  H   UNL     1       1.654  -0.868   0.652  0.00  0.00    +0.210 HD
ENDBRANCH  14  15
BRANCH  14  17
ATOM     17  C   UNL     1       3.315   1.516  -1.216  0.00  0.00    -0.044 C 
BRANCH  17  18
ATOM     18  N   UNL     1       4.595   0.795  -1.233  0.00  0.00    +0.382 N 
ATOM     19  H   UNL     1       4.392  -0.283  -1.306  0.00  0.00    -0.085 HD
ATOM     20  H   UNL     1       5.130   1.005  -0.295  0.00  0.00    -0.085 HD
BRANCH  18  22
ATOM     21  C   UNL     1       6.897   0.969  -2.052  0.00  0.00    -0.014 C 
ATOM     22  C   UNL     1       5.421   1.216  -2.372  0.00  0.00    -0.078 C 
ATOM     23  C   UNL     1       5.027   0.412  -3.613  0.00  0.00    -0.014 C 
ENDBRANCH  18  22
ENDBRANCH  17  18
ENDBRANCH  14  17
ENDBRANCH   8  14
ENDBRANCH   1  11
BRANCH   4  24
ATOM     24  N   UNL     1      -5.989   6.138   0.096  0.00  0.00    -0.234 N 
ATOM     25  C   UNL     1      -7.085   6.017  -0.878  0.00  0.00    +0.163 C 
ATOM     26  C   UNL     1      -8.125   7.044  -0.388  0.00  0.00    +0.217 C 
ATOM     27  O   UNL     1      -7.508   7.635   0.792  0.00  0.00    -0.443 OA
ATOM     28  C   UNL     1      -6.311   7.074   0.998  0.00  0.00    +0.408 C 
ATOM     29  O   UNL     1      -5.583   7.386   1.920  0.00  0.00    -0.226 OA
BRANCH  26  30
ATOM     30  C   UNL     1      -8.368   8.110  -1.458  0.00  0.00    +0.191 C 
BRANCH  30  31
ATOM     31  N   UNL     1      -9.376   9.060  -0.981  0.00  0.00    -0.248 N 
ATOM     32  C   UNL     1      -9.224  10.402  -0.897  0.00  0.00    +0.130 A 
ATOM     33  C   UNL     1     -10.392  10.884  -0.411  0.00  0.00    +0.156 A 
ATOM     34  N   UNL     1     -11.187   9.827  -0.216  0.00  0.00    -0.138 NA
ATOM     35  N   UNL     1     -10.556   8.761  -0.563  0.00  0.00    -0.066 NA
ENDBRANCH  30  31
ENDBRANCH  26  30
ENDBRANCH   4  24
TORSDOF 9
