REMARK  Name = ZINC38669050
REMARK  11 active torsions:
REMARK  status: ('A' for Active; 'I' for Inactive)
REMARK    1  A    between atoms: C_1  and  C_2
REMARK    2  A    between atoms: C_2  and  O_3
REMARK    3  A    between atoms: O_3  and  C_4
REMARK    4  A    between atoms: C_4  and  C_6
REMARK    5  A    between atoms: C_9  and  O_12
REMARK    6  A    between atoms: O_12  and  C_13
REMARK    7  A    between atoms: C_17  and  C_19
REMARK    8  A    between atoms: C_22  and  O_26
REMARK    9  A    between atoms: C_24  and  O_25
REMARK   10  A    between atoms: O_26  and  C_27
REMARK   11  A    between atoms: C_27  and  C_28
REMARK                            x       y       z     vdW  Elec       q    Type
REMARK                         _______ _______ _______ _____ _____    ______ ____
ROOT
ATOM      1  C   UNL     1       3.539  -5.291   5.750  0.00  0.00    +0.153 C 
ATOM      2  C   UNL     1       3.098  -6.150   4.809  0.00  0.00    +0.176 C 
ATOM      3  N   UNL     1       3.357  -7.414   5.163  0.00  0.00    -0.182 NA
ATOM      4  N   UNL     1       3.931  -7.543   6.247  0.00  0.00    -0.294 N 
ATOM      5  C   UNL     1       4.151  -6.197   6.805  0.00  0.00    +0.199 C 
ATOM      6  H   UNL     1       4.194  -8.381   6.658  0.00  0.00    +0.184 HD
ENDROOT
BRANCH   5   7
ATOM      7  C   UNL     1       3.433  -6.044   8.121  0.00  0.00    +0.025 A 
ATOM      8  C   UNL     1       2.490  -6.977   8.506  0.00  0.00    +0.013 A 
ATOM      9  C   UNL     1       1.831  -6.840   9.712  0.00  0.00    +0.046 A 
ATOM     10  C   UNL     1       2.114  -5.763  10.540  0.00  0.00    +0.124 A 
ATOM     11  C   UNL     1       3.060  -4.825  10.157  0.00  0.00    +0.091 A 
ATOM     12  C   UNL     1       3.725  -4.969   8.948  0.00  0.00    +0.126 A 
BRANCH  12  13
ATOM     13  O   UNL     1       4.657  -4.054   8.572  0.00  0.00    -0.506 OA
ATOM     14  H   UNL     1       4.299  -3.313   8.065  0.00  0.00    +0.292 HD
ENDBRANCH  12  13
BRANCH  10  15
ATOM     15  O   UNL     1       1.465  -5.628  11.727  0.00  0.00    -0.487 OA
BRANCH  15  16
ATOM     16  C   UNL     1       0.503  -6.631  12.057  0.00  0.00    +0.266 C 
BRANCH  16  17
ATOM     17  C   UNL     1      -0.110  -6.316  13.398  0.00  0.00    +0.008 A 
ATOM     18  C   UNL     1       0.288  -5.189  14.092  0.00  0.00    +0.011 A 
ATOM     19  C   UNL     1      -0.273  -4.900  15.322  0.00  0.00    +0.039 A 
ATOM     20  C   UNL     1      -1.234  -5.739  15.859  0.00  0.00    +0.125 A 
ATOM     21  C   UNL     1      -1.633  -6.868  15.163  0.00  0.00    +0.058 A 
ATOM     22  C   UNL     1      -1.075  -7.153  13.930  0.00  0.00    +0.050 A 
ATOM     23 CL   UNL     1      -1.579  -8.564  13.055  0.00  0.00    -0.083 Cl
ATOM     24  F   UNL     1      -1.782  -5.457  17.061  0.00  0.00    -0.205 F 
ENDBRANCH  16  17
ENDBRANCH  15  16
ENDBRANCH  10  15
ENDBRANCH   5   7
BRANCH   1  25
ATOM     25  O   UNL     1       3.461  -3.943   5.751  0.00  0.00    -0.456 OA
BRANCH  25  29
ATOM     26  C   UNL     1       6.975  -1.798   5.448  0.00  0.00    +0.059 A 
ATOM     27  C   UNL     1       5.764  -1.133   5.662  0.00  0.00    +0.018 A 
ATOM     28  C   UNL     1       4.595  -1.852   5.763  0.00  0.00    +0.047 A 
ATOM     29  C   UNL     1       4.616  -3.238   5.652  0.00  0.00    +0.128 A 
ATOM     30  C   UNL     1       5.819  -3.903   5.439  0.00  0.00    +0.047 A 
ATOM     31  C   UNL     1       6.992  -3.191   5.331  0.00  0.00    +0.018 A 
BRANCH  26  32
ATOM     32  C   UNL     1       8.230  -1.032   5.339  0.00  0.00    +0.339 C 
ATOM     33  O   UNL     1       9.281  -1.611   5.148  0.00  0.00    -0.245 OA
BRANCH  32  34
ATOM     34  O   UNL     1       8.212   0.311   5.452  0.00  0.00    -0.461 OA
BRANCH  34  36
ATOM     35  C   UNL     1       9.246   2.495   5.491  0.00  0.00    +0.048 C 
ATOM     36  C   UNL     1       9.465   0.989   5.337  0.00  0.00    +0.229 C 
ENDBRANCH  34  36
ENDBRANCH  32  34
ENDBRANCH  26  32
ENDBRANCH  25  29
ENDBRANCH   1  25
TORSDOF 10
