REMARK  Name = ZINC43258687
REMARK  5 active torsions:
REMARK  status: ('A' for Active; 'I' for Inactive)
REMARK    1  A    between atoms: C_1  and  C_2
REMARK    2  A    between atoms: C_2  and  C_4
REMARK    3  A    between atoms: C_2  and  N_21
REMARK    4  A    between atoms: C_4  and  C_6
REMARK    5  A    between atoms: C_4  and  N_12
REMARK                            x       y       z     vdW  Elec       q    Type
REMARK                         _______ _______ _______ _____ _____    ______ ____
ROOT
ATOM      1  C   UNL     1      -1.427  -0.534   0.139  0.00  0.00    +0.079 C 
ENDROOT
BRANCH   1   2
ATOM      2  N   UNL     1      -2.327   0.114   1.101  0.00  0.00    -0.292 NA
ATOM      3  C   UNL     1      -1.998  -0.280   2.478  0.00  0.00    +0.090 C 
ATOM      4  C   UNL     1      -2.664   0.709   3.450  0.00  0.00    +0.058 C 
ATOM      5  C   UNL     1      -4.080   0.892   3.011  0.00  0.00    -0.005 A 
ATOM      6  C   UNL     1      -4.617   0.519   1.816  0.00  0.00    -0.023 A 
ATOM      7  C   UNL     1      -5.970   0.791   1.629  0.00  0.00    +0.013 A 
ATOM      8  C   UNL     1      -6.680   1.399   2.608  0.00  0.00    +0.046 A 
ATOM      9  S   UNL     1      -5.441   1.623   3.877  0.00  0.00    -0.101 S 
ATOM     10  C   UNL     1      -3.732  -0.156   0.772  0.00  0.00    +0.121 C 
ENDBRANCH   1   2
BRANCH   1  11
ATOM     11  C   UNL     1      -1.619  -2.028   0.197  0.00  0.00    +0.006 A 
ATOM     12  C   UNL     1      -1.823  -2.902  -0.818  0.00  0.00    +0.014 A 
ATOM     13  C   UNL     1      -1.975  -4.245  -0.525  0.00  0.00    +0.023 A 
ATOM     14  C   UNL     1      -1.915  -4.647   0.769  0.00  0.00    +0.055 A 
ATOM     15  S   UNL     1      -1.629  -3.104   1.621  0.00  0.00    -0.085 S 
ATOM     16 BR   UNL     1      -2.084  -6.389   1.484  0.00  0.00    -0.043 Br
ENDBRANCH   1  11
BRANCH   1  18
ATOM     17  C   UNL     1       0.186   1.327   0.561  0.00  0.00    -0.012 C 
ATOM     18  C   UNL     1       0.024  -0.193   0.487  0.00  0.00    -0.056 C 
BRANCH  18  19
ATOM     19  N   UNL     1       0.916  -0.731  -0.549  0.00  0.00    +0.381 N 
ATOM     20  H   UNL     1       1.872  -0.505  -0.319  0.00  0.00    -0.090 HD
ATOM     21  H   UNL     1       0.809  -1.733  -0.598  0.00  0.00    -0.090 HD
ATOM     22  H   UNL     1       0.679  -0.323  -1.441  0.00  0.00    -0.090 HD
ENDBRANCH  18  19
ENDBRANCH   1  18
TORSDOF 4
