REMARK  Name = ZINC67292777
REMARK  7 active torsions:
REMARK  status: ('A' for Active; 'I' for Inactive)
REMARK    1  A    between atoms: C_1  and  C_2
REMARK    2  A    between atoms: C_2  and  C_3
REMARK    3  A    between atoms: C_2  and  C_4
REMARK    4  A    between atoms: C_8  and  N_10
REMARK    5  A    between atoms: C_12  and  C_22
REMARK    6  A    between atoms: N_24  and  C_25
REMARK    7  A    between atoms: C_25  and  C_26
REMARK                            x       y       z     vdW  Elec       q    Type
REMARK                         _______ _______ _______ _____ _____    ______ ____
ROOT
ATOM      1  N   UNL     1      -3.612  -2.600  -2.033  0.00  0.00    -0.325 N 
ATOM      2  C   UNL     1      -4.306  -3.685  -1.765  0.00  0.00    +0.212 A 
ATOM      3  C   UNL     1      -4.894  -4.498  -2.848  0.00  0.00    +0.097 A 
ATOM      4  C   UNL     1      -5.096  -5.847  -2.587  0.00  0.00    +0.030 A 
ATOM      5  C   UNL     1      -4.708  -6.342  -1.264  0.00  0.00    +0.020 A 
ATOM      6  C   UNL     1      -4.627  -7.716  -1.009  0.00  0.00    +0.031 A 
ATOM      7  C   UNL     1      -4.257  -8.156   0.243  0.00  0.00    +0.042 A 
ATOM      8  C   UNL     1      -3.965  -7.244   1.249  0.00  0.00    +0.023 A 
ATOM      9  C   UNL     1      -4.042  -5.886   1.012  0.00  0.00    +0.048 A 
ATOM     10  C   UNL     1      -4.415  -5.422  -0.240  0.00  0.00    +0.138 A 
ATOM     11  O   UNL     1      -4.497  -4.094  -0.485  0.00  0.00    -0.439 OA
ATOM     12 CL   UNL     1      -4.154  -9.858   0.565  0.00  0.00    -0.084 Cl
ATOM     13  H   UNL     1      -3.410  -2.368  -2.953  0.00  0.00    +0.169 HD
ENDROOT
BRANCH   1  18
ATOM     14  C   UNL     1      -1.434  -0.505   0.017  0.00  0.00    -0.043 A 
ATOM     15  C   UNL     1      -2.295  -0.174   1.048  0.00  0.00    +0.004 A 
ATOM     16  C   UNL     1      -3.594  -0.650   1.055  0.00  0.00    +0.002 A 
ATOM     17  C   UNL     1      -4.040  -1.460   0.031  0.00  0.00    +0.026 A 
ATOM     18  C   UNL     1      -3.177  -1.798  -1.014  0.00  0.00    +0.042 A 
ATOM     19  C   UNL     1      -1.868  -1.309  -1.017  0.00  0.00    +0.029 A 
BRANCH  14  21
ATOM     20  C   UNL     1      -0.045   1.550   0.012  0.00  0.00    +0.012 C 
ATOM     21  C   UNL     1      -0.021   0.020   0.018  0.00  0.00    +0.013 C 
ATOM     22  C   UNL     1       0.704  -0.474   1.272  0.00  0.00    +0.012 C 
ENDBRANCH  14  21
ENDBRANCH   1  18
BRANCH   3  23
ATOM     23  C   UNL     1      -5.251  -3.905  -4.147  0.00  0.00    +0.249 C 
ATOM     24  O   UNL     1      -4.983  -2.741  -4.379  0.00  0.00    -0.270 OA
ATOM     25  N   UNL     1      -5.876  -4.651  -5.080  0.00  0.00    -0.309 N 
ATOM     26  H   UNL     1      -6.156  -5.555  -4.870  0.00  0.00    +0.149 HD
BRANCH  25  27
ATOM     27  C   UNL     1      -6.131  -4.096  -6.412  0.00  0.00    +0.136 C 
BRANCH  27  28
ATOM     28  C   UNL     1      -6.846  -5.140  -7.271  0.00  0.00    +0.135 C 
ATOM     29  C   UNL     1      -7.011  -4.609  -8.711  0.00  0.00    +0.035 C 
ATOM     30  C   UNL     1      -8.431  -5.114  -9.088  0.00  0.00    +0.031 C 
ATOM     31  C   UNL     1      -9.149  -5.019  -7.718  0.00  0.00    +0.160 C 
ATOM     32  O   UNL     1      -8.156  -5.387  -6.746  0.00  0.00    -0.375 OA
ENDBRANCH  27  28
ENDBRANCH  25  27
ENDBRANCH   3  23
TORSDOF 5
