REMARK  Name = ZINC33861512
REMARK  7 active torsions:
REMARK  status: ('A' for Active; 'I' for Inactive)
REMARK    1  A    between atoms: C_1  and  C_2
REMARK    2  A    between atoms: C_2  and  C_3
REMARK    3  A    between atoms: C_2  and  C_4
REMARK    4  A    between atoms: C_4  and  C_6
REMARK    5  A    between atoms: C_9  and  O_14
REMARK    6  A    between atoms: C_10  and  O_13
REMARK    7  A    between atoms: C_11  and  O_12
REMARK                            x       y       z     vdW  Elec       q    Type
REMARK                         _______ _______ _______ _____ _____    ______ ____
ROOT
ATOM      1  C   UNL     1      -1.706  -1.855  -0.528  0.00  0.00    +0.064 A 
ATOM      2  C   UNL     1      -0.674  -2.647  -1.051  0.00  0.00    +0.034 A 
ATOM      3  C   UNL     1      -0.949  -3.886  -1.554  0.00  0.00    +0.064 A 
ATOM      4  C   UNL     1      -2.253  -4.374  -1.553  0.00  0.00    +0.176 A 
ATOM      5  C   UNL     1      -3.290  -3.604  -1.040  0.00  0.00    +0.202 A 
ATOM      6  C   UNL     1      -3.024  -2.345  -0.519  0.00  0.00    +0.173 A 
ATOM      7 BR   UNL     1       0.451  -4.946  -2.256  0.00  0.00    -0.046 Br
ENDROOT
BRANCH   1   8
ATOM      8  C   UNL     1      -1.412  -0.526   0.013  0.00  0.00    +0.169 C 
ATOM      9  O   UNL     1      -2.306   0.155   0.469  0.00  0.00    -0.292 OA
BRANCH   8  11
ATOM     10  C   UNL     1      -0.019   1.526   0.010  0.00  0.00    +0.015 C 
ATOM     11  C   UNL     1       0.002  -0.004   0.002  0.00  0.00    +0.054 C 
ATOM     12  C   UNL     1       0.742  -0.511   1.242  0.00  0.00    +0.015 C 
ENDBRANCH   8  11
ENDBRANCH   1   8
BRANCH   6  13
ATOM     13  O   UNL     1      -4.030  -1.589  -0.011  0.00  0.00    -0.503 OA
ATOM     14  H   UNL     1      -4.458  -1.016  -0.661  0.00  0.00    +0.292 HD
ENDBRANCH   6  13
BRANCH   5  15
ATOM     15  O   UNL     1      -4.563  -4.085  -1.043  0.00  0.00    -0.501 OA
ATOM     16  H   UNL     1      -4.799  -4.578  -0.245  0.00  0.00    +0.292 HD
ENDBRANCH   5  15
BRANCH   4  17
ATOM     17  O   UNL     1      -2.513  -5.608  -2.057  0.00  0.00    -0.502 OA
ATOM     18  H   UNL     1      -2.456  -6.319  -1.405  0.00  0.00    +0.292 HD
ENDBRANCH   4  17
TORSDOF 5
