REMARK  Name = ZINC67037009
REMARK  4 active torsions:
REMARK  status: ('A' for Active; 'I' for Inactive)
REMARK    1  A    between atoms: C_5  and  C_7
REMARK    2  A    between atoms: C_7  and  C_8
REMARK    3  A    between atoms: C_8  and  N_9
REMARK    4  A    between atoms: C_16  and  C_19
REMARK                            x       y       z     vdW  Elec       q    Type
REMARK                         _______ _______ _______ _____ _____    ______ ____
ROOT
ATOM      1  N   UNL     1       1.625  -4.178   3.725  0.00  0.00    -0.299 N 
ATOM      2  C   UNL     1       1.516  -4.847   2.560  0.00  0.00    +0.302 C 
ATOM      3  O   UNL     1       1.311  -4.239   1.527  0.00  0.00    -0.253 OA
ATOM      4  N   UNL     1       1.635  -6.189   2.540  0.00  0.00    -0.281 N 
ATOM      5  C   UNL     1       1.641  -6.930   1.269  0.00  0.00    +0.137 C 
ATOM      6  C   UNL     1       0.619  -8.068   1.369  0.00  0.00    +0.179 C 
ATOM      7  O   UNL     1       0.877  -8.831   2.549  0.00  0.00    -0.369 OA
ATOM      8  C   UNL     1       0.736  -8.094   3.766  0.00  0.00    +0.166 C 
ATOM      9  C   UNL     1       1.770  -6.956   3.788  0.00  0.00    +0.145 C 
ATOM     10  H   UNL     1       1.716  -4.666   4.558  0.00  0.00    +0.150 HD
ENDROOT
BRANCH   8  11
ATOM     11  C   UNL     1       0.970  -9.009   4.940  0.00  0.00    -0.015 A 
ATOM     12  C   UNL     1       1.978  -9.954   4.889  0.00  0.00    +0.006 A 
ATOM     13  C   UNL     1       2.193 -10.794   5.965  0.00  0.00    +0.003 A 
ATOM     14  C   UNL     1       1.401 -10.691   7.093  0.00  0.00    +0.038 A 
ATOM     15  C   UNL     1       0.391  -9.745   7.145  0.00  0.00    +0.124 A 
ATOM     16  C   UNL     1       0.180  -8.900   6.069  0.00  0.00    +0.044 A 
ATOM     17  F   UNL     1      -0.384  -9.643   8.247  0.00  0.00    -0.205 F 
ENDBRANCH   8  11
BRANCH   1  18
ATOM     18  C   UNL     1       1.605  -2.713   3.733  0.00  0.00    +0.110 C 
BRANCH  18  19
ATOM     19  C   UNL     1       1.743  -2.209   5.171  0.00  0.00    +0.057 C 
BRANCH  19  24
ATOM     20  C   UNL     1       2.891   1.388   5.176  0.00  0.00    +0.000 A 
ATOM     21  C   UNL     1       1.685   2.064   5.196  0.00  0.00    +0.003 A 
ATOM     22  C   UNL     1       0.497   1.358   5.208  0.00  0.00    +0.038 A 
ATOM     23  C   UNL     1       0.514  -0.026   5.200  0.00  0.00    +0.127 A 
ATOM     24  C   UNL     1       1.722  -0.702   5.180  0.00  0.00    -0.011 A 
ATOM     25  C   UNL     1       2.909   0.006   5.168  0.00  0.00    +0.006 A 
ATOM     26  F   UNL     1      -0.647  -0.717   5.212  0.00  0.00    -0.205 F 
ENDBRANCH  19  24
ENDBRANCH  18  19
ENDBRANCH   1  18
TORSDOF 4
