REMARK  Name = ZINC01406957
REMARK  4 active torsions:
REMARK  status: ('A' for Active; 'I' for Inactive)
REMARK    1  A    between atoms: C_1  and  C_2
REMARK    2  A    between atoms: C_5  and  C_8
REMARK    3  A    between atoms: C_21  and  S_23
REMARK    4  A    between atoms: S_23  and  C_24
REMARK                            x       y       z     vdW  Elec       q    Type
REMARK                         _______ _______ _______ _____ _____    ______ ____
ROOT
ATOM      1  C   UNL     1       2.469   0.010   0.527  0.00  0.00    +0.173 C 
ATOM      2  C   UNL     1       1.166  -0.693   0.240  0.00  0.00    +0.050 C 
ATOM      3  C   UNL     1       0.002  -0.004   0.002  0.00  0.00    +0.050 C 
ATOM      4  C   UNL     1      -1.081  -0.961  -0.235  0.00  0.00    +0.007 A 
ATOM      5  C   UNL     1      -2.428  -0.788  -0.514  0.00  0.00    +0.010 A 
ATOM      6  C   UNL     1      -3.193  -1.944  -0.688  0.00  0.00    +0.001 A 
ATOM      7  C   UNL     1      -2.646  -3.201  -0.589  0.00  0.00    +0.001 A 
ATOM      8  C   UNL     1      -1.289  -3.394  -0.308  0.00  0.00    +0.012 A 
ATOM      9  C   UNL     1      -0.520  -2.260  -0.133  0.00  0.00    +0.031 A 
ATOM     10  C   UNL     1       0.917  -2.080   0.171  0.00  0.00    +0.194 C 
ATOM     11  O   UNL     1       1.735  -2.966   0.331  0.00  0.00    -0.287 OA
ATOM     12  N   UNL     1      -0.017   1.375   0.010  0.00  0.00    -0.293 N 
ATOM     13  C   UNL     1       1.202   2.026   0.002  0.00  0.00    +0.154 C 
ATOM     14  N   UNL     1       2.328   1.433   0.224  0.00  0.00    -0.250 NA
ATOM     15  H   UNL     1      -0.852   1.868   0.016  0.00  0.00    +0.154 HD
ENDROOT
BRANCH   1  20
ATOM     16  C   UNL     1       6.645  -2.256  -2.763  0.00  0.00    +0.044 C 
ATOM     17  C   UNL     1       5.556  -1.665  -1.905  0.00  0.00    -0.050 A 
ATOM     18  C   UNL     1       5.432  -2.049  -0.583  0.00  0.00    +0.004 A 
ATOM     19  C   UNL     1       4.434  -1.507   0.204  0.00  0.00    +0.006 A 
ATOM     20  C   UNL     1       3.558  -0.581  -0.331  0.00  0.00    -0.019 A 
ATOM     21  C   UNL     1       3.678  -0.201  -1.655  0.00  0.00    +0.006 A 
ATOM     22  C   UNL     1       4.680  -0.740  -2.441  0.00  0.00    +0.004 A 
ENDBRANCH   1  20
BRANCH  13  23
ATOM     23  S   UNL     1       1.222   3.756  -0.330  0.00  0.00    -0.094 S 
ATOM     24  C   UNL     1       3.000   4.077  -0.221  0.00  0.00    +0.093 C 
ENDBRANCH  13  23
TORSDOF 2
