REMARK  Name = ZINC12885125
REMARK  6 active torsions:
REMARK  status: ('A' for Active; 'I' for Inactive)
REMARK    1  A    between atoms: C_4  and  C_7
REMARK    2  A    between atoms: C_7  and  C_8
REMARK    3  A    between atoms: C_8  and  N_9
REMARK    4  A    between atoms: C_14  and  C_31
REMARK    5  A    between atoms: C_31  and  C_32
REMARK    6  A    between atoms: C_32  and  C_33
REMARK                            x       y       z     vdW  Elec       q    Type
REMARK                         _______ _______ _______ _____ _____    ______ ____
ROOT
ATOM      1  N   UNL     1      -2.783   1.001   4.339  0.00  0.00    -0.241 N 
ATOM      2  C   UNL     1      -2.103   1.857   3.568  0.00  0.00    +0.224 C 
ATOM      3  O   UNL     1      -2.598   2.666   2.813  0.00  0.00    -0.275 OA
ATOM      4  C   UNL     1      -0.620   1.660   3.786  0.00  0.00    +0.073 C 
ATOM      5  C   UNL     1       0.011   1.072   2.506  0.00  0.00    -0.057 C 
ATOM      6  C   UNL     1       0.087  -0.660   4.072  0.00  0.00    +0.050 C 
ATOM      7  C   UNL     1      -0.560   0.508   4.827  0.00  0.00    +0.088 C 
ATOM      8  C   UNL     1      -2.017   0.199   5.088  0.00  0.00    +0.225 C 
ATOM      9  O   UNL     1      -2.428  -0.644   5.856  0.00  0.00    -0.275 OA
ATOM     10  C   UNL     1      -0.491  -1.980   4.497  0.00  0.00    -0.026 A 
ATOM     11  C   UNL     1      -1.763  -2.508   4.480  0.00  0.00    +0.024 A 
ATOM     12  C   UNL     1      -1.987  -3.790   4.952  0.00  0.00    +0.041 A 
ATOM     13  C   UNL     1      -0.930  -4.538   5.441  0.00  0.00    +0.022 A 
ATOM     14  C   UNL     1       0.345  -4.012   5.460  0.00  0.00    +0.025 A 
ATOM     15  C   UNL     1       0.579  -2.724   4.986  0.00  0.00    +0.036 A 
ATOM     16  N   UNL     1       1.761  -1.984   4.901  0.00  0.00    -0.286 N 
ATOM     17  C   UNL     1       1.557  -0.761   4.374  0.00  0.00    +0.211 C 
ATOM     18  O   UNL     1       2.397   0.093   4.181  0.00  0.00    -0.277 OA
ATOM     19 CL   UNL     1      -3.590  -4.457   4.932  0.00  0.00    -0.084 Cl
ATOM     20  H   UNL     1       2.627  -2.312   5.188  0.00  0.00    +0.155 HD
ATOM     21  N   UNL     1      -0.145  -0.375   2.667  0.00  0.00    +0.394 N 
ATOM     22  H   UNL     1       0.541  -0.872   2.086  0.00  0.00    -0.083 HD
ATOM     23  H   UNL     1      -1.093  -0.662   2.398  0.00  0.00    -0.083 HD
ENDROOT
BRANCH   1  24
ATOM     24  C   UNL     1      -4.247   0.946   4.361  0.00  0.00    +0.121 C 
BRANCH  24  25
ATOM     25  C   UNL     1      -4.777   1.901   5.432  0.00  0.00    +0.054 C 
BRANCH  25  29
ATOM     26  C   UNL     1      -9.045   1.740   5.497  0.00  0.00    +0.000 A 
ATOM     27  C   UNL     1      -8.309   0.884   6.295  0.00  0.00    +0.000 A 
ATOM     28  C   UNL     1      -6.928   0.936   6.274  0.00  0.00    +0.004 A 
ATOM     29  C   UNL     1      -6.282   1.844   5.455  0.00  0.00    -0.046 A 
ATOM     30  C   UNL     1      -7.019   2.704   4.661  0.00  0.00    +0.004 A 
ATOM     31  C   UNL     1      -8.400   2.648   4.679  0.00  0.00    +0.000 A 
ENDBRANCH  25  29
ENDBRANCH  24  25
ENDBRANCH   1  24
BRANCH   5  32
ATOM     32  C   UNL     1      -0.729   1.579   1.267  0.00  0.00    -0.006 C 
BRANCH  32  33
ATOM     33  C   UNL     1      -0.013   1.086   0.008  0.00  0.00    +0.094 C 
BRANCH  33  34
ATOM     34  C   UNL     1      -0.742   1.585  -1.213  0.00  0.00    +0.210 C 
ATOM     35  O   UNL     1      -1.736   2.268  -1.088  0.00  0.00    -0.276 OA
ATOM     36  N   UNL     1      -0.288   1.272  -2.443  0.00  0.00    -0.329 N 
ATOM     37  H   UNL     1       0.507   0.726  -2.543  0.00  0.00    +0.145 HD
ATOM     38  H   UNL     1      -0.758   1.594  -3.229  0.00  0.00    +0.145 HD
ENDBRANCH  33  34
ENDBRANCH  32  33
ENDBRANCH   5  32
TORSDOF 6
