REMARK  Name = ZINC31482222
REMARK  6 active torsions:
REMARK  status: ('A' for Active; 'I' for Inactive)
REMARK    1  A    between atoms: C_1  and  C_2
REMARK    2  A    between atoms: C_10  and  C_11
REMARK    3  A    between atoms: N_13  and  N_14
REMARK    4  A    between atoms: C_15  and  C_17
REMARK    5  A    between atoms: N_22  and  S_24
REMARK    6  A    between atoms: S_24  and  C_27
REMARK                            x       y       z     vdW  Elec       q    Type
REMARK                         _______ _______ _______ _____ _____    ______ ____
ROOT
ATOM      1  N   UNL     1       3.612  -3.301  -0.051  0.00  0.00    -0.234 N 
ATOM      2  C   UNL     1       4.939  -3.539  -0.065  0.00  0.00    +0.233 C 
ATOM      3  O   UNL     1       5.721  -2.612  -0.067  0.00  0.00    -0.274 OA
ATOM      4  H   UNL     1       2.903  -4.141  -0.049  0.00  0.00    +0.173 HD
ENDROOT
BRANCH   2   5
ATOM      5  C   UNL     1       5.450  -4.956  -0.078  0.00  0.00    +0.092 C 
ATOM      6  C   UNL     1       4.960  -5.688   1.174  0.00  0.00    +0.015 C 
ATOM      7  C   UNL     1       5.451  -7.137   1.146  0.00  0.00    +0.018 C 
ATOM      8  C   UNL     1       6.983  -7.152   1.145  0.00  0.00    +0.109 C 
ATOM      9  N   UNL     1       7.464  -6.330   0.026  0.00  0.00    -0.176 NA
ATOM     10  C   UNL     1       6.982  -4.947  -0.092  0.00  0.00    +0.122 C 
BRANCH   9  11
ATOM     11  S   UNL     1       8.530  -6.950  -1.079  0.00  0.00    +0.061 S 
ATOM     12  O   UNL     1       8.370  -8.362  -1.050  0.00  0.00    -0.153 OA
ATOM     13  O   UNL     1       8.369  -6.189  -2.269  0.00  0.00    -0.153 OA
BRANCH  11  14
ATOM     14  C   UNL     1      10.153  -6.615  -0.482  0.00  0.00    +0.105 A 
ATOM     15  C   UNL     1      10.792  -5.442  -0.839  0.00  0.00    +0.028 A 
ATOM     16  C   UNL     1      12.064  -5.176  -0.367  0.00  0.00    +0.002 A 
ATOM     17  C   UNL     1      12.701  -6.089   0.454  0.00  0.00    +0.000 A 
ATOM     18  C   UNL     1      12.064  -7.264   0.805  0.00  0.00    +0.002 A 
ATOM     19  C   UNL     1      10.790  -7.527   0.337  0.00  0.00    +0.028 A 
ENDBRANCH  11  14
ENDBRANCH   9  11
ENDBRANCH   2   5
BRANCH   1  22
ATOM     20  C   UNL     1       1.810  -1.745  -0.025  0.00  0.00    +0.296 C 
ATOM     21  O   UNL     1       1.026  -2.675  -0.023  0.00  0.00    -0.265 OA
ATOM     22  N   UNL     1       3.137  -1.983  -0.039  0.00  0.00    -0.228 N 
ATOM     23  H   UNL     1       3.847  -1.142  -0.041  0.00  0.00    +0.173 HD
BRANCH  20  33
ATOM     24  C   UNL     1      -1.190  -0.926   0.009  0.00  0.00    +0.048 C 
ATOM     25  C   UNL     1       0.002  -0.004   0.002  0.00  0.00    +0.008 A 
ATOM     26  C   UNL     1      -0.018   1.458   0.010  0.00  0.00    +0.024 A 
ATOM     27  C   UNL     1      -1.032   2.418   0.030  0.00  0.00    +0.012 A 
ATOM     28  C   UNL     1      -0.709   3.746   0.028  0.00  0.00    +0.001 A 
ATOM     29  C   UNL     1       0.621   4.146   0.018  0.00  0.00    +0.004 A 
ATOM     30  C   UNL     1       1.636   3.215   0.003  0.00  0.00    +0.047 A 
ATOM     31  C   UNL     1       1.331   1.858  -0.001  0.00  0.00    +0.136 A 
ATOM     32  O   UNL     1       2.087   0.743  -0.014  0.00  0.00    -0.450 OA
ATOM     33  C   UNL     1       1.312  -0.362  -0.012  0.00  0.00    +0.195 A 
ENDBRANCH  20  33
ENDBRANCH   1  22
TORSDOF 5
