REMARK  Name = ZINC02217945
REMARK  11 active torsions:
REMARK  status: ('A' for Active; 'I' for Inactive)
REMARK    1  A    between atoms: C_1  and  O_2
REMARK    2  A    between atoms: O_2  and  C_3
REMARK    3  A    between atoms: C_6  and  C_9
REMARK    4  A    between atoms: C_15  and  C_33
REMARK    5  A    between atoms: C_16  and  C_25
REMARK    6  A    between atoms: C_18  and  C_21
REMARK    7  A    between atoms: C_19  and  N_20
REMARK    8  A    between atoms: C_21  and  O_23
REMARK    9  A    between atoms: O_23  and  C_24
REMARK   10  A    between atoms: C_28  and  O_31
REMARK   11  A    between atoms: O_31  and  C_32
REMARK                            x       y       z     vdW  Elec       q    Type
REMARK                         _______ _______ _______ _____ _____    ______ ____
ROOT
ATOM      1  C   UNL     1       0.167   5.333  -3.854  0.00  0.00    +0.028 C 
ATOM      2  C   UNL     1       0.175   4.216  -3.083  0.00  0.00    +0.080 A 
ATOM      3  C   UNL     1       1.311   3.414  -2.617  0.00  0.00    +0.271 A 
ATOM      4  O   UNL     1       2.451   3.718  -2.915  0.00  0.00    -0.266 OA
ATOM      5  N   UNL     1       1.063   2.333  -1.851  0.00  0.00    -0.257 N 
ATOM      6  C   UNL     1      -0.256   2.048  -1.552  0.00  0.00    +0.104 A 
ATOM      7  C   UNL     1      -0.660   0.998  -0.793  0.00  0.00    +0.072 C 
ATOM      8  C   UNL     1       0.397   0.067  -0.232  0.00  0.00    +0.102 C 
ATOM      9  C   UNL     1       1.830   0.412  -0.582  0.00  0.00    +0.087 C 
ATOM     10  C   UNL     1       2.069   1.501  -1.353  0.00  0.00    +0.115 C 
ATOM     11  S   UNL     1      -1.196   3.327  -2.362  0.00  0.00    -0.065 S 
ENDROOT
BRANCH   1  15
ATOM     12  C   UNL     1       3.814   7.272  -4.815  0.00  0.00    +0.120 A 
ATOM     13  C   UNL     1       2.817   7.154  -5.778  0.00  0.00    +0.046 A 
ATOM     14  C   UNL     1       1.632   6.526  -5.471  0.00  0.00    +0.011 A 
ATOM     15  C   UNL     1       1.430   6.004  -4.187  0.00  0.00    -0.024 A 
ATOM     16  C   UNL     1       2.435   6.130  -3.220  0.00  0.00    +0.011 A 
ATOM     17  C   UNL     1       3.619   6.756  -3.539  0.00  0.00    +0.046 A 
BRANCH  12  19
ATOM     18  C   UNL     1       5.963   7.979  -4.088  0.00  0.00    +0.277 C 
ATOM     19  O   UNL     1       4.982   7.892  -5.123  0.00  0.00    -0.495 OA
ENDBRANCH  12  19
ENDBRANCH   1  15
BRANCH   8  20
ATOM     20  C   UNL     1       0.266   0.062   1.269  0.00  0.00    -0.034 A 
ATOM     21  C   UNL     1       0.484   1.225   1.985  0.00  0.00    +0.008 A 
ATOM     22  C   UNL     1       0.359   1.225   3.361  0.00  0.00    +0.046 A 
ATOM     23  C   UNL     1       0.025   0.054   4.025  0.00  0.00    +0.120 A 
ATOM     24  C   UNL     1      -0.187  -1.113   3.305  0.00  0.00    +0.046 A 
ATOM     25  C   UNL     1      -0.067  -1.106   1.929  0.00  0.00    +0.008 A 
BRANCH  23  26
ATOM     26  O   UNL     1      -0.093   0.050   5.379  0.00  0.00    -0.495 OA
ATOM     27  C   UNL     1       0.140   1.287   6.054  0.00  0.00    +0.277 C 
ENDBRANCH  23  26
ENDBRANCH   8  20
BRANCH  10  28
ATOM     28  N   UNL     1       3.369   1.802  -1.661  0.00  0.00    -0.344 N 
ATOM     29  H   UNL     1       3.599   2.102  -2.555  0.00  0.00    +0.144 HD
ATOM     30  H   UNL     1       4.061   1.714  -0.987  0.00  0.00    +0.144 HD
ENDBRANCH  10  28
BRANCH   9  31
ATOM     31  C   UNL     1       2.890  -0.380  -0.117  0.00  0.00    +0.339 C 
ATOM     32  O   UNL     1       4.028  -0.156  -0.490  0.00  0.00    -0.245 OA
BRANCH  31  33
ATOM     33  O   UNL     1       2.649  -1.392   0.745  0.00  0.00    -0.465 OA
ATOM     34  C   UNL     1       3.775  -2.158   1.178  0.00  0.00    +0.280 C 
ENDBRANCH  31  33
ENDBRANCH   9  31
BRANCH   7  35
ATOM     35  C   UNL     1      -2.050   0.774  -0.531  0.00  0.00    +0.098 C 
ATOM     36  N   UNL     1      -3.152   0.596  -0.323  0.00  0.00    -0.191 NA
ENDBRANCH   7  35
TORSDOF 8
