REMARK  Name = ZINC18408830
REMARK  12 active torsions:
REMARK  status: ('A' for Active; 'I' for Inactive)
REMARK    1  A    between atoms: C_1  and  C_2
REMARK    2  A    between atoms: C_5  and  S_8
REMARK    3  A    between atoms: S_8  and  N_11
REMARK    4  A    between atoms: N_11  and  C_12
REMARK    5  A    between atoms: C_12  and  C_14
REMARK    6  A    between atoms: C_12  and  C_17
REMARK    7  A    between atoms: C_14  and  C_15
REMARK    8  A    between atoms: C_14  and  C_16
REMARK    9  A    between atoms: C_17  and  O_19
REMARK   10  A    between atoms: O_19  and  C_20
REMARK   11  A    between atoms: C_20  and  C_22
REMARK   12  A    between atoms: C_20  and  C_23
REMARK                            x       y       z     vdW  Elec       q    Type
REMARK                         _______ _______ _______ _____ _____    ______ ____
ROOT
ATOM      1  C   UNL     1      -0.180   3.524  -5.461  0.00  0.00    +0.327 C 
ATOM      2  O   UNL     1      -1.084   2.854  -5.902  0.00  0.00    -0.249 OA
ENDROOT
BRANCH   1   3
ATOM      3  C   UNL     1       0.727   4.276  -6.400  0.00  0.00    +0.187 C 
BRANCH   3   4
ATOM      4  C   UNL     1       0.645   5.774  -6.098  0.00  0.00    +0.012 C 
ATOM      5  C   UNL     1      -0.814   6.229  -6.165  0.00  0.00    +0.009 C 
ATOM      6  C   UNL     1       1.199   6.043  -4.698  0.00  0.00    +0.009 C 
ENDBRANCH   3   4
BRANCH   3   7
ATOM      7  N   UNL     1       0.309   4.033  -7.783  0.00  0.00    -0.176 NA
ATOM      8  H   UNL     1      -0.632   3.930  -7.994  0.00  0.00    +0.149 HD
BRANCH   7   9
ATOM      9  S   UNL     1       1.443   3.936  -8.986  0.00  0.00    +0.059 S 
ATOM     10  O   UNL     1       0.736   3.671 -10.190  0.00  0.00    -0.153 OA
ATOM     11  O   UNL     1       2.294   5.064  -8.835  0.00  0.00    -0.153 OA
BRANCH   9  16
ATOM     12  C   UNL     1       4.822  -0.935  -7.863  0.00  0.00    +0.044 C 
ATOM     13  C   UNL     1       3.978   0.281  -8.144  0.00  0.00    -0.050 A 
ATOM     14  C   UNL     1       2.841   0.170  -8.923  0.00  0.00    +0.005 A 
ATOM     15  C   UNL     1       2.067   1.286  -9.181  0.00  0.00    +0.029 A 
ATOM     16  C   UNL     1       2.429   2.513  -8.658  0.00  0.00    +0.105 A 
ATOM     17  C   UNL     1       3.568   2.626  -7.883  0.00  0.00    +0.029 A 
ATOM     18  C   UNL     1       4.340   1.509  -7.622  0.00  0.00    +0.005 A 
ENDBRANCH   9  16
ENDBRANCH   7   9
ENDBRANCH   3   7
ENDBRANCH   1   3
BRANCH   1  19
ATOM     19  O   UNL     1       0.015   3.599  -4.136  0.00  0.00    -0.451 OA
BRANCH  19  20
ATOM     20  C   UNL     1      -0.897   2.848  -3.292  0.00  0.00    +0.259 C 
ATOM     21  C   UNL     1      -2.097   3.726  -2.930  0.00  0.00    +0.062 C 
BRANCH  20  22
ATOM     22  C   UNL     1      -0.185   2.427  -2.032  0.00  0.00    +0.256 C 
ATOM     23  O   UNL     1       0.877   2.933  -1.738  0.00  0.00    -0.272 OA
ATOM     24  N   UNL     1      -0.729   1.488  -1.232  0.00  0.00    -0.294 N 
ATOM     25  C   UNL     1      -2.065   0.931  -1.503  0.00  0.00    +0.113 C 
ATOM     26  C   UNL     1      -1.900  -0.555  -1.819  0.00  0.00    +0.054 C 
ATOM     27  C   UNL     1      -1.011  -1.222  -0.801  0.00  0.00    -0.041 A 
ATOM     28  C   UNL     1      -1.088  -2.605  -0.687  0.00  0.00    +0.004 A 
ATOM     29  C   UNL     1      -0.294  -3.280   0.216  0.00  0.00    +0.000 A 
ATOM     30  C   UNL     1       0.587  -2.577   1.016  0.00  0.00    +0.000 A 
ATOM     31  C   UNL     1       0.663  -1.204   0.909  0.00  0.00    +0.005 A 
ATOM     32  C   UNL     1      -0.139  -0.523   0.003  0.00  0.00    -0.027 A 
ATOM     33  C   UNL     1      -0.013   0.979  -0.057  0.00  0.00    +0.143 C 
ENDBRANCH  20  22
ENDBRANCH  19  20
ENDBRANCH   1  19
TORSDOF 8
