REMARK  Name = ZINC02111297
REMARK  9 active torsions:
REMARK  status: ('A' for Active; 'I' for Inactive)
REMARK    1  A    between atoms: C_1  and  C_2
REMARK    2  A    between atoms: C_6  and  O_30
REMARK    3  A    between atoms: C_7  and  C_29
REMARK    4  A    between atoms: C_12  and  C_13
REMARK    5  A    between atoms: C_13  and  C_14
REMARK    6  A    between atoms: C_14  and  C_15
REMARK    7  A    between atoms: C_20  and  O_28
REMARK    8  A    between atoms: O_30  and  C_31
REMARK    9  A    between atoms: C_31  and  C_32
REMARK                            x       y       z     vdW  Elec       q    Type
REMARK                         _______ _______ _______ _____ _____    ______ ____
ROOT
ATOM      1  C   UNL     1      -7.062  -0.264   3.599  0.00  0.00    +0.045 C 
ATOM      2  C   UNL     1      -6.734   1.063   4.234  0.00  0.00    -0.030 A 
ATOM      3  C   UNL     1      -7.335   1.455   5.510  0.00  0.00    +0.021 A 
ATOM      4  C   UNL     1      -8.232   0.610   6.174  0.00  0.00    +0.015 A 
ATOM      5  C   UNL     1      -8.783   1.003   7.359  0.00  0.00    +0.047 A 
ATOM      6  C   UNL     1      -8.458   2.240   7.913  0.00  0.00    +0.127 A 
ATOM      7  C   UNL     1      -7.573   3.089   7.269  0.00  0.00    +0.034 A 
ATOM      8  C   UNL     1      -7.004   2.706   6.064  0.00  0.00    +0.146 A 
ATOM      9  O   UNL     1      -6.139   3.518   5.420  0.00  0.00    -0.422 OA
ATOM     10  C   UNL     1      -5.581   3.163   4.252  0.00  0.00    +0.341 A 
ATOM     11  O   UNL     1      -4.806   3.928   3.707  0.00  0.00    -0.245 OA
ATOM     12  C   UNL     1      -5.868   1.925   3.641  0.00  0.00    +0.041 A 
ATOM     13  C   UNL     1      -7.230   4.425   7.876  0.00  0.00    +0.051 C 
ENDROOT
BRANCH  12  14
ATOM     14  C   UNL     1      -5.220   1.562   2.329  0.00  0.00    +0.052 C 
BRANCH  14  15
ATOM     15  C   UNL     1      -3.902   0.834   2.595  0.00  0.00    +0.101 C 
BRANCH  15  16
ATOM     16  C   UNL     1      -3.254   0.471   1.284  0.00  0.00    +0.216 C 
ATOM     17  O   UNL     1      -3.794   0.767   0.238  0.00  0.00    -0.276 OA
ATOM     18  N   UNL     1      -2.075  -0.181   1.272  0.00  0.00    -0.301 N 
ATOM     19  C   UNL     1      -1.408  -0.546   2.529  0.00  0.00    +0.110 C 
ATOM     20  C   UNL     1       0.024  -0.002   2.502  0.00  0.00    +0.054 C 
ATOM     21  C   UNL     1       0.737  -0.510   1.246  0.00  0.00    +0.072 C 
ATOM     22  C   UNL     1       2.175   0.014   1.229  0.00  0.00    +0.035 C 
ATOM     23  C   UNL     1       2.159   1.544   1.237  0.00  0.00    +0.003 C 
ATOM     24  C   UNL     1       1.417   2.053  -0.000  0.00  0.00    +0.001 C 
ATOM     25  C   UNL     1      -0.019   1.526   0.010  0.00  0.00    +0.008 C 
ATOM     26  C   UNL     1       0.002  -0.004   0.002  0.00  0.00    +0.038 C 
ATOM     27  C   UNL     1      -1.433  -0.536   0.005  0.00  0.00    +0.114 C 
BRANCH  21  28
ATOM     28  O   UNL     1       0.747  -1.939   1.247  0.00  0.00    -0.388 OA
ATOM     29  H   UNL     1       1.198  -2.328   2.009  0.00  0.00    +0.210 HD
ENDBRANCH  21  28
ENDBRANCH  15  16
ENDBRANCH  14  15
ENDBRANCH  12  14
BRANCH   6  30
ATOM     30  O   UNL     1      -9.015   2.617   9.092  0.00  0.00    -0.487 OA
BRANCH  30  31
ATOM     31  C   UNL     1      -9.920   1.697   9.706  0.00  0.00    +0.264 C 
BRANCH  31  32
ATOM     32  C   UNL     1     -10.433   2.282  10.996  0.00  0.00    -0.009 A 
ATOM     33  C   UNL     1     -11.580   3.053  10.998  0.00  0.00    +0.007 A 
ATOM     34  C   UNL     1     -12.052   3.590  12.181  0.00  0.00    +0.002 A 
ATOM     35  C   UNL     1     -11.377   3.355  13.364  0.00  0.00    +0.020 A 
ATOM     36  C   UNL     1     -10.229   2.583  13.363  0.00  0.00    +0.041 A 
ATOM     37  C   UNL     1      -9.760   2.042  12.179  0.00  0.00    +0.027 A 
ATOM     38 CL   UNL     1      -9.380   2.288  14.849  0.00  0.00    -0.084 Cl
ENDBRANCH  31  32
ENDBRANCH  30  31
ENDBRANCH   6  30
TORSDOF 7
