REMARK  Name = ZINC06147997
REMARK  12 active torsions:
REMARK  status: ('A' for Active; 'I' for Inactive)
REMARK    1  A    between atoms: C_1  and  C_2
REMARK    2  A    between atoms: C_2  and  O_3
REMARK    3  A    between atoms: O_3  and  C_4
REMARK    4  A    between atoms: C_4  and  C_6
REMARK    5  A    between atoms: C_8  and  C_20
REMARK    6  A    between atoms: C_14  and  C_15
REMARK    7  A    between atoms: C_14  and  O_19
REMARK    8  A    between atoms: C_23  and  O_28
REMARK    9  A    between atoms: C_24  and  O_26
REMARK   10  A    between atoms: O_26  and  C_27
REMARK   11  A    between atoms: O_28  and  C_29
REMARK   12  A    between atoms: C_29  and  C_30
REMARK                            x       y       z     vdW  Elec       q    Type
REMARK                         _______ _______ _______ _____ _____    ______ ____
ROOT
ATOM      1  C   UNL     1      -4.387   2.006   5.010  0.00  0.00    +0.181 C 
ATOM      2  C   UNL     1      -4.919   1.583   3.636  0.00  0.00    +0.121 C 
ATOM      3  N   UNL     1      -4.868   2.729   2.728  0.00  0.00    -0.319 N 
ATOM      4  C   UNL     1      -4.977   3.986   3.183  0.00  0.00    +0.133 C 
ATOM      5  S   UNL     1      -4.922   5.275   2.058  0.00  0.00    -0.019 S 
ATOM      6  N   UNL     1      -5.127   4.273   4.485  0.00  0.00    -0.291 N 
ATOM      7  C   UNL     1      -5.194   3.215   5.494  0.00  0.00    +0.244 C 
ATOM      8  H   UNL     1      -4.752   2.576   1.777  0.00  0.00    +0.148 HD
ATOM      9  H   UNL     1      -5.194   5.200   4.762  0.00  0.00    +0.151 HD
ENDROOT
BRANCH   2  10
ATOM     10  C   UNL     1      -6.344   1.111   3.771  0.00  0.00    -0.023 A 
ATOM     11  C   UNL     1      -6.606  -0.186   4.171  0.00  0.00    +0.009 A 
ATOM     12  C   UNL     1      -7.912  -0.622   4.301  0.00  0.00    +0.050 A 
ATOM     13  C   UNL     1      -8.961   0.239   4.020  0.00  0.00    +0.162 A 
ATOM     14  C   UNL     1      -8.697   1.543   3.612  0.00  0.00    +0.162 A 
ATOM     15  C   UNL     1      -7.386   1.975   3.489  0.00  0.00    +0.055 A 
BRANCH  14  16
ATOM     16  O   UNL     1      -9.723   2.391   3.334  0.00  0.00    -0.491 OA
ATOM     17  C   UNL     1      -9.377   3.714   2.920  0.00  0.00    +0.277 C 
ENDBRANCH  14  16
BRANCH  13  18
ATOM     18  O   UNL     1     -10.245  -0.190   4.142  0.00  0.00    -0.484 OA
BRANCH  18  19
ATOM     19  C   UNL     1     -10.441  -1.541   4.566  0.00  0.00    +0.264 C 
BRANCH  19  20
ATOM     20  C   UNL     1     -11.917  -1.834   4.644  0.00  0.00    -0.010 A 
ATOM     21  C   UNL     1     -12.604  -1.614   5.823  0.00  0.00    +0.008 A 
ATOM     22  C   UNL     1     -13.959  -1.877   5.894  0.00  0.00    +0.020 A 
ATOM     23  C   UNL     1     -14.626  -2.372   4.787  0.00  0.00    +0.041 A 
ATOM     24  C   UNL     1     -13.937  -2.597   3.608  0.00  0.00    +0.020 A 
ATOM     25  C   UNL     1     -12.583  -2.328   3.538  0.00  0.00    +0.008 A 
ATOM     26 CL   UNL     1     -16.326  -2.709   4.877  0.00  0.00    -0.084 Cl
ENDBRANCH  19  20
ENDBRANCH  18  19
ENDBRANCH  13  18
ENDBRANCH   2  10
BRANCH   7  27
ATOM     27  C   UNL     1      -4.609   3.726   6.812  0.00  0.00    +0.436 C 
ATOM     28  F   UNL     1      -3.299   4.169   6.599  0.00  0.00    -0.166 F 
ATOM     29  F   UNL     1      -5.388   4.786   7.289  0.00  0.00    -0.166 F 
ATOM     30  F   UNL     1      -4.604   2.691   7.753  0.00  0.00    -0.166 F 
ENDBRANCH   7  27
BRANCH   1  31
ATOM     31  C   UNL     1      -2.932   2.381   4.896  0.00  0.00    +0.317 C 
ATOM     32  O   UNL     1      -2.593   3.260   4.140  0.00  0.00    -0.250 OA
BRANCH  31  33
ATOM     33  O   UNL     1      -2.014   1.739   5.635  0.00  0.00    -0.465 OA
BRANCH  33  35
ATOM     34  C   UNL     1       0.263   1.315   6.390  0.00  0.00    +0.048 C 
ATOM     35  C   UNL     1      -0.631   2.154   5.473  0.00  0.00    +0.229 C 
ENDBRANCH  33  35
ENDBRANCH  31  33
ENDBRANCH   1  31
BRANCH   7  36
ATOM     36  O   UNL     1      -6.556   2.831   5.694  0.00  0.00    -0.364 OA
ATOM     37  H   UNL     1      -7.126   3.549   6.002  0.00  0.00    +0.212 HD
ENDBRANCH   7  36
TORSDOF 10
