REMARK  Name = ZINC63106918
REMARK  5 active torsions:
REMARK  status: ('A' for Active; 'I' for Inactive)
REMARK    1  A    between atoms: C_9  and  C_10
REMARK    2  A    between atoms: C_12  and  N_20
REMARK    3  A    between atoms: C_21  and  C_23
REMARK    4  A    between atoms: C_23  and  S_24
REMARK    5  A    between atoms: S_24  and  C_25
REMARK                            x       y       z     vdW  Elec       q    Type
REMARK                         _______ _______ _______ _____ _____    ______ ____
ROOT
ATOM      1  C   UNL     1       3.731  -3.477  -0.081  0.00  0.00    +0.081 A 
ATOM      2  C   UNL     1       5.135  -3.437  -0.079  0.00  0.00    +0.052 A 
ATOM      3  C   UNL     1       5.848  -4.606  -0.087  0.00  0.00    +0.045 A 
ATOM      4  C   UNL     1       5.131  -5.829  -0.098  0.00  0.00    +0.022 A 
ATOM      5  C   UNL     1       5.797  -7.061  -0.107  0.00  0.00    +0.012 A 
ATOM      6  C   UNL     1       5.076  -8.218  -0.117  0.00  0.00    +0.001 A 
ATOM      7  C   UNL     1       3.684  -8.191  -0.119  0.00  0.00    +0.002 A 
ATOM      8  C   UNL     1       3.006  -7.011  -0.111  0.00  0.00    +0.028 A 
ATOM      9  C   UNL     1       3.716  -5.798  -0.100  0.00  0.00    +0.073 A 
ATOM     10  N   UNL     1       3.072  -4.625  -0.086  0.00  0.00    -0.246 NA
ENDROOT
BRANCH   1  19
ATOM     11  C   UNL     1       0.004   1.414  -0.045  0.00  0.00    +0.001 A 
ATOM     12  C   UNL     1       1.185   2.121  -0.044  0.00  0.00    +0.001 A 
ATOM     13  C   UNL     1       2.406   1.450  -0.050  0.00  0.00    +0.012 A 
ATOM     14  C   UNL     1       2.432   0.067  -0.057  0.00  0.00    +0.033 A 
ATOM     15  C   UNL     1       1.224  -0.655  -0.058  0.00  0.00    +0.033 A 
ATOM     16  C   UNL     1       0.018   0.021  -0.052  0.00  0.00    +0.012 A 
ATOM     17  C   UNL     1       1.574  -2.099  -0.067  0.00  0.00    +0.200 C 
ATOM     18  O   UNL     1       0.780  -3.030  -0.070  0.00  0.00    -0.286 OA
ATOM     19  C   UNL     1       2.974  -2.211  -0.071  0.00  0.00    +0.095 C 
ATOM     20  C   UNL     1       3.538  -0.925  -0.066  0.00  0.00    +0.200 C 
ATOM     21  O   UNL     1       4.733  -0.665  -0.067  0.00  0.00    -0.286 OA
ENDBRANCH   1  19
BRANCH   3  22
ATOM     22  N   UNL     1       7.240  -4.594  -0.086  0.00  0.00    -0.284 N 
ATOM     23  C   UNL     1       7.904  -3.532   0.412  0.00  0.00    +0.227 C 
ATOM     24  O   UNL     1       7.293  -2.632   0.950  0.00  0.00    -0.275 OA
ATOM     25  H   UNL     1       7.732  -5.350  -0.443  0.00  0.00    +0.155 HD
BRANCH  23  26
ATOM     26  C   UNL     1       9.405  -3.462   0.301  0.00  0.00    +0.169 C 
BRANCH  26  27
ATOM     27  S   UNL     1       9.997  -1.924   1.059  0.00  0.00    -0.106 S 
BRANCH  27  28
ATOM     28  C   UNL     1      11.797  -1.993   0.845  0.00  0.00    +0.236 C 
ATOM     29  N   UNL     1      12.130  -2.138  -0.578  0.00  0.00    -0.355 N 
ATOM     30  C   UNL     1      12.779  -3.257  -0.716  0.00  0.00    +0.061 A 
ATOM     31  C   UNL     1      13.365  -3.936  -1.880  0.00  0.00    +0.027 A 
ATOM     32  C   UNL     1      13.995  -5.117  -1.714  0.00  0.00    +0.002 A 
ATOM     33  C   UNL     1      14.120  -5.740  -0.460  0.00  0.00    +0.002 A 
ATOM     34  C   UNL     1      13.620  -5.203   0.671  0.00  0.00    +0.027 A 
ATOM     35  C   UNL     1      12.912  -3.917   0.612  0.00  0.00    +0.061 A 
ATOM     36  N   UNL     1      12.339  -3.179   1.519  0.00  0.00    -0.355 N 
ATOM     37  H   UNL     1      11.906  -1.513  -1.286  0.00  0.00    +0.162 HD
ATOM     38  H   UNL     1      12.282  -3.377   2.467  0.00  0.00    +0.162 HD
ENDBRANCH  27  28
ENDBRANCH  26  27
ENDBRANCH  23  26
ENDBRANCH   3  22
TORSDOF 5
