REMARK  Name = ZINC12633484
REMARK  11 active torsions:
REMARK  status: ('A' for Active; 'I' for Inactive)
REMARK    1  A    between atoms: C_1  and  O_2
REMARK    2  A    between atoms: O_2  and  C_3
REMARK    3  A    between atoms: C_6  and  C_11
REMARK    4  A    between atoms: C_8  and  O_9
REMARK    5  A    between atoms: O_9  and  C_10
REMARK    6  A    between atoms: C_11  and  N_53
REMARK    7  A    between atoms: C_12  and  C_14
REMARK    8  A    between atoms: C_12  and  C_20
REMARK    9  A    between atoms: C_12  and  N_53
REMARK   10  A    between atoms: N_22  and  C_23
REMARK   11  A    between atoms: C_26  and  N_30
REMARK                            x       y       z     vdW  Elec       q    Type
REMARK                         _______ _______ _______ _____ _____    ______ ____
ROOT
ATOM      1  C   UNL     1       1.280   1.979   0.019  0.00  0.00    +0.048 C 
ENDROOT
BRANCH   1   2
ATOM      2  C   UNL     1       1.346   2.856  -1.204  0.00  0.00    -0.053 A 
ATOM      3  C   UNL     1       1.716   2.318  -2.423  0.00  0.00    +0.002 A 
ATOM      4  C   UNL     1       1.772   3.122  -3.546  0.00  0.00    +0.000 A 
ATOM      5  C   UNL     1       1.467   4.466  -3.449  0.00  0.00    +0.000 A 
ATOM      6  C   UNL     1       1.102   5.006  -2.230  0.00  0.00    +0.000 A 
ATOM      7  C   UNL     1       1.042   4.201  -1.107  0.00  0.00    +0.002 A 
ENDBRANCH   1   2
BRANCH   1   8
ATOM      8  C   UNL     1      -0.015   1.208   0.015  0.00  0.00    +0.207 C 
ATOM      9  O   UNL     1       0.001  -0.005   0.005  0.00  0.00    -0.277 OA
ATOM     10  N   UNL     1      -1.191   1.867   0.018  0.00  0.00    -0.285 N 
ATOM     11  H   UNL     1      -1.205   2.834   0.092  0.00  0.00    +0.155 HD
BRANCH  10  12
ATOM     12  C   UNL     1      -2.392   1.155  -0.086  0.00  0.00    +0.052 A 
ATOM     13  C   UNL     1      -2.510  -0.099   0.499  0.00  0.00    +0.027 A 
ATOM     14  C   UNL     1      -3.696  -0.799   0.395  0.00  0.00    +0.034 A 
ATOM     15  C   UNL     1      -4.766  -0.252  -0.291  0.00  0.00    +0.128 A 
ATOM     16  C   UNL     1      -4.652   0.996  -0.875  0.00  0.00    +0.054 A 
ATOM     17  C   UNL     1      -3.469   1.704  -0.770  0.00  0.00    +0.064 A 
ATOM     18 CL   UNL     1      -3.329   3.274  -1.497  0.00  0.00    -0.082 Cl
BRANCH  15  19
ATOM     19  N   UNL     1      -6.035  -1.006  -0.400  0.00  0.00    +0.056 N 
ATOM     20  O   UNL     1      -6.137  -2.105   0.114  0.00  0.00    -0.126 OA
ATOM     21  O   UNL     1      -6.978  -0.526  -1.004  0.00  0.00    -0.126 OA
ENDBRANCH  15  19
ENDBRANCH  10  12
ENDBRANCH   1   8
BRANCH   1  22
ATOM     22  N   UNL     1       2.409   1.029   0.005  0.00  0.00    +0.392 N 
ATOM     23  H   UNL     1       2.158   0.197   0.551  0.00  0.00    -0.084 HD
ATOM     24  H   UNL     1       2.608   0.754  -0.965  0.00  0.00    -0.084 HD
BRANCH  22  25
ATOM     25  C   UNL     1       3.611   1.653   0.590  0.00  0.00    -0.045 C 
BRANCH  25  29
ATOM     26  C   UNL     1       6.828  -1.163   0.517  0.00  0.00    +0.161 A 
ATOM     27  C   UNL     1       5.982  -1.103   1.613  0.00  0.00    +0.049 A 
ATOM     28  C   UNL     1       4.946  -0.187   1.636  0.00  0.00    +0.005 A 
ATOM     29  C   UNL     1       4.745   0.661   0.563  0.00  0.00    -0.061 A 
ATOM     30  C   UNL     1       5.586   0.605  -0.533  0.00  0.00    +0.051 A 
ATOM     31  C   UNL     1       6.629  -0.306  -0.561  0.00  0.00    +0.162 A 
BRANCH  26  33
ATOM     32  C   UNL     1       7.995  -2.908   1.636  0.00  0.00    +0.277 C 
ATOM     33  O   UNL     1       7.851  -2.059   0.495  0.00  0.00    -0.491 OA
ENDBRANCH  26  33
BRANCH  31  34
ATOM     34  O   UNL     1       7.457  -0.362  -1.638  0.00  0.00    -0.491 OA
ATOM     35  C   UNL     1       7.192   0.548  -2.708  0.00  0.00    +0.277 C 
ENDBRANCH  31  34
ENDBRANCH  25  29
ENDBRANCH  22  25
ENDBRANCH   1  22
TORSDOF 9
