REMARK  Name = ZINC67076440
REMARK  8 active torsions:
REMARK  status: ('A' for Active; 'I' for Inactive)
REMARK    1  A    between atoms: C_1  and  C_2
REMARK    2  A    between atoms: C_4  and  C_8
REMARK    3  A    between atoms: C_5  and  C_7
REMARK    4  A    between atoms: C_8  and  C_10
REMARK    5  A    between atoms: C_8  and  N_11
REMARK    6  A    between atoms: C_12  and  C_14
REMARK    7  A    between atoms: C_14  and  N_15
REMARK    8  A    between atoms: C_23  and  C_25
REMARK                            x       y       z     vdW  Elec       q    Type
REMARK                         _______ _______ _______ _____ _____    ______ ____
ROOT
ATOM      1  C   UNL     1      -4.929  -3.724   1.524  0.00  0.00    +0.213 C 
ENDROOT
BRANCH   1   2
ATOM      2  N   UNL     1      -5.539  -4.933   2.084  0.00  0.00    -0.215 N 
ATOM      3  C   UNL     1      -6.266  -5.816   1.369  0.00  0.00    +0.247 C 
ATOM      4  O   UNL     1      -6.530  -5.763   0.187  0.00  0.00    -0.273 OA
ATOM      5  C   UNL     1      -6.683  -6.885   2.353  0.00  0.00    +0.115 C 
ATOM      6  C   UNL     1      -6.118  -8.239   1.937  0.00  0.00    +0.035 C 
ATOM      7  C   UNL     1      -6.717  -8.651   0.590  0.00  0.00    +0.003 C 
ATOM      8  C   UNL     1      -8.240  -8.732   0.714  0.00  0.00    +0.000 C 
ATOM      9  C   UNL     1      -8.795  -7.362   1.111  0.00  0.00    +0.006 C 
ATOM     10  C   UNL     1      -8.203  -6.945   2.460  0.00  0.00    +0.018 C 
ATOM     11  C   UNL     1      -8.741  -5.567   2.848  0.00  0.00    +0.010 C 
ATOM     12  N   UNL     1      -6.094  -6.449   3.624  0.00  0.00    -0.285 N 
ATOM     13  C   UNL     1      -5.439  -5.301   3.367  0.00  0.00    +0.310 C 
ATOM     14  O   UNL     1      -4.829  -4.668   4.206  0.00  0.00    -0.252 OA
ATOM     15  H   UNL     1      -6.159  -6.901   4.480  0.00  0.00    +0.151 HD
ENDBRANCH   1   2
BRANCH   1  17
ATOM     16  N   UNL     1      -2.786  -3.079   0.471  0.00  0.00    -0.307 N 
ATOM     17  C   UNL     1      -3.542  -4.045   1.030  0.00  0.00    +0.231 C 
ATOM     18  O   UNL     1      -3.106  -5.171   1.135  0.00  0.00    -0.274 OA
ATOM     19  H   UNL     1      -3.135  -2.178   0.387  0.00  0.00    +0.149 HD
BRANCH  16  20
ATOM     20  C   UNL     1      -1.437  -3.390  -0.009  0.00  0.00    +0.103 C 
ATOM     21  C   UNL     1      -1.518  -3.946  -1.432  0.00  0.00    +0.033 C 
BRANCH  20  25
ATOM     22  C   UNL     1      -0.018   1.503   0.010  0.00  0.00    +0.086 C 
ATOM     23  C   UNL     1       0.002  -0.004   0.002  0.00  0.00    +0.103 A 
ATOM     24  C   UNL     1      -1.078  -0.805   0.003  0.00  0.00    +0.050 A 
ATOM     25  C   UNL     1      -0.601  -2.136  -0.007  0.00  0.00    +0.013 A 
ATOM     26  C   UNL     1       0.742  -2.069  -0.013  0.00  0.00    +0.107 A 
ATOM     27  O   UNL     1       1.102  -0.775  -0.013  0.00  0.00    -0.465 OA
ATOM     28  C   UNL     1       1.684  -3.245  -0.023  0.00  0.00    +0.086 C 
ENDBRANCH  20  25
ENDBRANCH  16  20
ENDBRANCH   1  17
TORSDOF 4
