REMARK  Name = ZINC30734378
REMARK  7 active torsions:
REMARK  status: ('A' for Active; 'I' for Inactive)
REMARK    1  A    between atoms: C_4  and  C_7
REMARK    2  A    between atoms: C_13  and  C_15
REMARK    3  A    between atoms: N_17  and  N_18
REMARK    4  A    between atoms: C_19  and  C_20
REMARK    5  A    between atoms: C_24  and  O_26
REMARK    6  A    between atoms: O_26  and  C_27
REMARK    7  A    between atoms: C_27  and  C_29
REMARK                            x       y       z     vdW  Elec       q    Type
REMARK                         _______ _______ _______ _____ _____    ______ ____
ROOT
ATOM      1  N   UNL     1       2.073   3.496   3.355  0.00  0.00    -0.188 NA
ATOM      2  C   UNL     1       1.163   3.913   4.180  0.00  0.00    +0.138 C 
ENDROOT
BRANCH   2   3
ATOM      3  C   UNL     1      -0.094   4.487   3.664  0.00  0.00    -0.002 A 
ATOM      4  C   UNL     1      -0.524   4.182   2.370  0.00  0.00    +0.010 A 
ATOM      5  C   UNL     1      -1.702   4.718   1.892  0.00  0.00    +0.004 A 
ATOM      6  C   UNL     1      -2.454   5.564   2.685  0.00  0.00    +0.046 A 
ATOM      7  C   UNL     1      -2.033   5.877   3.971  0.00  0.00    +0.133 A 
ATOM      8  C   UNL     1      -0.855   5.342   4.463  0.00  0.00    +0.055 A 
BRANCH   7   9
ATOM      9  O   UNL     1      -2.777   6.710   4.746  0.00  0.00    -0.422 OA
BRANCH   9  10
ATOM     10  C   UNL     1      -2.341   7.978   4.874  0.00  0.00    +0.344 C 
ATOM     11  O   UNL     1      -1.382   8.359   4.233  0.00  0.00    -0.245 OA
BRANCH  10  12
ATOM     12  C   UNL     1      -3.030   8.906   5.793  0.00  0.00    +0.060 A 
ATOM     13  C   UNL     1      -4.137   8.474   6.527  0.00  0.00    +0.015 A 
ATOM     14  C   UNL     1      -4.773   9.344   7.387  0.00  0.00    +0.002 A 
ATOM     15  C   UNL     1      -4.324  10.646   7.517  0.00  0.00    +0.015 A 
ATOM     16  C   UNL     1      -3.231  11.084   6.789  0.00  0.00    +0.019 A 
ATOM     17  C   UNL     1      -2.582  10.222   5.928  0.00  0.00    +0.030 A 
ATOM     18 BR   UNL     1      -2.625  12.866   6.974  0.00  0.00    -0.050 Br
ENDBRANCH  10  12
ENDBRANCH   9  10
ENDBRANCH   7   9
ENDBRANCH   2   3
BRANCH   1  21
ATOM     19  C   UNL     1       2.873   3.319   1.120  0.00  0.00    +0.245 C 
ATOM     20  O   UNL     1       3.690   2.502   1.491  0.00  0.00    -0.273 OA
ATOM     21  N   UNL     1       2.019   3.868   2.006  0.00  0.00    -0.206 N 
ATOM     22  H   UNL     1       1.278   4.609   1.669  0.00  0.00    +0.177 HD
BRANCH  19  28
ATOM     23  C   UNL     1       3.809   4.869  -0.617  0.00  0.00    +0.057 C 
ATOM     24  C   UNL     1       5.057   4.094  -1.095  0.00  0.00    +0.113 C 
ATOM     25  N   UNL     1       4.549   2.825  -1.630  0.00  0.00    -0.314 N 
ATOM     26  C   UNL     1       3.294   2.587  -1.213  0.00  0.00    +0.226 C 
ATOM     27  O   UNL     1       2.639   1.609  -1.505  0.00  0.00    -0.275 OA
ATOM     28  C   UNL     1       2.814   3.719  -0.332  0.00  0.00    +0.171 C 
ATOM     29  H   UNL     1       5.186   2.210  -2.283  0.00  0.00    +0.149 HD
BRANCH  23  33
ATOM     30  C   UNL     1       4.651   7.079   2.940  0.00  0.00    +0.000 A 
ATOM     31  C   UNL     1       5.155   5.801   2.785  0.00  0.00    +0.000 A 
ATOM     32  C   UNL     1       4.882   5.086   1.634  0.00  0.00    +0.004 A 
ATOM     33  C   UNL     1       4.106   5.648   0.638  0.00  0.00    -0.042 A 
ATOM     34  C   UNL     1       3.607   6.928   0.791  0.00  0.00    +0.004 A 
ATOM     35  C   UNL     1       3.876   7.642   1.944  0.00  0.00    +0.000 A 
ENDBRANCH  23  33
ENDBRANCH  19  28
ENDBRANCH   1  21
TORSDOF 7
