REMARK  Name = ZINC06586578
REMARK  7 active torsions:
REMARK  status: ('A' for Active; 'I' for Inactive)
REMARK    1  A    between atoms: C_2  and  C_3
REMARK    2  A    between atoms: C_3  and  N_4
REMARK    3  A    between atoms: C_5  and  C_7
REMARK    4  A    between atoms: C_7  and  O_8
REMARK    5  A    between atoms: O_8  and  C_9
REMARK    6  A    between atoms: C_9  and  C_11
REMARK    7  A    between atoms: C_25  and  C_26
REMARK                            x       y       z     vdW  Elec       q    Type
REMARK                         _______ _______ _______ _____ _____    ______ ____
ROOT
ATOM      1  C   UNL     1       0.216   0.026  -0.033  0.00  0.00    +0.073 A 
ATOM      2  C   UNL     1       0.005  -0.724   1.205  0.00  0.00    +0.015 A 
ATOM      3  C   UNL     1      -0.071  -0.082   2.446  0.00  0.00    +0.011 A 
ATOM      4  C   UNL     1      -0.277  -0.820   3.574  0.00  0.00    +0.001 A 
ATOM      5  C   UNL     1      -0.417  -2.204   3.507  0.00  0.00    +0.002 A 
ATOM      6  C   UNL     1      -0.353  -2.860   2.316  0.00  0.00    +0.028 A 
ATOM      7  C   UNL     1      -0.141  -2.132   1.129  0.00  0.00    +0.072 A 
ATOM      8  N   UNL     1      -0.072  -2.745  -0.051  0.00  0.00    -0.247 NA
ATOM      9  C   UNL     1       0.126  -2.091  -1.184  0.00  0.00    +0.072 A 
ATOM     10  C   UNL     1       0.271  -0.693  -1.220  0.00  0.00    -0.007 A 
ATOM     11  C   UNL     1       0.479   0.052  -2.510  0.00  0.00    +0.038 C 
ATOM     12  C   UNL     1       1.053  -0.861  -3.590  0.00  0.00    +0.009 C 
ATOM     13  C   UNL     1       0.150  -2.091  -3.747  0.00  0.00    +0.037 C 
ATOM     14  C   UNL     1       0.200  -2.862  -2.445  0.00  0.00    -0.021 C 
ATOM     15  C   UNL     1       0.310  -4.202  -2.435  0.00  0.00    +0.013 C 
ENDROOT
BRANCH  15  16
ATOM     16  C   UNL     1       0.210  -4.958  -3.695  0.00  0.00    -0.025 A 
ATOM     17  C   UNL     1      -0.627  -4.509  -4.720  0.00  0.00    +0.008 A 
ATOM     18  C   UNL     1      -0.711  -5.219  -5.899  0.00  0.00    +0.001 A 
ATOM     19  C   UNL     1       0.023  -6.381  -6.065  0.00  0.00    +0.000 A 
ATOM     20  C   UNL     1       0.850  -6.835  -5.052  0.00  0.00    +0.001 A 
ATOM     21  C   UNL     1       0.948  -6.133  -3.870  0.00  0.00    +0.008 A 
ENDBRANCH  15  16
BRANCH   1  22
ATOM     22  C   UNL     1       0.371   1.496  -0.021  0.00  0.00    +0.341 C 
ATOM     23  O   UNL     1      -0.605   2.210  -0.136  0.00  0.00    -0.245 OA
BRANCH  22  24
ATOM     24  O   UNL     1       1.595   2.043   0.113  0.00  0.00    -0.452 OA
BRANCH  24  25
ATOM     25  C   UNL     1       1.671   3.493   0.116  0.00  0.00    +0.328 C 
BRANCH  25  27
ATOM     26  N   UNL     1       3.423   5.230   0.304  0.00  0.00    -0.309 N 
ATOM     27  C   UNL     1       3.108   3.920   0.274  0.00  0.00    +0.251 C 
ATOM     28  O   UNL     1       3.982   3.084   0.373  0.00  0.00    -0.272 OA
ATOM     29  H   UNL     1       2.724   5.898   0.225  0.00  0.00    +0.149 HD
BRANCH  26  30
ATOM     30  C   UNL     1       4.820   5.645   0.457  0.00  0.00    +0.131 C 
BRANCH  30  32
ATOM     31  C   UNL     1       5.478   7.772   1.458  0.00  0.00    +0.005 C 
ATOM     32  C   UNL     1       4.899   7.150   0.461  0.00  0.00    -0.016 C 
ENDBRANCH  30  32
ENDBRANCH  26  30
ENDBRANCH  25  27
ENDBRANCH  24  25
ENDBRANCH  22  24
ENDBRANCH   1  22
TORSDOF 7
