REMARK  Name = ZINC12111475
REMARK  8 active torsions:
REMARK  status: ('A' for Active; 'I' for Inactive)
REMARK    1  A    between atoms: C_1  and  C_2
REMARK    2  A    between atoms: C_2  and  C_4
REMARK    3  A    between atoms: C_2  and  S_17
REMARK    4  A    between atoms: N_6  and  C_7
REMARK    5  A    between atoms: S_17  and  C_18
REMARK    6  A    between atoms: C_21  and  C_29
REMARK    7  A    between atoms: N_22  and  C_23
REMARK    8  A    between atoms: C_29  and  C_30
REMARK                            x       y       z     vdW  Elec       q    Type
REMARK                         _______ _______ _______ _____ _____    ______ ____
ROOT
ATOM      1  C   UNL     1      -3.900   1.193   3.385  0.00  0.00    +0.197 A 
ATOM      2  N   UNL     1      -3.217   0.072   3.408  0.00  0.00    -0.122 NA
ATOM      3  N   UNL     1      -2.754  -0.183   2.236  0.00  0.00    -0.133 NA
ATOM      4  C   UNL     1      -3.102   0.756   1.402  0.00  0.00    +0.143 A 
ATOM      5  N   UNL     1      -3.849   1.667   2.103  0.00  0.00    -0.274 N 
ENDROOT
BRANCH   5   6
ATOM      6  C   UNL     1      -4.437   2.840   1.608  0.00  0.00    +0.050 A 
ATOM      7  C   UNL     1      -3.639   3.892   1.182  0.00  0.00    +0.026 A 
ATOM      8  C   UNL     1      -4.221   5.044   0.690  0.00  0.00    +0.002 A 
ATOM      9  C   UNL     1      -5.598   5.154   0.633  0.00  0.00    +0.000 A 
ATOM     10  C   UNL     1      -6.396   4.110   1.062  0.00  0.00    +0.002 A 
ATOM     11  C   UNL     1      -5.819   2.953   1.550  0.00  0.00    +0.026 A 
ENDBRANCH   5   6
BRANCH   1  12
ATOM     12  S   UNL     1      -4.726   1.944   4.748  0.00  0.00    -0.073 S 
BRANCH  12  14
ATOM     13  C   UNL     1      -5.002  -0.592   5.724  0.00  0.00    +0.029 C 
ATOM     14  C   UNL     1      -4.338   0.748   6.049  0.00  0.00    +0.137 C 
BRANCH  14  15
ATOM     15  C   UNL     1      -4.855   1.257   7.370  0.00  0.00    +0.227 C 
ATOM     16  O   UNL     1      -5.782   2.039   7.398  0.00  0.00    -0.275 OA
ATOM     17  N   UNL     1      -4.287   0.844   8.520  0.00  0.00    -0.309 N 
ATOM     18  H   UNL     1      -3.546   0.219   8.498  0.00  0.00    +0.149 HD
BRANCH  17  19
ATOM     19  C   UNL     1      -4.790   1.339   9.804  0.00  0.00    +0.035 C 
ATOM     20  C   UNL     1      -6.262   0.952   9.959  0.00  0.00    +0.029 C 
ATOM     21  C   UNL     1      -6.787   1.469  11.300  0.00  0.00    -0.008 C 
ATOM     22  C   UNL     1      -5.975   0.850  12.439  0.00  0.00    +0.007 C 
ATOM     23  C   UNL     1      -4.502   1.237  12.284  0.00  0.00    -0.008 C 
ATOM     24  C   UNL     1      -3.978   0.720  10.943  0.00  0.00    +0.029 C 
ATOM     25  C   UNL     1      -4.368   2.760  12.331  0.00  0.00    +0.007 C 
ATOM     26  C   UNL     1      -5.180   3.380  11.193  0.00  0.00    -0.008 C 
ATOM     27  C   UNL     1      -6.652   2.993  11.347  0.00  0.00    +0.007 C 
ATOM     28  C   UNL     1      -4.655   2.863   9.852  0.00  0.00    +0.029 C 
ENDBRANCH  17  19
ENDBRANCH  14  15
ENDBRANCH  12  14
ENDBRANCH   1  12
BRANCH   4  29
ATOM     29  C   UNL     1      -2.754   0.825  -0.062  0.00  0.00    +0.111 C 
BRANCH  29  30
ATOM     30  C   UNL     1      -3.748   0.014  -0.854  0.00  0.00    -0.040 A 
ATOM     31  C   UNL     1      -4.856   0.628  -1.406  0.00  0.00    +0.004 A 
ATOM     32  C   UNL     1      -5.765  -0.115  -2.137  0.00  0.00    +0.000 A 
ATOM     33  C   UNL     1      -5.568  -1.472  -2.310  0.00  0.00    +0.000 A 
ATOM     34  C   UNL     1      -4.462  -2.087  -1.753  0.00  0.00    +0.000 A 
ATOM     35  C   UNL     1      -3.554  -1.344  -1.023  0.00  0.00    +0.004 A 
ENDBRANCH  29  30
ENDBRANCH   4  29
TORSDOF 7
