REMARK  Name = ZINC40066808
REMARK  13 active torsions:
REMARK  status: ('A' for Active; 'I' for Inactive)
REMARK    1  A    between atoms: C_1  and  C_2
REMARK    2  A    between atoms: C_2  and  C_3
REMARK    3  A    between atoms: C_3  and  C_4
REMARK    4  A    between atoms: C_4  and  N_5
REMARK    5  A    between atoms: C_9  and  C_10
REMARK    6  A    between atoms: C_11  and  C_33
REMARK    7  A    between atoms: C_12  and  C_31
REMARK    8  A    between atoms: N_15  and  C_28
REMARK    9  A    between atoms: C_16  and  N_17
REMARK   10  A    between atoms: N_17  and  C_18
REMARK   11  A    between atoms: C_18  and  C_19
REMARK   12  A    between atoms: C_28  and  C_29
REMARK   13  A    between atoms: C_29  and  C_30
REMARK                            x       y       z     vdW  Elec       q    Type
REMARK                         _______ _______ _______ _____ _____    ______ ____
ROOT
ATOM      1  C   UNL     1       5.279  -3.895   5.083  0.00  0.00    +0.019 A 
ATOM      2  C   UNL     1       4.434  -4.191   6.166  0.00  0.00    -0.017 A 
ATOM      3  C   UNL     1       4.972  -4.817   7.288  0.00  0.00    +0.120 A 
ATOM      4  C   UNL     1       6.353  -5.138   7.311  0.00  0.00    +0.270 A 
ATOM      5  O   UNL     1       6.830  -5.686   8.290  0.00  0.00    -0.266 OA
ATOM      6  N   UNL     1       7.141  -4.843   6.261  0.00  0.00    -0.295 N 
ATOM      7  C   UNL     1       6.639  -4.239   5.154  0.00  0.00    +0.109 A 
ATOM      8  C   UNL     1       2.970  -3.838   6.115  0.00  0.00    +0.046 C 
ENDROOT
BRANCH   1  13
ATOM      9  N   UNL     1       5.678  -0.199   2.073  0.00  0.00    -0.255 N 
ATOM     10  C   UNL     1       5.011  -1.322   2.269  0.00  0.00    +0.258 C 
ATOM     11  O   UNL     1       4.186  -1.711   1.462  0.00  0.00    -0.269 OA
ATOM     12  C   UNL     1       5.286  -2.067   3.457  0.00  0.00    +0.077 C 
ATOM     13  C   UNL     1       4.745  -3.238   3.889  0.00  0.00    +0.032 C 
ATOM     14  S   UNL     1       6.535  -1.042   4.220  0.00  0.00    -0.061 S 
ATOM     15  C   UNL     1       6.598   0.229   2.966  0.00  0.00    +0.121 C 
ATOM     16  S   UNL     1       7.574   1.635   2.911  0.00  0.00    -0.027 S 
BRANCH   9  17
ATOM     17  C   UNL     1       5.422   0.592   0.866  0.00  0.00    +0.115 C 
BRANCH  17  18
ATOM     18  C   UNL     1       6.357   0.130  -0.254  0.00  0.00    +0.019 C 
BRANCH  18  20
ATOM     19  C   UNL     1       7.024   0.493  -2.634  0.00  0.00    +0.004 C 
ATOM     20  C   UNL     1       6.089   0.955  -1.514  0.00  0.00    -0.002 C 
ENDBRANCH  18  20
ENDBRANCH  17  18
ENDBRANCH   9  17
ENDBRANCH   1  13
BRANCH   7  21
ATOM     21  N   UNL     1       7.463  -3.958   4.104  0.00  0.00    -0.326 N 
ATOM     22  H   UNL     1       7.998  -3.149   4.109  0.00  0.00    +0.148 HD
BRANCH  21  23
ATOM     23  C   UNL     1       7.541  -4.880   2.967  0.00  0.00    +0.138 C 
BRANCH  23  24
ATOM     24  C   UNL     1       8.611  -4.413   2.014  0.00  0.00    -0.027 A 
ATOM     25  C   UNL     1       8.290  -3.538   0.993  0.00  0.00    +0.009 A 
ATOM     26  C   UNL     1       9.268  -3.106   0.116  0.00  0.00    +0.050 A 
ATOM     27  C   UNL     1      10.572  -3.551   0.259  0.00  0.00    +0.166 A 
ATOM     28  C   UNL     1      10.895  -4.432   1.288  0.00  0.00    +0.167 A 
ATOM     29  C   UNL     1       9.911  -4.856   2.166  0.00  0.00    +0.054 A 
ATOM     30  O   UNL     1      12.228  -4.717   1.216  0.00  0.00    -0.453 OA
ATOM     31  C   UNL     1      12.634  -4.325  -0.109  0.00  0.00    +0.466 C 
ATOM     32  O   UNL     1      11.703  -3.283  -0.457  0.00  0.00    -0.453 OA
ENDBRANCH  23  24
ENDBRANCH  21  23
ENDBRANCH   7  21
BRANCH   3  33
ATOM     33  C   UNL     1       4.138  -5.132   8.408  0.00  0.00    +0.105 C 
ATOM     34  N   UNL     1       3.477  -5.382   9.297  0.00  0.00    -0.191 NA
ENDBRANCH   3  33
BRANCH   6  35
ATOM     35  C   UNL     1       8.565  -5.186   6.311  0.00  0.00    +0.126 C 
BRANCH  35  36
ATOM     36  C   UNL     1       8.754  -6.642   5.882  0.00  0.00    +0.018 C 
ATOM     37  C   UNL     1      10.223  -7.037   6.053  0.00  0.00    +0.005 C 
ENDBRANCH  35  36
ENDBRANCH   6  35
TORSDOF 10
