REMARK  Name = ZINC38848204
REMARK  14 active torsions:
REMARK  status: ('A' for Active; 'I' for Inactive)
REMARK    1  A    between atoms: C_1  and  C_2
REMARK    2  A    between atoms: C_4  and  C_36
REMARK    3  A    between atoms: N_11  and  C_12
REMARK    4  A    between atoms: C_12  and  C_13
REMARK    5  A    between atoms: C_13  and  C_14
REMARK    6  A    between atoms: C_14  and  N_15
REMARK    7  A    between atoms: C_20  and  C_22
REMARK    8  A    between atoms: C_23  and  C_24
REMARK    9  A    between atoms: C_26  and  O_34
REMARK   10  A    between atoms: C_27  and  O_32
REMARK   11  A    between atoms: C_28  and  O_30
REMARK   12  A    between atoms: O_30  and  C_31
REMARK   13  A    between atoms: O_32  and  C_33
REMARK   14  A    between atoms: O_34  and  C_35
REMARK                            x       y       z     vdW  Elec       q    Type
REMARK                         _______ _______ _______ _____ _____    ______ ____
ROOT
ATOM      1  C   UNL     1      -0.018   1.503   0.010  0.00  0.00    +0.044 C 
ATOM      2  C   UNL     1       0.002  -0.004   0.002  0.00  0.00    -0.048 A 
ATOM      3  C   UNL     1       0.005  -0.675  -1.212  0.00  0.00    +0.008 A 
ATOM      4  C   UNL     1       0.024  -2.058  -1.222  0.00  0.00    -0.034 A 
ATOM      5  C   UNL     1       0.039  -2.743  -0.033  0.00  0.00    +0.044 A 
ATOM      6  C   UNL     1       0.036  -2.094   1.223  0.00  0.00    +0.081 A 
ATOM      7  C   UNL     1       0.023  -0.680   1.194  0.00  0.00    +0.032 A 
ATOM      8  N   UNL     1       0.052  -2.906   2.302  0.00  0.00    -0.224 NA
ATOM      9  C   UNL     1       0.069  -4.215   2.200  0.00  0.00    +0.168 A 
ATOM     10  S   UNL     1       0.064  -4.459   0.429  0.00  0.00    -0.052 S 
ATOM     11  N   UNL     1       0.086  -5.164   3.207  0.00  0.00    -0.247 N 
ATOM     12  C   UNL     1       0.102  -6.475   2.896  0.00  0.00    +0.245 C 
ATOM     13  O   UNL     1       0.103  -6.825   1.730  0.00  0.00    -0.270 OA
ATOM     14  C   UNL     1       0.028  -2.807  -2.529  0.00  0.00    +0.045 C 
ENDROOT
BRANCH  12  15
ATOM     15  C   UNL     1       0.120  -7.478   3.960  0.00  0.00    +0.068 C 
ATOM     16  C   UNL     1       0.137  -8.792   3.649  0.00  0.00    +0.013 C 
BRANCH  16  17
ATOM     17  C   UNL     1       0.155  -9.800   4.719  0.00  0.00    -0.018 A 
ATOM     18  C   UNL     1       0.149  -9.399   6.060  0.00  0.00    +0.057 A 
ATOM     19  C   UNL     1       0.165 -10.350   7.063  0.00  0.00    +0.166 A 
ATOM     20  C   UNL     1       0.188 -11.705   6.740  0.00  0.00    +0.204 A 
ATOM     21  C   UNL     1       0.194 -12.107   5.407  0.00  0.00    +0.166 A 
ATOM     22  C   UNL     1       0.172 -11.162   4.399  0.00  0.00    +0.057 A 
BRANCH  21  23
ATOM     23  O   UNL     1       0.217 -13.431   5.097  0.00  0.00    -0.491 OA
ATOM     24  C   UNL     1       0.222 -13.772   3.709  0.00  0.00    +0.277 C 
ENDBRANCH  21  23
BRANCH  20  25
ATOM     25  O   UNL     1       0.205 -12.637   7.729  0.00  0.00    -0.488 OA
ATOM     26  C   UNL     1      -1.060 -13.103   8.203  0.00  0.00    +0.277 C 
ENDBRANCH  20  25
BRANCH  19  27
ATOM     27  O   UNL     1       0.160  -9.962   8.366  0.00  0.00    -0.491 OA
ATOM     28  C   UNL     1       0.136  -8.557   8.625  0.00  0.00    +0.277 C 
ENDBRANCH  19  27
ENDBRANCH  16  17
ENDBRANCH  12  15
BRANCH  11  29
ATOM     29  C   UNL     1       0.086  -4.743   4.610  0.00  0.00    +0.117 C 
BRANCH  29  30
ATOM     30  C   UNL     1      -1.357  -4.616   5.104  0.00  0.00    +0.041 C 
BRANCH  30  31
ATOM     31  C   UNL     1      -1.357  -4.176   6.569  0.00  0.00    +0.124 C 
BRANCH  31  32
ATOM     32  N   UNL     1      -2.738  -4.055   7.043  0.00  0.00    -0.338 N 
ATOM     33  C   UNL     1      -3.521  -2.934   6.983  0.00  0.00    +0.104 A 
ATOM     34  C   UNL     1      -4.710  -3.260   7.524  0.00  0.00    +0.101 A 
ATOM     35  N   UNL     1      -4.655  -4.546   7.904  0.00  0.00    -0.352 N 
ATOM     36  C   UNL     1      -3.478  -5.029   7.614  0.00  0.00    +0.173 A 
ATOM     37  H   UNL     1      -5.377  -5.039   8.324  0.00  0.00    +0.166 HD
ENDBRANCH  31  32
ENDBRANCH  30  31
ENDBRANCH  29  30
ENDBRANCH  11  29
TORSDOF 9
