REMARK  Name = ZINC22635220
REMARK  11 active torsions:
REMARK  status: ('A' for Active; 'I' for Inactive)
REMARK    1  A    between atoms: C_1  and  C_2
REMARK    2  A    between atoms: C_2  and  C_3
REMARK    3  A    between atoms: C_2  and  N_4
REMARK    4  A    between atoms: C_12  and  O_29
REMARK    5  A    between atoms: C_14  and  C_17
REMARK    6  A    between atoms: C_19  and  O_27
REMARK    7  A    between atoms: C_20  and  O_25
REMARK    8  A    between atoms: C_21  and  O_23
REMARK    9  A    between atoms: O_23  and  C_24
REMARK   10  A    between atoms: O_25  and  C_26
REMARK   11  A    between atoms: O_27  and  C_28
REMARK                            x       y       z     vdW  Elec       q    Type
REMARK                         _______ _______ _______ _____ _____    ______ ____
ROOT
ATOM      1  N   UNL     1      -0.732   6.965  -6.847  0.00  0.00    +0.384 N 
ATOM      2  C   UNL     1       0.510   6.255  -6.510  0.00  0.00    -0.073 C 
ATOM      3  C   UNL     1       0.973   6.645  -5.104  0.00  0.00    +0.018 C 
ATOM      4  C   UNL     1      -0.199   6.455  -4.147  0.00  0.00    -0.027 A 
ATOM      5  C   UNL     1      -1.460   6.362  -4.633  0.00  0.00    -0.021 A 
ATOM      6  S   UNL     1      -2.484   6.151  -3.202  0.00  0.00    -0.080 S 
ATOM      7  C   UNL     1      -1.269   6.193  -1.997  0.00  0.00    +0.080 A 
ATOM      8  C   UNL     1      -0.071   6.359  -2.706  0.00  0.00    +0.067 A 
ATOM      9  C   UNL     1       1.182   6.433  -1.911  0.00  0.00    +0.220 C 
ATOM     10  N   UNL     1       1.118   6.131  -0.644  0.00  0.00    -0.223 NA
ATOM     11  C   UNL     1      -0.074   5.636   0.033  0.00  0.00    +0.224 C 
ATOM     12  N   UNL     1      -1.307   6.104  -0.628  0.00  0.00    -0.313 N 
ATOM     13  C   UNL     1      -1.866   6.428  -6.071  0.00  0.00    -0.035 C 
ATOM     14  H   UNL     1      -2.191   6.359  -0.026  0.00  0.00    +0.149 HD
ATOM     15  H   UNL     1      -0.601   8.024  -6.582  0.00  0.00    -0.081 HD
ENDROOT
BRANCH  11  16
ATOM     16  C   UNL     1      -0.054   4.129   0.025  0.00  0.00    +0.002 A 
ATOM     17  C   UNL     1       1.153   3.456   0.010  0.00  0.00    +0.057 A 
ATOM     18  C   UNL     1       1.177   2.070   0.002  0.00  0.00    +0.166 A 
ATOM     19  C   UNL     1      -0.016   1.357   0.009  0.00  0.00    +0.204 A 
ATOM     20  C   UNL     1      -1.228   2.037   0.019  0.00  0.00    +0.166 A 
ATOM     21  C   UNL     1      -1.243   3.424   0.032  0.00  0.00    +0.057 A 
BRANCH  20  22
ATOM     22  O   UNL     1      -2.398   1.344   0.021  0.00  0.00    -0.491 OA
ATOM     23  C   UNL     1      -3.605   2.109   0.031  0.00  0.00    +0.277 C 
ENDBRANCH  20  22
BRANCH  19  24
ATOM     24  O   UNL     1       0.002  -0.004   0.002  0.00  0.00    -0.488 OA
ATOM     25  C   UNL     1       0.023  -0.660   1.272  0.00  0.00    +0.277 C 
ENDBRANCH  19  24
BRANCH  18  26
ATOM     26  O   UNL     1       2.365   1.409  -0.013  0.00  0.00    -0.491 OA
ATOM     27  C   UNL     1       3.551   2.206  -0.021  0.00  0.00    +0.277 C 
ENDBRANCH  18  26
ENDBRANCH  11  16
BRANCH   1  29
ATOM     28  C   UNL     1      -1.205   5.437  -8.702  0.00  0.00    -0.014 C 
ATOM     29  C   UNL     1      -1.003   6.896  -8.290  0.00  0.00    -0.074 C 
ATOM     30  C   UNL     1      -2.267   7.697  -8.610  0.00  0.00    -0.014 C 
ENDBRANCH   1  29
BRANCH   9  31
ATOM     31  O   UNL     1       2.351   6.801  -2.484  0.00  0.00    -0.492 OA
ATOM     32  H   UNL     1       3.269   6.850  -1.879  0.00  0.00    +0.294 HD
ENDBRANCH   9  31
TORSDOF 6
