REMARK  Name = ZINC34924011
REMARK  12 active torsions:
REMARK  status: ('A' for Active; 'I' for Inactive)
REMARK    1  A    between atoms: C_1  and  C_2
REMARK    2  A    between atoms: C_2  and  O_3
REMARK    3  A    between atoms: O_3  and  C_4
REMARK    4  A    between atoms: C_4  and  C_6
REMARK    5  A    between atoms: C_7  and  C_36
REMARK    6  A    between atoms: C_11  and  C_13
REMARK    7  A    between atoms: C_20  and  C_23
REMARK    8  A    between atoms: C_24  and  N_26
REMARK    9  A    between atoms: N_26  and  C_27
REMARK   10  A    between atoms: C_30  and  C_33
REMARK   11  A    between atoms: C_33  and  C_34
REMARK   12  A    between atoms: C_33  and  C_35
REMARK                            x       y       z     vdW  Elec       q    Type
REMARK                         _______ _______ _______ _____ _____    ______ ____
ROOT
ATOM      1  C   UNL     1      -3.364  -2.604  -0.859  0.00  0.00    +0.083 C 
ATOM      2  C   UNL     1      -3.866  -3.714  -1.509  0.00  0.00    +0.053 C 
ATOM      3  N   UNL     1      -5.145  -3.774  -1.843  0.00  0.00    -0.230 NA
ATOM      4  C   UNL     1      -6.030  -2.829  -1.601  0.00  0.00    +0.166 C 
ATOM      5  N   UNL     1      -5.737  -1.654  -0.969  0.00  0.00    -0.267 N 
ATOM      6  C   UNL     1      -4.323  -1.478  -0.541  0.00  0.00    +0.152 C 
ATOM      7  C   UNL     1      -6.776  -0.762  -0.789  0.00  0.00    +0.048 C 
ATOM      8  C   UNL     1      -7.995  -1.119  -1.250  0.00  0.00    +0.072 C 
ATOM      9  S   UNL     1      -7.670  -2.728  -1.943  0.00  0.00    -0.060 S 
ATOM     10  C   UNL     1      -2.951  -4.864  -1.842  0.00  0.00    +0.066 C 
ENDROOT
BRANCH   6  11
ATOM     11  C   UNL     1      -3.799  -0.224  -1.192  0.00  0.00    +0.013 A 
ATOM     12  C   UNL     1      -4.245   0.141  -2.448  0.00  0.00    +0.008 A 
ATOM     13  C   UNL     1      -3.764   1.291  -3.045  0.00  0.00    +0.001 A 
ATOM     14  C   UNL     1      -2.836   2.078  -2.387  0.00  0.00    +0.003 A 
ATOM     15  C   UNL     1      -2.389   1.714  -1.131  0.00  0.00    +0.039 A 
ATOM     16  C   UNL     1      -2.874   0.565  -0.529  0.00  0.00    +0.129 A 
ATOM     17  F   UNL     1      -2.442   0.211   0.701  0.00  0.00    -0.205 F 
ENDBRANCH   6  11
BRANCH   7  18
ATOM     18  C   UNL     1      -6.564   0.529  -0.119  0.00  0.00    +0.091 C 
ATOM     19  C   UNL     1      -7.616   1.320   0.168  0.00  0.00    +0.243 C 
ATOM     20  O   UNL     1      -8.878   0.871  -0.042  0.00  0.00    -0.270 OA
BRANCH  19  21
ATOM     21  N   UNL     1      -7.408   2.591   0.678  0.00  0.00    -0.282 N 
ATOM     22  H   UNL     1      -6.506   2.938   0.761  0.00  0.00    +0.155 HD
BRANCH  21  23
ATOM     23  C   UNL     1      -8.497   3.372   1.072  0.00  0.00    +0.034 A 
ATOM     24  C   UNL     1      -9.628   2.770   1.610  0.00  0.00    +0.023 A 
ATOM     25  C   UNL     1     -10.702   3.545   1.998  0.00  0.00    +0.006 A 
ATOM     26  C   UNL     1     -10.654   4.919   1.853  0.00  0.00    -0.045 A 
ATOM     27  C   UNL     1      -9.531   5.522   1.317  0.00  0.00    +0.006 A 
ATOM     28  C   UNL     1      -8.450   4.753   0.932  0.00  0.00    +0.023 A 
BRANCH  26  29
ATOM     29  C   UNL     1     -11.829   5.762   2.278  0.00  0.00    +0.013 C 
ATOM     30  C   UNL     1     -11.385   6.746   3.362  0.00  0.00    +0.012 C 
ATOM     31  C   UNL     1     -12.363   6.538   1.073  0.00  0.00    +0.012 C 
ENDBRANCH  26  29
ENDBRANCH  21  23
ENDBRANCH  19  21
ENDBRANCH   7  18
BRANCH   1  32
ATOM     32  C   UNL     1      -2.013  -2.525  -0.499  0.00  0.00    +0.339 C 
ATOM     33  O   UNL     1      -1.679  -2.701   0.659  0.00  0.00    -0.245 OA
BRANCH  32  34
ATOM     34  O   UNL     1      -1.079  -2.255  -1.438  0.00  0.00    -0.462 OA
BRANCH  34  36
ATOM     35  C   UNL     1       1.186  -1.854  -2.181  0.00  0.00    +0.048 C 
ATOM     36  C   UNL     1       0.288  -2.300  -1.025  0.00  0.00    +0.229 C 
ENDBRANCH  34  36
ENDBRANCH  32  34
ENDBRANCH   1  32
TORSDOF 8
