REMARK  Name = ZINC16006917
REMARK  4 active torsions:
REMARK  status: ('A' for Active; 'I' for Inactive)
REMARK    1  A    between atoms: C_21  and  C_32
REMARK    2  A    between atoms: C_23  and  C_25
REMARK    3  A    between atoms: C_25  and  C_27
REMARK    4  A    between atoms: C_32  and  C_34
REMARK                            x       y       z     vdW  Elec       q    Type
REMARK                         _______ _______ _______ _____ _____    ______ ____
ROOT
ATOM      1  C   UNL     1      -1.815  -6.832  -0.494  0.00  0.00    +0.001 A 
ATOM      2  C   UNL     1      -1.001  -6.878   0.623  0.00  0.00    +0.000 A 
ATOM      3  C   UNL     1       0.293  -6.391   0.562  0.00  0.00    +0.006 A 
ATOM      4  C   UNL     1       0.784  -5.836  -0.600  0.00  0.00    -0.020 A 
ATOM      5  C   UNL     1      -0.012  -5.861  -1.753  0.00  0.00    -0.019 A 
ATOM      6  C   UNL     1      -1.325  -6.334  -1.682  0.00  0.00    +0.008 A 
ATOM      7  C   UNL     1       0.512  -5.381  -3.046  0.00  0.00    +0.022 C 
ATOM      8  C   UNL     1       1.628  -4.630  -3.070  0.00  0.00    +0.054 C 
ATOM      9  C   UNL     1       2.139  -5.199  -0.655  0.00  0.00    +0.107 C 
ATOM     10  C   UNL     1       2.489  -4.306   0.533  0.00  0.00    +0.107 C 
ATOM     11  C   UNL     1       1.595  -4.410   1.711  0.00  0.00    -0.008 A 
ATOM     12  C   UNL     1       0.241  -4.210   1.895  0.00  0.00    +0.006 A 
ATOM     13  C   UNL     1      -0.277  -4.391   3.172  0.00  0.00    +0.000 A 
ATOM     14  C   UNL     1       0.525  -4.769   4.229  0.00  0.00    +0.002 A 
ATOM     15  C   UNL     1       1.883  -4.982   4.065  0.00  0.00    +0.023 A 
ATOM     16  C   UNL     1       2.412  -4.799   2.787  0.00  0.00    +0.038 A 
ATOM     17  N   UNL     1       3.723  -4.954   2.368  0.00  0.00    -0.284 N 
ATOM     18  C   UNL     1       3.865  -4.687   1.057  0.00  0.00    +0.231 C 
ATOM     19  O   UNL     1       4.884  -4.734   0.403  0.00  0.00    -0.274 OA
ATOM     20  C   UNL     1       2.576  -2.875  -0.039  0.00  0.00    +0.108 C 
ATOM     21  C   UNL     1       3.023  -3.162  -1.503  0.00  0.00    +0.143 C 
ATOM     22  H   UNL     1       4.449  -5.224   2.954  0.00  0.00    +0.155 HD
ATOM     23  N   UNL     1       1.947  -4.180  -1.652  0.00  0.00    -0.383 NA
ATOM     24  H   UNL     1       1.088  -3.700  -1.358  0.00  0.00    +0.127 HD
ENDROOT
BRANCH  21  25
ATOM     25  C   UNL     1       2.692  -1.997  -2.396  0.00  0.00    +0.217 C 
ATOM     26  O   UNL     1       1.702  -2.034  -3.099  0.00  0.00    -0.287 OA
BRANCH  25  27
ATOM     27  C   UNL     1       3.531  -0.860  -2.414  0.00  0.00    +0.172 A 
ATOM     28  C   UNL     1       3.351   0.271  -3.185  0.00  0.00    +0.053 A 
ATOM     29  C   UNL     1       4.413   1.133  -2.881  0.00  0.00    +0.042 A 
ATOM     30  C   UNL     1       5.188   0.507  -1.965  0.00  0.00    +0.196 A 
ATOM     31  O   UNL     1       4.655  -0.689  -1.687  0.00  0.00    -0.460 OA
ENDBRANCH  25  27
ENDBRANCH  21  25
BRANCH  20  32
ATOM     32  C   UNL     1       1.259  -2.152  -0.022  0.00  0.00    +0.172 C 
ATOM     33  O   UNL     1       0.428  -2.387  -0.873  0.00  0.00    -0.292 OA
BRANCH  32  34
ATOM     34  C   UNL     1       0.979  -1.160   1.026  0.00  0.00    +0.053 A 
ATOM     35  C   UNL     1       1.935  -0.886   2.010  0.00  0.00    +0.014 A 
ATOM     36  C   UNL     1       1.665   0.045   2.989  0.00  0.00    +0.001 A 
ATOM     37  C   UNL     1       0.450   0.711   3.002  0.00  0.00    +0.003 A 
ATOM     38  C   UNL     1      -0.502   0.448   2.035  0.00  0.00    +0.039 A 
ATOM     39  C   UNL     1      -0.248  -0.484   1.045  0.00  0.00    +0.134 A 
ATOM     40  F   UNL     1      -1.179  -0.740   0.100  0.00  0.00    -0.205 F 
ENDBRANCH  32  34
ENDBRANCH  20  32
TORSDOF 4
