REMARK  Name = ZINC15773656
REMARK  18 active torsions:
REMARK  status: ('A' for Active; 'I' for Inactive)
REMARK    1  A    between atoms: C_1  and  C_2
REMARK    2  A    between atoms: C_2  and  N_3
REMARK    3  A    between atoms: N_3  and  C_4
REMARK    4  A    between atoms: N_3  and  C_6
REMARK    5  A    between atoms: C_4  and  C_5
REMARK    6  A    between atoms: C_6  and  C_7
REMARK    7  A    between atoms: C_7  and  N_8
REMARK    8  A    between atoms: C_16  and  N_17
REMARK    9  A    between atoms: C_18  and  C_19
REMARK   10  A    between atoms: C_21  and  C_30
REMARK   11  A    between atoms: C_22  and  O_29
REMARK   12  A    between atoms: C_23  and  C_25
REMARK   13  A    between atoms: C_25  and  C_26
REMARK   14  A    between atoms: C_25  and  C_27
REMARK   15  A    between atoms: C_25  and  C_28
REMARK   16  A    between atoms: C_30  and  C_31
REMARK   17  A    between atoms: C_30  and  C_32
REMARK   18  A    between atoms: C_30  and  C_33
REMARK                            x       y       z     vdW  Elec       q    Type
REMARK                         _______ _______ _______ _____ _____    ______ ____
ROOT
ATOM      1  N   UNL     1       0.434  -4.274  -1.660  0.00  0.00    -0.220 NA
ATOM      2  C   UNL     1      -0.182  -5.265  -2.250  0.00  0.00    +0.122 C 
ENDROOT
BRANCH   1  11
ATOM      3  N   UNL     1       2.336  -3.538  -0.352  0.00  0.00    -0.310 N 
ATOM      4  C   UNL     1       3.444  -4.167   0.185  0.00  0.00    +0.070 A 
ATOM      5  C   UNL     1       4.524  -3.734   0.941  0.00  0.00    +0.028 A 
ATOM      6  C   UNL     1       5.491  -4.637   1.331  0.00  0.00    +0.002 A 
ATOM      7  C   UNL     1       5.391  -5.974   0.974  0.00  0.00    +0.002 A 
ATOM      8  C   UNL     1       4.335  -6.419   0.230  0.00  0.00    +0.030 A 
ATOM      9  C   UNL     1       3.341  -5.522  -0.177  0.00  0.00    +0.091 A 
ATOM     10  N   UNL     1       2.205  -5.660  -0.902  0.00  0.00    -0.211 NA
ATOM     11  C   UNL     1       1.603  -4.496  -1.004  0.00  0.00    +0.232 A 
BRANCH   3  12
ATOM     12  C   UNL     1       2.004  -2.115  -0.240  0.00  0.00    +0.107 C 
BRANCH  12  13
ATOM     13  C   UNL     1       1.156  -1.887   1.013  0.00  0.00    -0.057 C 
BRANCH  13  14
ATOM     14  N   UNL     1       0.823  -0.461   1.126  0.00  0.00    +0.380 N 
ATOM     15  H   UNL     1       1.671   0.085   1.109  0.00  0.00    -0.082 HD
BRANCH  14  17
ATOM     16  C   UNL     1      -0.264   1.445   0.037  0.00  0.00    -0.017 C 
ATOM     17  C   UNL     1      -0.034  -0.067  -0.001  0.00  0.00    -0.082 C 
ENDBRANCH  14  17
BRANCH  14  18
ATOM     18  C   UNL     1       0.111  -0.222   2.389  0.00  0.00    -0.082 C 
ATOM     19  C   UNL     1       1.053  -0.495   3.563  0.00  0.00    -0.017 C 
ENDBRANCH  14  18
ENDBRANCH  13  14
ENDBRANCH  12  13
ENDBRANCH   3  12
ENDBRANCH   1  11
BRANCH   2  20
ATOM     20  C   UNL     1      -1.446  -5.026  -2.959  0.00  0.00    -0.006 A 
ATOM     21  C   UNL     1      -1.990  -3.737  -3.010  0.00  0.00    +0.017 A 
ATOM     22  C   UNL     1      -3.175  -3.518  -3.676  0.00  0.00    +0.000 A 
ATOM     23  C   UNL     1      -3.831  -4.575  -4.297  0.00  0.00    +0.124 A 
ATOM     24  C   UNL     1      -3.296  -5.857  -4.249  0.00  0.00    +0.000 A 
ATOM     25  C   UNL     1      -2.108  -6.085  -3.591  0.00  0.00    +0.017 A 
BRANCH  24  26
ATOM     26  C   UNL     1      -4.013  -6.997  -4.924  0.00  0.00    -0.009 C 
ATOM     27  C   UNL     1      -3.219  -8.290  -4.724  0.00  0.00    +0.015 C 
ATOM     28  C   UNL     1      -5.407  -7.155  -4.314  0.00  0.00    +0.015 C 
ATOM     29  C   UNL     1      -4.141  -6.705  -6.421  0.00  0.00    +0.015 C 
ENDBRANCH  24  26
BRANCH  22  30
ATOM     30  C   UNL     1      -3.761  -2.131  -3.732  0.00  0.00    -0.009 C 
ATOM     31  C   UNL     1      -2.850  -1.161  -2.976  0.00  0.00    +0.015 C 
ATOM     32  C   UNL     1      -3.881  -1.686  -5.191  0.00  0.00    +0.015 C 
ATOM     33  C   UNL     1      -5.148  -2.137  -3.085  0.00  0.00    +0.015 C 
ENDBRANCH  22  30
BRANCH  23  34
ATOM     34  O   UNL     1      -4.999  -4.354  -4.951  0.00  0.00    -0.506 OA
ATOM     35  H   UNL     1      -4.891  -4.130  -5.886  0.00  0.00    +0.292 HD
ENDBRANCH  23  34
ENDBRANCH   2  20
TORSDOF 10
