REMARK  Name = ZINC65446816
REMARK  7 active torsions:
REMARK  status: ('A' for Active; 'I' for Inactive)
REMARK    1  A    between atoms: C_1  and  C_2
REMARK    2  A    between atoms: C_8  and  C_24
REMARK    3  A    between atoms: C_8  and  C_25
REMARK    4  A    between atoms: C_10  and  N_12
REMARK    5  A    between atoms: N_15  and  C_16
REMARK    6  A    between atoms: C_17  and  C_23
REMARK    7  A    between atoms: C_21  and  C_22
REMARK                            x       y       z     vdW  Elec       q    Type
REMARK                         _______ _______ _______ _____ _____    ______ ____
ROOT
ATOM      1  N   UNL     1      -2.423  -2.943  -1.270  0.00  0.00    -0.292 N 
ATOM      2  C   UNL     1      -3.584  -2.378  -0.886  0.00  0.00    +0.304 C 
ATOM      3  O   UNL     1      -3.586  -1.509  -0.035  0.00  0.00    -0.252 OA
ATOM      4  N   UNL     1      -4.745  -2.776  -1.445  0.00  0.00    -0.266 N 
ATOM      5  H   UNL     1      -2.421  -3.636  -1.948  0.00  0.00    +0.151 HD
ATOM      6  H   UNL     1      -4.742  -3.456  -2.136  0.00  0.00    +0.156 HD
ENDROOT
BRANCH   1  16
ATOM      7  C   UNL     1      -0.771   1.992  -3.026  0.00  0.00    +0.086 C 
ATOM      8  C   UNL     1      -0.463   0.652  -2.411  0.00  0.00    +0.103 A 
ATOM      9  C   UNL     1      -1.354  -0.162  -1.810  0.00  0.00    +0.050 A 
ATOM     10  C   UNL     1      -0.640  -1.297  -1.385  0.00  0.00    +0.014 A 
ATOM     11  C   UNL     1       0.647  -1.116  -1.747  0.00  0.00    +0.111 A 
ATOM     12  O   UNL     1       0.746   0.062  -2.373  0.00  0.00    -0.464 OA
ATOM     13  C   UNL     1       1.747  -2.111  -1.470  0.00  0.00    +0.081 C 
ATOM     14  C   UNL     1       1.258  -3.087  -0.393  0.00  0.00    -0.026 C 
ATOM     15  C   UNL     1      -0.120  -3.631  -0.782  0.00  0.00    +0.034 C 
ATOM     16  C   UNL     1      -1.162  -2.511  -0.662  0.00  0.00    +0.109 C 
ATOM     17  C   UNL     1       2.247  -4.248  -0.270  0.00  0.00    +0.011 C 
ATOM     18  C   UNL     1       1.158  -2.358   0.949  0.00  0.00    +0.011 C 
ENDBRANCH   1  16
BRANCH   4  19
ATOM     19  C   UNL     1      -5.961  -2.204  -1.026  0.00  0.00    +0.078 A 
ATOM     20  C   UNL     1      -6.997  -1.851  -1.828  0.00  0.00    +0.054 A 
ATOM     21  N   UNL     1      -7.974  -1.339  -1.035  0.00  0.00    -0.280 N 
ATOM     22  H   UNL     1      -8.835  -1.004  -1.333  0.00  0.00    +0.189 HD
ATOM     23  N   UNL     1      -7.520  -1.381   0.289  0.00  0.00    -0.177 NA
ATOM     24  C   UNL     1      -6.319  -1.902   0.296  0.00  0.00    +0.081 A 
ATOM     25  C   UNL     1      -5.466  -2.134   1.516  0.00  0.00    +0.069 C 
ATOM     26  C   UNL     1      -7.054  -2.001  -3.327  0.00  0.00    +0.067 C 
ENDBRANCH   4  19
TORSDOF 2
