REMARK  Name = ZINC09693138
REMARK  6 active torsions:
REMARK  status: ('A' for Active; 'I' for Inactive)
REMARK    1  A    between atoms: C_1  and  C_2
REMARK    2  A    between atoms: C_2  and  O_3
REMARK    3  A    between atoms: O_3  and  C_4
REMARK    4  A    between atoms: C_7  and  C_10
REMARK    5  A    between atoms: N_17  and  C_24
REMARK    6  A    between atoms: C_21  and  C_22
REMARK                            x       y       z     vdW  Elec       q    Type
REMARK                         _______ _______ _______ _____ _____    ______ ____
ROOT
ATOM      1  C   UNL     1      -2.503   1.311   0.059  0.00  0.00    +0.070 C 
ATOM      2  C   UNL     1      -2.317   0.053   0.914  0.00  0.00    +0.110 C 
ATOM      3  C   UNL     1      -1.086  -0.678   0.455  0.00  0.00    +0.222 C 
ATOM      4  O   UNL     1      -1.064  -1.890   0.491  0.00  0.00    -0.275 OA
ATOM      5  N   UNL     1       0.002  -0.004   0.002  0.00  0.00    -0.248 N 
ATOM      6  C   UNL     1       1.126  -0.798  -0.465  0.00  0.00    +0.222 C 
ATOM      7  N   UNL     1       2.429  -0.174  -0.388  0.00  0.00    -0.304 N 
ATOM      8  C   UNL     1       2.486   1.151  -1.019  0.00  0.00    +0.182 C 
ATOM      9  S   UNL     1       1.498   2.283   0.000  0.00  0.00    -0.090 S 
ATOM     10  C   UNL     1      -0.017   1.375   0.010  0.00  0.00    +0.087 C 
ATOM     11  C   UNL     1      -1.195   2.060   0.019  0.00  0.00    +0.065 C 
ENDROOT
BRANCH   7  12
ATOM     12  C   UNL     1       3.418  -1.016  -0.902  0.00  0.00    +0.033 A 
ATOM     13  C   UNL     1       4.744  -0.601  -0.921  0.00  0.00    +0.023 A 
ATOM     14  C   UNL     1       5.720  -1.435  -1.429  0.00  0.00    +0.003 A 
ATOM     15  C   UNL     1       5.380  -2.683  -1.920  0.00  0.00    +0.020 A 
ATOM     16  C   UNL     1       4.060  -3.099  -1.903  0.00  0.00    +0.043 A 
ATOM     17  C   UNL     1       3.079  -2.271  -1.391  0.00  0.00    +0.043 A 
ATOM     18 CL   UNL     1       3.637  -4.665  -2.520  0.00  0.00    -0.083 Cl
ENDBRANCH   7  12
BRANCH   1  22
ATOM     19  C   UNL     1      -3.636   0.198  -3.908  0.00  0.00    +0.121 A 
ATOM     20  C   UNL     1      -4.475   0.997  -3.144  0.00  0.00    +0.046 A 
ATOM     21  C   UNL     1      -4.106   1.355  -1.862  0.00  0.00    +0.008 A 
ATOM     22  C   UNL     1      -2.903   0.918  -1.340  0.00  0.00    -0.039 A 
ATOM     23  C   UNL     1      -2.063   0.127  -2.101  0.00  0.00    +0.008 A 
ATOM     24  C   UNL     1      -2.429  -0.238  -3.382  0.00  0.00    +0.046 A 
BRANCH  19  25
ATOM     25  O   UNL     1      -3.997  -0.156  -5.170  0.00  0.00    -0.492 OA
BRANCH  25  27
ATOM     26  C   UNL     1      -3.657  -1.271  -7.287  0.00  0.00    +0.048 C 
ATOM     27  C   UNL     1      -3.084  -0.980  -5.898  0.00  0.00    +0.225 C 
ENDBRANCH  25  27
ENDBRANCH  19  25
ENDBRANCH   1  22
BRANCH  11  28
ATOM     28  C   UNL     1      -1.191   3.491  -0.001  0.00  0.00    +0.098 C 
ATOM     29  N   UNL     1      -1.187   4.627  -0.017  0.00  0.00    -0.191 NA
ENDBRANCH  11  28
TORSDOF 5
