REMARK  Name = ZINC61888023
REMARK  5 active torsions:
REMARK  status: ('A' for Active; 'I' for Inactive)
REMARK    1  A    between atoms: C_4  and  S_7
REMARK    2  A    between atoms: S_7  and  N_10
REMARK    3  A    between atoms: N_10  and  C_11
REMARK    4  A    between atoms: C_16  and  C_18
REMARK    5  A    between atoms: N_19  and  O_20
REMARK                            x       y       z     vdW  Elec       q    Type
REMARK                         _______ _______ _______ _____ _____    ______ ____
ROOT
ATOM      1  C   UNL     1       3.928  -2.035   0.629  0.00  0.00    +0.087 C 
ATOM      2  C   UNL     1       4.719  -0.739   0.354  0.00  0.00    +0.021 C 
ATOM      3  C   UNL     1       5.907  -0.800   1.346  0.00  0.00    +0.002 C 
ATOM      4  C   UNL     1       6.279  -2.304   1.340  0.00  0.00    +0.013 C 
ATOM      5  C   UNL     1       4.920  -3.030   1.257  0.00  0.00    +0.074 C 
ENDROOT
BRANCH   5   6
ATOM      6  C   UNL     1       5.041  -4.255   0.388  0.00  0.00    +0.136 C 
ATOM      7  N   UNL     1       4.338  -5.307   0.651  0.00  0.00    -0.076 NA
ATOM      8  N   UNL     1       5.901  -4.254  -0.688  0.00  0.00    -0.344 N 
ATOM      9  H   UNL     1       6.429  -3.465  -0.886  0.00  0.00    +0.144 HD
ATOM     10  H   UNL     1       5.979  -5.043  -1.247  0.00  0.00    +0.144 HD
BRANCH   7  11
ATOM     11  O   UNL     1       3.545  -5.353   1.824  0.00  0.00    -0.408 OA
ATOM     12  H   UNL     1       2.999  -6.147   1.898  0.00  0.00    +0.328 HD
ENDBRANCH   7  11
ENDBRANCH   5   6
BRANCH   1  13
ATOM     13  N   UNL     1       3.400  -2.576  -0.625  0.00  0.00    -0.186 NA
ATOM     14  H   UNL     1       3.990  -2.708  -1.384  0.00  0.00    +0.148 HD
BRANCH  13  15
ATOM     15  S   UNL     1       1.794  -2.964  -0.748  0.00  0.00    +0.066 S 
ATOM     16  O   UNL     1       1.478  -3.749   0.393  0.00  0.00    -0.153 OA
ATOM     17  O   UNL     1       1.590  -3.431  -2.075  0.00  0.00    -0.153 OA
BRANCH  15  21
ATOM     18  C   UNL     1      -0.958   0.009  -0.492  0.00  0.00    +0.025 A 
ATOM     19  C   UNL     1      -0.090   1.036  -0.320  0.00  0.00    +0.048 A 
ATOM     20  S   UNL     1       1.486   0.199  -0.355  0.00  0.00    -0.076 S 
ATOM     21  C   UNL     1       0.883  -1.464  -0.596  0.00  0.00    +0.156 A 
ATOM     22  C   UNL     1      -0.459  -1.273  -0.633  0.00  0.00    +0.051 A 
ATOM     23 BR   UNL     1      -1.631  -2.738  -0.875  0.00  0.00    -0.048 Br
ENDBRANCH  15  21
ENDBRANCH  13  15
ENDBRANCH   1  13
TORSDOF 5
