REMARK  Name = ZINC35532658
REMARK  9 active torsions:
REMARK  status: ('A' for Active; 'I' for Inactive)
REMARK    1  A    between atoms: C_1  and  C_2
REMARK    2  A    between atoms: C_7  and  N_8
REMARK    3  A    between atoms: C_9  and  C_11
REMARK    4  A    between atoms: C_14  and  C_35
REMARK    5  A    between atoms: C_15  and  C_16
REMARK    6  A    between atoms: C_15  and  C_17
REMARK    7  A    between atoms: N_19  and  O_20
REMARK    8  A    between atoms: O_20  and  C_21
REMARK    9  A    between atoms: C_21  and  C_23
REMARK                            x       y       z     vdW  Elec       q    Type
REMARK                         _______ _______ _______ _____ _____    ______ ____
ROOT
ATOM      1  C   UNL     1      -0.169   0.054   4.882  0.00  0.00    +0.058 C 
ATOM      2  C   UNL     1      -1.433   0.951   5.052  0.00  0.00    +0.018 C 
ATOM      3  C   UNL     1      -1.544   1.177   6.577  0.00  0.00    +0.014 C 
ATOM      4  C   UNL     1      -0.342   0.388   7.180  0.00  0.00    +0.015 C 
ATOM      5  C   UNL     1      -0.259  -0.821   6.183  0.00  0.00    -0.010 C 
ATOM      6  C   UNL     1      -1.534  -1.665   6.222  0.00  0.00    +0.013 C 
ATOM      7  C   UNL     1       0.994  -1.674   6.390  0.00  0.00    +0.013 C 
ATOM      8  C   UNL     1       0.896   1.193   6.762  0.00  0.00    +0.066 C 
ATOM      9  N   UNL     1       1.661   1.888   7.517  0.00  0.00    -0.083 NA
ATOM     10  C   UNL     1       1.035   0.975   5.251  0.00  0.00    +0.071 C 
ATOM     11  C   UNL     1      -0.455   0.032   8.664  0.00  0.00    +0.018 C 
ENDROOT
BRANCH   1  13
ATOM     12  N   UNL     1       0.025  -0.014   2.417  0.00  0.00    -0.285 N 
ATOM     13  C   UNL     1      -0.057  -0.693   3.578  0.00  0.00    +0.224 C 
ATOM     14  O   UNL     1      -0.040  -1.906   3.574  0.00  0.00    -0.275 OA
ATOM     15  H   UNL     1       0.077   0.955   2.425  0.00  0.00    +0.155 HD
BRANCH  12  22
ATOM     16  C   UNL     1      -1.265   1.183   0.181  0.00  0.00    +0.046 C 
ATOM     17  C   UNL     1      -0.584  -0.158   0.084  0.00  0.00    -0.028 A 
ATOM     18  C   UNL     1      -0.569  -0.841  -1.116  0.00  0.00    +0.025 A 
ATOM     19  C   UNL     1       0.056  -2.072  -1.206  0.00  0.00    +0.041 A 
ATOM     20  C   UNL     1       0.668  -2.623  -0.093  0.00  0.00    +0.022 A 
ATOM     21  C   UNL     1       0.656  -1.944   1.109  0.00  0.00    +0.025 A 
ATOM     22  C   UNL     1       0.034  -0.706   1.201  0.00  0.00    +0.036 A 
ATOM     23 CL   UNL     1       0.072  -2.928  -2.716  0.00  0.00    -0.084 Cl
ENDBRANCH  12  22
ENDBRANCH   1  13
BRANCH   9  24
ATOM     24  O   UNL     1       1.399   1.971   8.906  0.00  0.00    -0.312 OA
BRANCH  24  25
ATOM     25  C   UNL     1       2.279   2.734   9.585  0.00  0.00    +0.373 C 
ATOM     26  O   UNL     1       3.195   3.275   8.997  0.00  0.00    -0.242 OA
BRANCH  25  27
ATOM     27  C   UNL     1       2.131   2.911  11.038  0.00  0.00    +0.146 A 
ATOM     28  C   UNL     1       3.018   3.695  11.764  0.00  0.00    +0.033 A 
ATOM     29  C   UNL     1       2.829   3.793  13.166  0.00  0.00    +0.018 A 
ATOM     30  C   UNL     1       3.562   4.721  13.921  0.00  0.00    +0.011 A 
ATOM     31  C   UNL     1       3.338   4.832  15.263  0.00  0.00    +0.001 A 
ATOM     32  C   UNL     1       2.396   4.029  15.890  0.00  0.00    +0.004 A 
ATOM     33  C   UNL     1       1.677   3.096  15.172  0.00  0.00    +0.047 A 
ATOM     34  C   UNL     1       1.892   2.960  13.807  0.00  0.00    +0.139 A 
ATOM     35  O   UNL     1       1.224   2.019  13.098  0.00  0.00    -0.422 OA
ATOM     36  C   UNL     1       1.030   2.268  11.780  0.00  0.00    +0.352 A 
ATOM     37  O   UNL     1      -0.011   1.970  11.227  0.00  0.00    -0.244 OA
ENDBRANCH  25  27
ENDBRANCH  24  25
ENDBRANCH   9  24
TORSDOF 5
