REMARK  Name = ZINC00067717
REMARK  4 active torsions:
REMARK  status: ('A' for Active; 'I' for Inactive)
REMARK    1  A    between atoms: C_3  and  C_6
REMARK    2  A    between atoms: C_11  and  O_20
REMARK    3  A    between atoms: C_15  and  N_19
REMARK    4  A    between atoms: C_16  and  C_17
REMARK                            x       y       z     vdW  Elec       q    Type
REMARK                         _______ _______ _______ _____ _____    ______ ____
ROOT
ATOM      1  C   UNL     1       3.761   1.845  -0.024  0.00  0.00    +0.105 C 
ATOM      2  C   UNL     1       4.480   1.346   1.200  0.00  0.00    +0.008 A 
ATOM      3  C   UNL     1       4.234   1.941   2.425  0.00  0.00    +0.012 A 
ATOM      4  C   UNL     1       4.885   1.496   3.558  0.00  0.00    +0.046 A 
ATOM      5  C   UNL     1       5.790   0.448   3.472  0.00  0.00    +0.120 A 
ATOM      6  C   UNL     1       6.038  -0.151   2.248  0.00  0.00    +0.092 A 
ATOM      7  C   UNL     1       5.383   0.298   1.109  0.00  0.00    +0.138 A 
ATOM      8  O   UNL     1       5.637  -0.299  -0.082  0.00  0.00    -0.441 OA
ATOM      9  C   UNL     1       5.336   0.336  -1.227  0.00  0.00    +0.199 C 
ATOM     10  C   UNL     1       4.455   1.359  -1.265  0.00  0.00    +0.098 C 
ENDROOT
BRANCH   1  13
ATOM     11  C   UNL     1      -0.016   1.351   0.009  0.00  0.00    +0.008 A 
ATOM     12  C   UNL     1       1.183   2.038   0.002  0.00  0.00    +0.012 A 
ATOM     13  C   UNL     1       2.343   1.336  -0.013  0.00  0.00    +0.002 A 
ATOM     14  S   UNL     1       1.754  -0.349  -0.017  0.00  0.00    -0.101 S 
ATOM     15  C   UNL     1       0.002  -0.004   0.002  0.00  0.00    +0.045 A 
ENDBRANCH   1  13
BRANCH   9  16
ATOM     16  N   UNL     1       5.942  -0.068  -2.391  0.00  0.00    -0.328 N 
ATOM     17  H   UNL     1       6.577  -0.801  -2.379  0.00  0.00    +0.145 HD
ATOM     18  H   UNL     1       5.735   0.381  -3.226  0.00  0.00    +0.145 HD
ENDBRANCH   9  16
BRANCH  10  19
ATOM     19  C   UNL     1       4.176   1.993  -2.519  0.00  0.00    +0.101 C 
ATOM     20  N   UNL     1       3.955   2.495  -3.514  0.00  0.00    -0.191 NA
ENDBRANCH  10  19
BRANCH   5  21
ATOM     21  O   UNL     1       6.432   0.009   4.587  0.00  0.00    -0.507 OA
ATOM     22  H   UNL     1       5.965  -0.693   5.059  0.00  0.00    +0.292 HD
ENDBRANCH   5  21
TORSDOF 4
