REMARK  Name = ZINC44323097
REMARK  9 active torsions:
REMARK  status: ('A' for Active; 'I' for Inactive)
REMARK    1  A    between atoms: C_1  and  C_2
REMARK    2  A    between atoms: C_7  and  C_8
REMARK    3  A    between atoms: C_11  and  C_13
REMARK    4  A    between atoms: C_13  and  CA_14
REMARK    5  A    between atoms: CA_14  and  C_16
REMARK    6  A    between atoms: CA_14  and  N_19
REMARK    7  A    between atoms: C_20  and  O_22
REMARK    8  A    between atoms: O_22  and  C_23
REMARK    9  A    between atoms: C_23  and  C_24
REMARK                            x       y       z     vdW  Elec       q    Type
REMARK                         _______ _______ _______ _____ _____    ______ ____
ROOT
ATOM      1  N   UNL     1       1.304   0.830   7.335  0.00  0.00    -0.267 N 
ATOM      2  C   UNL     1       2.121  -0.150   7.769  0.00  0.00    +0.401 C 
ATOM      3  O   UNL     1       3.316  -0.082   7.559  0.00  0.00    -0.226 OA
ATOM      4  H   UNL     1       0.350   0.776   7.502  0.00  0.00    +0.153 HD
ENDROOT
BRANCH   1   5
ATOM      5  CA  UNL     1       1.857   1.977   6.609  0.00  0.00    +0.194 C 
BRANCH   5   6
ATOM      6  C   UNL     1       2.336   3.011   7.595  0.00  0.00    +0.376 C 
ATOM      7  O   UNL     1       1.790   3.119   8.680  0.00  0.00    -0.244 OA
ATOM      8  OXT UNL     1       3.270   3.740   7.308  0.00  0.00    -0.244 OA
ENDBRANCH   5   6
BRANCH   5   9
ATOM      9  C   UNL     1       0.773   2.586   5.717  0.00  0.00    +0.076 C 
BRANCH   9  13
ATOM     10  C   UNL     1       0.025   0.018   2.493  0.00  0.00    +0.020 A 
ATOM     11  C   UNL     1      -0.773  -0.168   3.590  0.00  0.00    +0.016 A 
ATOM     12  C   UNL     1      -0.585   0.640   4.690  0.00  0.00    +0.012 A 
ATOM     13  C   UNL     1       0.382   1.592   4.654  0.00  0.00    -0.007 A 
ATOM     14  S   UNL     1       1.074   1.361   3.024  0.00  0.00    -0.093 S 
BRANCH  10  21
ATOM     15  C   UNL     1      -0.018   1.503   0.010  0.00  0.00    +0.044 C 
ATOM     16  C   UNL     1       0.002  -0.004   0.002  0.00  0.00    -0.042 A 
ATOM     17  C   UNL     1       0.006  -0.689  -1.196  0.00  0.00    +0.004 A 
ATOM     18  C   UNL     1       0.025  -2.072  -1.205  0.00  0.00    +0.000 A 
ATOM     19  C   UNL     1       0.040  -2.778  -0.015  0.00  0.00    +0.001 A 
ATOM     20  C   UNL     1       0.037  -2.106   1.189  0.00  0.00    +0.009 A 
ATOM     21  C   UNL     1       0.023  -0.710   1.206  0.00  0.00    -0.008 A 
ENDBRANCH  10  21
ENDBRANCH   9  13
ENDBRANCH   5   9
ENDBRANCH   1   5
BRANCH   2  22
ATOM     22  O   UNL     1       1.614  -1.204   8.436  0.00  0.00    -0.449 OA
BRANCH  22  23
ATOM     23  C   UNL     1       2.538  -2.205   8.867  0.00  0.00    +0.246 C 
BRANCH  23  24
ATOM     24  C   UNL     1       1.782  -3.315   9.600  0.00  0.00    +0.088 C 
ATOM     25  C   UNL     1       1.240  -2.796  10.910  0.00  0.00    -0.029 A 
ATOM     26  C   UNL     1       0.349  -1.787  11.208  0.00  0.00    +0.005 A 
ATOM     27  C   UNL     1       0.022  -1.518  12.526  0.00  0.00    +0.000 A 
ATOM     28  C   UNL     1       0.588  -2.262  13.546  0.00  0.00    +0.001 A 
ATOM     29  C   UNL     1       1.480  -3.273  13.256  0.00  0.00    +0.009 A 
ATOM     30  C   UNL     1       1.815  -3.549  11.930  0.00  0.00    -0.014 A 
ATOM     31  C   UNL     1       2.728  -4.560  11.342  0.00  0.00    -0.014 A 
ATOM     32  C   UNL     1       2.724  -4.439   9.955  0.00  0.00    -0.029 A 
ATOM     33  C   UNL     1       3.501  -5.274   9.181  0.00  0.00    +0.005 A 
ATOM     34  C   UNL     1       4.289  -6.240   9.781  0.00  0.00    +0.000 A 
ATOM     35  C   UNL     1       4.300  -6.369  11.159  0.00  0.00    +0.001 A 
ATOM     36  C   UNL     1       3.526  -5.537  11.941  0.00  0.00    +0.009 A 
ENDBRANCH  23  24
ENDBRANCH  22  23
ENDBRANCH   2  22
TORSDOF 8
