REMARK  Name = ZINC33603418
REMARK  12 active torsions:
REMARK  status: ('A' for Active; 'I' for Inactive)
REMARK    1  A    between atoms: C_1  and  C_2
REMARK    2  A    between atoms: C_2  and  C_3
REMARK    3  A    between atoms: C_7  and  C_41
REMARK    4  A    between atoms: C_8  and  N_9
REMARK    5  A    between atoms: C_14  and  C_32
REMARK    6  A    between atoms: C_17  and  C_22
REMARK    7  A    between atoms: C_17  and  C_29
REMARK    8  A    between atoms: C_22  and  C_23
REMARK    9  A    between atoms: C_36  and  O_39
REMARK   10  A    between atoms: C_37  and  O_38
REMARK   11  A    between atoms: O_39  and  C_40
REMARK   12  A    between atoms: C_41  and  C_42
REMARK                            x       y       z     vdW  Elec       q    Type
REMARK                         _______ _______ _______ _____ _____    ______ ____
ROOT
ATOM      1  N   UNL     1       0.929  -0.072  -3.415  0.00  0.00    -0.209 N 
ATOM      2  C   UNL     1      -0.179  -0.876  -3.325  0.00  0.00    +0.229 C 
ATOM      3  O   UNL     1      -0.653  -1.571  -4.199  0.00  0.00    -0.275 OA
ATOM      4  C   UNL     1      -0.655  -0.719  -1.974  0.00  0.00    +0.077 C 
ATOM      5  C   UNL     1      -1.497  -1.405  -0.979  0.00  0.00    -0.023 C 
ATOM      6  N   UNL     1      -1.192  -0.643   0.281  0.00  0.00    +0.396 N 
ATOM      7  C   UNL     1       0.142   0.007   0.109  0.00  0.00    +0.048 C 
ATOM      8  C   UNL     1       0.704  -0.547  -1.189  0.00  0.00    +0.086 C 
ATOM      9  C   UNL     1       1.378   0.338  -2.191  0.00  0.00    +0.229 C 
ATOM     10  O   UNL     1       2.160   1.236  -1.962  0.00  0.00    -0.275 OA
ATOM     11  H   UNL     1      -1.969   0.117   0.448  0.00  0.00    -0.083 HD
ATOM     12  H   UNL     1      -1.170  -1.338   1.134  0.00  0.00    -0.083 HD
ENDROOT
BRANCH   1  18
ATOM     13  C   UNL     1       1.145   1.427  -5.299  0.00  0.00    -0.026 A 
ATOM     14  C   UNL     1       1.756   1.775  -6.488  0.00  0.00    +0.005 A 
ATOM     15  C   UNL     1       2.755   0.977  -7.013  0.00  0.00    +0.001 A 
ATOM     16  C   UNL     1       3.150  -0.169  -6.347  0.00  0.00    +0.005 A 
ATOM     17  C   UNL     1       2.547  -0.519  -5.155  0.00  0.00    -0.026 A 
ATOM     18  C   UNL     1       1.543   0.280  -4.625  0.00  0.00    +0.050 A 
BRANCH  13  20
ATOM     19  C   UNL     1       0.650   3.274  -3.720  0.00  0.00    +0.009 C 
ATOM     20  C   UNL     1       0.051   2.294  -4.731  0.00  0.00    +0.033 C 
ENDBRANCH  13  20
BRANCH  17  21
ATOM     21  C   UNL     1       2.978  -1.768  -4.430  0.00  0.00    +0.033 C 
ATOM     22  C   UNL     1       2.055  -2.926  -4.815  0.00  0.00    +0.009 C 
ENDBRANCH  17  21
ENDBRANCH   1  18
BRANCH   5  23
ATOM     23  C   UNL     1      -2.957  -1.288  -1.335  0.00  0.00    -0.015 A 
ATOM     24  C   UNL     1      -3.698  -0.217  -0.871  0.00  0.00    +0.006 A 
ATOM     25  C   UNL     1      -5.037  -0.107  -1.196  0.00  0.00    +0.004 A 
ATOM     26  C   UNL     1      -5.642  -1.069  -1.985  0.00  0.00    +0.049 A 
ATOM     27  C   UNL     1      -4.905  -2.144  -2.452  0.00  0.00    +0.161 A 
ATOM     28  C   UNL     1      -3.555  -2.252  -2.130  0.00  0.00    +0.160 A 
BRANCH  28  29
ATOM     29  O   UNL     1      -2.826  -3.303  -2.591  0.00  0.00    -0.503 OA
ATOM     30  H   UNL     1      -3.302  -4.067  -3.223  0.00  0.00    +0.292 HD
ENDBRANCH  28  29
BRANCH  27  31
ATOM     31  O   UNL     1      -5.498  -3.091  -3.228  0.00  0.00    -0.491 OA
ATOM     32  C   UNL     1      -6.885  -2.913  -3.522  0.00  0.00    +0.277 C 
ENDBRANCH  27  31
ENDBRANCH   5  23
BRANCH   7  33
ATOM     33  C   UNL     1       1.047  -0.346   1.261  0.00  0.00    +0.346 C 
ATOM     34  O   UNL     1       2.223  -0.542   1.067  0.00  0.00    -0.248 OA
ATOM     35  O   UNL     1       0.546  -0.443   2.503  0.00  0.00    -0.248 OA
ENDBRANCH   7  33
BRANCH   7  36
ATOM     36  C   UNL     1      -0.019   1.526   0.010  0.00  0.00    +0.003 C 
BRANCH  36  37
ATOM     37  C   UNL     1      -0.502   2.076   1.354  0.00  0.00    -0.012 C 
ATOM     38  C   UNL     1      -1.921   1.576   1.629  0.00  0.00    +0.003 C 
ATOM     39  C   UNL     1      -2.404   2.126   2.973  0.00  0.00    +0.000 C 
ATOM     40  C   UNL     1      -2.402   3.655   2.928  0.00  0.00    +0.000 C 
ATOM     41  C   UNL     1      -0.982   4.155   2.653  0.00  0.00    +0.000 C 
ATOM     42  C   UNL     1      -0.499   3.605   1.309  0.00  0.00    +0.003 C 
ENDBRANCH  36  37
ENDBRANCH   7  36
TORSDOF 9
