REMARK  Name = ZINC59474841
REMARK  9 active torsions:
REMARK  status: ('A' for Active; 'I' for Inactive)
REMARK    1  A    between atoms: C_3  and  O_33
REMARK    2  A    between atoms: C_4  and  N_30
REMARK    3  A    between atoms: C_6  and  C_7
REMARK    4  A    between atoms: N_8  and  C_9
REMARK    5  A    between atoms: C_16  and  S_18
REMARK    6  A    between atoms: S_18  and  C_19
REMARK    7  A    between atoms: C_19  and  C_20
REMARK    8  A    between atoms: N_22  and  C_23
REMARK    9  A    between atoms: C_23  and  C_24
REMARK                            x       y       z     vdW  Elec       q    Type
REMARK                         _______ _______ _______ _____ _____    ______ ____
ROOT
ATOM      1  C   UNL     1      -3.573  -0.827   0.033  0.00  0.00    +0.065 A 
ATOM      2  C   UNL     1      -3.751  -1.924  -0.821  0.00  0.00    +0.030 A 
ATOM      3  C   UNL     1      -4.908  -2.634  -0.829  0.00  0.00    +0.031 A 
ATOM      4  C   UNL     1      -5.981  -2.292   0.029  0.00  0.00    +0.080 A 
ATOM      5  C   UNL     1      -5.777  -1.182   0.881  0.00  0.00    +0.042 A 
ATOM      6  C   UNL     1      -4.611  -0.465   0.897  0.00  0.00    +0.045 A 
ATOM      7  S   UNL     1      -7.317  -1.093   1.764  0.00  0.00    -0.061 S 
ATOM      8  C   UNL     1      -8.109  -2.487   0.974  0.00  0.00    +0.136 A 
ATOM      9  N   UNL     1      -7.184  -2.897   0.135  0.00  0.00    -0.233 NA
ENDROOT
BRANCH   1  11
ATOM     10  C   UNL     1      -1.260  -0.759   0.011  0.00  0.00    +0.119 C 
ATOM     11  N   UNL     1      -2.399  -0.125   0.025  0.00  0.00    -0.255 NA
BRANCH  10  17
ATOM     12  C   UNL     1      -0.017   1.395   0.010  0.00  0.00    +0.013 A 
ATOM     13  C   UNL     1       1.168   2.097   0.002  0.00  0.00    +0.048 A 
ATOM     14  C   UNL     1       2.380   1.419  -0.013  0.00  0.00    +0.147 A 
ATOM     15  C   UNL     1       2.405   0.029  -0.021  0.00  0.00    +0.168 A 
ATOM     16  C   UNL     1       1.226  -0.682  -0.014  0.00  0.00    +0.046 A 
ATOM     17  C   UNL     1       0.002  -0.004   0.002  0.00  0.00    -0.005 A 
BRANCH  15  18
ATOM     18  N   UNL     1       3.700  -0.687  -0.038  0.00  0.00    +0.060 N 
ATOM     19  O   UNL     1       3.722  -1.896  -0.045  0.00  0.00    -0.126 OA
ATOM     20  O   UNL     1       4.736  -0.064  -0.044  0.00  0.00    -0.126 OA
ENDBRANCH  15  18
BRANCH  14  21
ATOM     21  O   UNL     1       3.546   2.116  -0.020  0.00  0.00    -0.504 OA
ATOM     22  H   UNL     1       3.892   2.313   0.861  0.00  0.00    +0.292 HD
ENDBRANCH  14  21
ENDBRANCH  10  17
ENDBRANCH   1  11
BRANCH   8  23
ATOM     23  S   UNL     1      -9.720  -3.145   1.251  0.00  0.00    -0.089 S 
BRANCH  23  24
ATOM     24  C   UNL     1      -9.827  -4.542   0.099  0.00  0.00    +0.172 C 
BRANCH  24  25
ATOM     25  C   UNL     1     -11.175  -5.202   0.234  0.00  0.00    +0.223 C 
ATOM     26  O   UNL     1     -11.984  -4.773   1.030  0.00  0.00    -0.275 OA
ATOM     27  N   UNL     1     -11.482  -6.271  -0.528  0.00  0.00    -0.312 N 
ATOM     28  H   UNL     1     -10.835  -6.614  -1.165  0.00  0.00    +0.149 HD
BRANCH  27  29
ATOM     29  C   UNL     1     -12.792  -6.913  -0.397  0.00  0.00    +0.135 C 
BRANCH  29  30
ATOM     30  C   UNL     1     -12.882  -8.091  -1.368  0.00  0.00    +0.135 C 
ATOM     31  C   UNL     1     -14.300  -8.699  -1.324  0.00  0.00    +0.035 C 
ATOM     32  C   UNL     1     -14.010 -10.222  -1.424  0.00  0.00    +0.031 C 
ATOM     33  C   UNL     1     -12.673 -10.318  -0.647  0.00  0.00    +0.160 C 
ATOM     34  O   UNL     1     -11.958  -9.114  -0.979  0.00  0.00    -0.375 OA
ENDBRANCH  29  30
ENDBRANCH  27  29
ENDBRANCH  24  25
ENDBRANCH  23  24
ENDBRANCH   8  23
TORSDOF 9
