REMARK  Name = ZINC43740545
REMARK  8 active torsions:
REMARK  status: ('A' for Active; 'I' for Inactive)
REMARK    1  A    between atoms: C_1  and  C_2
REMARK    2  A    between atoms: C_6  and  C_34
REMARK    3  A    between atoms: C_6  and  O_35
REMARK    4  A    between atoms: C_7  and  O_33
REMARK    5  A    between atoms: C_17  and  C_19
REMARK    6  A    between atoms: C_19  and  N_20
REMARK    7  A    between atoms: N_23  and  C_26
REMARK    8  A    between atoms: O_35  and  C_36
REMARK                            x       y       z     vdW  Elec       q    Type
REMARK                         _______ _______ _______ _____ _____    ______ ____
ROOT
ATOM      1  C   UNL     1      -0.817   1.599  -0.164  0.00  0.00    +0.014 C 
ATOM      2  C   UNL     1      -0.592   0.086  -0.111  0.00  0.00    +0.003 C 
ATOM      3  C   UNL     1       0.159  -0.363  -1.365  0.00  0.00    +0.010 C 
ATOM      4  C   UNL     1       1.501   0.370  -1.441  0.00  0.00    +0.003 C 
ATOM      5  C   UNL     1       2.332   0.048  -0.197  0.00  0.00    +0.037 C 
ATOM      6  C   UNL     1       1.573   0.486   1.057  0.00  0.00    +0.095 C 
ATOM      7  C   UNL     1       0.240  -0.266   1.128  0.00  0.00    +0.100 C 
ATOM      8  C   UNL     1       0.506  -1.771   1.118  0.00  0.00    +0.046 C 
ATOM      9  C   UNL     1      -0.802  -2.559   1.201  0.00  0.00    +0.044 C 
ATOM     10  C   UNL     1      -1.782  -2.108   0.099  0.00  0.00    +0.181 C 
ATOM     11  C   UNL     1      -1.938  -0.627  -0.014  0.00  0.00    +0.054 C 
ATOM     12  O   UNL     1      -1.243  -2.689  -1.094  0.00  0.00    -0.461 OA
ATOM     13  C   UNL     1      -0.837  -3.942  -0.786  0.00  0.00    +0.309 C 
ATOM     14  O   UNL     1      -0.767  -4.867  -1.560  0.00  0.00    -0.251 OA
ATOM     15  C   UNL     1      -0.478  -4.003   0.711  0.00  0.00    +0.088 C 
ATOM     16  C   UNL     1       2.408   0.166   2.298  0.00  0.00    +0.044 C 
ENDROOT
BRANCH   7  17
ATOM     17  O   UNL     1      -0.465   0.110   2.313  0.00  0.00    -0.385 OA
ATOM     18  H   UNL     1       0.010  -0.087   3.132  0.00  0.00    +0.210 HD
ENDBRANCH   7  17
BRANCH   6  19
ATOM     19  O   UNL     1       1.324   1.892   0.998  0.00  0.00    -0.374 OA
ATOM     20  C   UNL     1       2.508   2.689   0.922  0.00  0.00    +0.194 C 
ENDBRANCH   6  19
BRANCH  15  21
ATOM     21  C   UNL     1      -1.350  -5.027   1.440  0.00  0.00    -0.064 C 
BRANCH  21  22
ATOM     22  N   UNL     1      -1.004  -5.037   2.868  0.00  0.00    +0.382 N 
ATOM     23  C   UNL     1       0.377  -5.509   3.031  0.00  0.00    -0.060 C 
ATOM     24  C   UNL     1       0.778  -5.412   4.506  0.00  0.00    +0.086 C 
ATOM     25  N   UNL     1      -0.213  -6.145   5.309  0.00  0.00    -0.331 N 
ATOM     26  C   UNL     1      -1.638  -5.849   5.090  0.00  0.00    +0.086 C 
ATOM     27  C   UNL     1      -1.925  -5.926   3.587  0.00  0.00    -0.060 C 
ATOM     28  H   UNL     1      -1.082  -4.101   3.238  0.00  0.00    -0.082 HD
BRANCH  25  29
ATOM     29  C   UNL     1       0.186  -7.097   6.252  0.00  0.00    +0.065 A 
ATOM     30  C   UNL     1       0.429  -6.716   7.565  0.00  0.00    +0.026 A 
ATOM     31  C   UNL     1       0.823  -7.659   8.495  0.00  0.00    +0.002 A 
ATOM     32  C   UNL     1       0.978  -8.980   8.120  0.00  0.00    +0.003 A 
ATOM     33  C   UNL     1       0.738  -9.365   6.813  0.00  0.00    +0.040 A 
ATOM     34  C   UNL     1       0.337  -8.428   5.878  0.00  0.00    +0.144 A 
ATOM     35  F   UNL     1       0.097  -8.804   4.603  0.00  0.00    -0.204 F 
ENDBRANCH  25  29
ENDBRANCH  21  22
ENDBRANCH  15  21
TORSDOF 5
