REMARK  Name = ZINC20595018
REMARK  12 active torsions:
REMARK  status: ('A' for Active; 'I' for Inactive)
REMARK    1  A    between atoms: C_1  and  C_2
REMARK    2  A    between atoms: C_2  and  C_3
REMARK    3  A    between atoms: C_3  and  N_4
REMARK    4  A    between atoms: N_4  and  C_5
REMARK    5  A    between atoms: N_4  and  C_8
REMARK    6  A    between atoms: C_5  and  C_6
REMARK    7  A    between atoms: C_6  and  C_7
REMARK    8  A    between atoms: C_8  and  N_9
REMARK    9  A    between atoms: N_17  and  N_18
REMARK   10  A    between atoms: C_19  and  C_21
REMARK   11  A    between atoms: C_21  and  O_22
REMARK   12  A    between atoms: O_22  and  C_23
REMARK                            x       y       z     vdW  Elec       q    Type
REMARK                         _______ _______ _______ _____ _____    ______ ____
ROOT
ATOM      1  N   UNL     1      -2.557  -3.781  -1.026  0.00  0.00    -0.252 N 
ATOM      2  C   UNL     1      -2.382  -4.099  -2.368  0.00  0.00    +0.047 A 
ATOM      3  C   UNL     1      -2.249  -3.298  -3.498  0.00  0.00    +0.025 A 
ATOM      4  C   UNL     1      -2.085  -3.875  -4.741  0.00  0.00    +0.017 A 
ATOM      5  C   UNL     1      -2.051  -5.253  -4.880  0.00  0.00    +0.019 A 
ATOM      6  C   UNL     1      -2.183  -6.064  -3.770  0.00  0.00    +0.027 A 
ATOM      7  C   UNL     1      -2.348  -5.492  -2.514  0.00  0.00    +0.029 A 
ATOM      8  C   UNL     1      -2.514  -6.059  -1.155  0.00  0.00    +0.153 C 
ATOM      9  N   UNL     1      -2.543  -7.324  -0.816  0.00  0.00    -0.174 NA
ATOM     10  C   UNL     1      -2.635  -4.886  -0.265  0.00  0.00    +0.272 C 
ATOM     11  O   UNL     1      -2.782  -4.915   0.943  0.00  0.00    -0.268 OA
ATOM     12 BR   UNL     1      -1.825  -6.024  -6.592  0.00  0.00    -0.050 Br
ENDROOT
BRANCH   9  13
ATOM     13  N   UNL     1      -2.710  -7.686   0.527  0.00  0.00    -0.203 N 
ATOM     14  C   UNL     1      -2.739  -8.988   0.876  0.00  0.00    +0.270 C 
ATOM     15  O   UNL     1      -2.622  -9.845   0.027  0.00  0.00    -0.270 OA
ATOM     16  H   UNL     1      -2.804  -7.000   1.206  0.00  0.00    +0.177 HD
BRANCH  14  17
ATOM     17  C   UNL     1      -2.919  -9.377   2.320  0.00  0.00    +0.326 C 
BRANCH  17  18
ATOM     18  O   UNL     1      -2.917 -10.802   2.434  0.00  0.00    -0.483 OA
BRANCH  18  19
ATOM     19  C   UNL     1      -3.070 -11.322   3.680  0.00  0.00    +0.121 A 
ATOM     20  C   UNL     1      -3.224 -10.478   4.771  0.00  0.00    +0.047 A 
ATOM     21  C   UNL     1      -3.379 -11.009   6.037  0.00  0.00    +0.023 A 
ATOM     22  C   UNL     1      -3.380 -12.380   6.218  0.00  0.00    +0.041 A 
ATOM     23  C   UNL     1      -3.226 -13.223   5.131  0.00  0.00    +0.023 A 
ATOM     24  C   UNL     1      -3.077 -12.697   3.863  0.00  0.00    +0.047 A 
ATOM     25 CL   UNL     1      -3.574 -13.045   7.809  0.00  0.00    -0.084 Cl
ENDBRANCH  18  19
ENDBRANCH  17  18
ENDBRANCH  14  17
ENDBRANCH   9  13
BRANCH   1  26
ATOM     26  C   UNL     1      -2.639  -2.414  -0.506  0.00  0.00    +0.201 C 
BRANCH  26  27
ATOM     27  N   UNL     1      -1.342  -2.029   0.067  0.00  0.00    -0.287 NA
BRANCH  27  28
ATOM     28  C   UNL     1      -0.437  -1.521  -0.973  0.00  0.00    +0.085 C 
BRANCH  28  30
ATOM     29  C   UNL     1       1.912  -0.837  -1.477  0.00  0.00    +0.005 C 
ATOM     30  C   UNL     1       0.970  -1.367  -0.394  0.00  0.00    +0.012 C 
ENDBRANCH  28  30
ENDBRANCH  27  28
BRANCH  27  31
ATOM     31  C   UNL     1      -1.513  -1.044   1.143  0.00  0.00    +0.085 C 
BRANCH  31  32
ATOM     32  C   UNL     1      -2.123  -1.728   2.368  0.00  0.00    +0.012 C 
ATOM     33  C   UNL     1      -2.332  -0.696   3.478  0.00  0.00    +0.005 C 
ENDBRANCH  31  32
ENDBRANCH  27  31
ENDBRANCH  26  27
ENDBRANCH   1  26
TORSDOF 10
