REMARK  Name = ZINC09376500
REMARK  9 active torsions:
REMARK  status: ('A' for Active; 'I' for Inactive)
REMARK    1  A    between atoms: C_1  and  C_2
REMARK    2  A    between atoms: C_5  and  C_8
REMARK    3  A    between atoms: N_15  and  C_18
REMARK    4  A    between atoms: C_18  and  C_19
REMARK    5  A    between atoms: C_19  and  C_20
REMARK    6  A    between atoms: N_22  and  C_23
REMARK    7  A    between atoms: C_23  and  C_24
REMARK    8  A    between atoms: C_24  and  C_26
REMARK    9  A    between atoms: C_24  and  N_65
REMARK                            x       y       z     vdW  Elec       q    Type
REMARK                         _______ _______ _______ _____ _____    ______ ____
ROOT
ATOM      1  C   UNL     1      -0.110   1.001   0.008  0.00  0.00    +0.117 C 
ENDROOT
BRANCH   1   2
ATOM      2  C   UNL     1      -0.806   1.485   1.254  0.00  0.00    +0.215 C 
ATOM      3  O   UNL     1      -1.827   2.133   1.165  0.00  0.00    -0.276 OA
ATOM      4  N   UNL     1      -0.293   1.199   2.467  0.00  0.00    -0.316 N 
ATOM      5  H   UNL     1       0.523   0.680   2.538  0.00  0.00    +0.149 HD
BRANCH   4   6
ATOM      6  C   UNL     1      -0.970   1.670   3.678  0.00  0.00    +0.093 C 
BRANCH   6   7
ATOM      7  C   UNL     1      -0.187   1.212   4.911  0.00  0.00    -0.020 C 
BRANCH   7   8
ATOM      8  C   UNL     1      -0.813   1.798   6.150  0.00  0.00    -0.059 A 
ATOM      9  C   UNL     1      -0.884   1.049   7.309  0.00  0.00    +0.002 A 
ATOM     10  C   UNL     1      -1.454   1.589   8.447  0.00  0.00    +0.000 A 
ATOM     11  C   UNL     1      -1.961   2.874   8.423  0.00  0.00    +0.000 A 
ATOM     12  C   UNL     1      -1.895   3.622   7.262  0.00  0.00    +0.000 A 
ATOM     13  C   UNL     1      -1.321   3.083   6.125  0.00  0.00    +0.002 A 
ENDBRANCH   7   8
BRANCH   7  18
ATOM     14  C   UNL     1       1.291   3.146   4.899  0.00  0.00    -0.078 C 
ATOM     15  C   UNL     1       2.769   3.390   5.295  0.00  0.00    -0.020 C 
ATOM     16  C   UNL     1       3.066   2.220   6.261  0.00  0.00    -0.020 C 
ATOM     17  C   UNL     1       2.022   1.142   5.920  0.00  0.00    -0.078 C 
ATOM     18  N   UNL     1       1.228   1.678   4.813  0.00  0.00    +0.385 N 
ATOM     19  H   UNL     1       1.625   1.366   3.919  0.00  0.00    -0.081 HD
ENDBRANCH   7  18
ENDBRANCH   6   7
ENDBRANCH   4   6
ENDBRANCH   1   2
BRANCH   1  20
ATOM     20  C   UNL     1      -0.892   1.459  -1.224  0.00  0.00    +0.135 C 
BRANCH  20  28
ATOM     21  C   UNL     1      -0.050  -1.912  -4.868  0.00  0.00    +0.004 A 
ATOM     22  C   UNL     1       0.703  -2.124  -5.975  0.00  0.00    +0.056 A 
ATOM     23  S   UNL     1       1.695  -0.648  -6.089  0.00  0.00    -0.076 S 
ATOM     24  C   UNL     1       1.083   0.211  -4.663  0.00  0.00    +0.116 A 
ATOM     25  C   UNL     1       0.124  -0.666  -4.131  0.00  0.00    +0.080 A 
ATOM     26  C   UNL     1      -0.542  -0.213  -2.948  0.00  0.00    +0.263 A 
ATOM     27  O   UNL     1      -1.391  -0.905  -2.413  0.00  0.00    -0.267 OA
ATOM     28  N   UNL     1      -0.216   0.988  -2.435  0.00  0.00    -0.298 N 
ATOM     29  C   UNL     1       0.723   1.774  -3.021  0.00  0.00    +0.203 A 
ATOM     30  N   UNL     1       1.352   1.386  -4.098  0.00  0.00    -0.230 NA
BRANCH  21  35
ATOM     31  C   UNL     1      -3.861  -5.854  -3.110  0.00  0.00    +0.044 C 
ATOM     32  C   UNL     1      -2.864  -4.822  -3.570  0.00  0.00    -0.050 A 
ATOM     33  C   UNL     1      -2.860  -4.407  -4.890  0.00  0.00    +0.004 A 
ATOM     34  C   UNL     1      -1.949  -3.463  -5.317  0.00  0.00    +0.009 A 
ATOM     35  C   UNL     1      -1.031  -2.926  -4.416  0.00  0.00    -0.017 A 
ATOM     36  C   UNL     1      -1.035  -3.353  -3.088  0.00  0.00    +0.009 A 
ATOM     37  C   UNL     1      -1.955  -4.293  -2.671  0.00  0.00    +0.004 A 
ENDBRANCH  21  35
ENDBRANCH  20  28
ENDBRANCH   1  20
TORSDOF 8
