REMARK  Name = ZINC44783238
REMARK  6 active torsions:
REMARK  status: ('A' for Active; 'I' for Inactive)
REMARK    1  A    between atoms: C_1  and  C_2
REMARK    2  A    between atoms: C_2  and  C_3
REMARK    3  A    between atoms: C_3  and  N_4
REMARK    4  A    between atoms: C_5  and  C_7
REMARK    5  A    between atoms: C_7  and  C_14
REMARK    6  A    between atoms: N_15  and  O_16
REMARK                            x       y       z     vdW  Elec       q    Type
REMARK                         _______ _______ _______ _____ _____    ______ ____
ROOT
ATOM      1  C   UNL     1       1.247  -4.031   2.344  0.00  0.00    +0.105 C 
ATOM      2  C   UNL     1       1.992  -4.457   1.063  0.00  0.00    +0.024 C 
ATOM      3  C   UNL     1       3.169  -3.539   0.867  0.00  0.00    +0.001 C 
ATOM      4  C   UNL     1       4.467  -4.110   1.469  0.00  0.00    +0.000 C 
ATOM      5  C   UNL     1       4.249  -4.769   2.845  0.00  0.00    +0.000 C 
ATOM      6  C   UNL     1       3.321  -3.974   3.723  0.00  0.00    +0.001 C 
ATOM      7  C   UNL     1       1.891  -4.527   3.552  0.00  0.00    +0.024 C 
ENDROOT
BRANCH   1   8
ATOM      8  C   UNL     1      -0.161  -4.566   2.288  0.00  0.00    +0.147 C 
ATOM      9  N   UNL     1      -0.626  -5.266   3.270  0.00  0.00    -0.076 NA
ATOM     10  N   UNL     1      -0.952  -4.309   1.191  0.00  0.00    -0.343 N 
ATOM     11  H   UNL     1      -0.598  -3.797   0.447  0.00  0.00    +0.144 HD
ATOM     12  H   UNL     1      -1.863  -4.639   1.161  0.00  0.00    +0.144 HD
BRANCH   9  13
ATOM     13  O   UNL     1      -1.948  -5.768   3.217  0.00  0.00    -0.408 OA
ATOM     14  H   UNL     1      -2.206  -6.279   3.996  0.00  0.00    +0.328 HD
ENDBRANCH   9  13
ENDBRANCH   1   8
BRANCH   1  16
ATOM     15  N   UNL     1       0.772  -1.825   1.331  0.00  0.00    -0.315 N 
ATOM     16  C   UNL     1       1.195  -2.526   2.401  0.00  0.00    +0.226 C 
ATOM     17  O   UNL     1       1.533  -1.946   3.411  0.00  0.00    -0.275 OA
ATOM     18  H   UNL     1       0.568  -2.284   0.500  0.00  0.00    +0.149 HD
BRANCH  15  19
ATOM     19  C   UNL     1       0.621  -0.371   1.420  0.00  0.00    +0.104 C 
BRANCH  19  21
ATOM     20  C   UNL     1      -0.027   1.693   0.170  0.00  0.00    +0.005 C 
ATOM     21  C   UNL     1       0.132   0.174   0.077  0.00  0.00    +0.015 C 
ENDBRANCH  19  21
ENDBRANCH  15  19
ENDBRANCH   1  16
TORSDOF 5
