REMARK  Name = ZINC25431666
REMARK  7 active torsions:
REMARK  status: ('A' for Active; 'I' for Inactive)
REMARK    1  A    between atoms: C_3  and  C_28
REMARK    2  A    between atoms: C_6  and  C_7
REMARK    3  A    between atoms: C_9  and  C_12
REMARK    4  A    between atoms: C_12  and  S_13
REMARK    5  A    between atoms: S_13  and  C_14
REMARK    6  A    between atoms: C_17  and  C_20
REMARK    7  A    between atoms: N_18  and  N_19
REMARK                            x       y       z     vdW  Elec       q    Type
REMARK                         _______ _______ _______ _____ _____    ______ ____
ROOT
ATOM      1  S   UNL     1       3.802   0.906  -0.029  0.00  0.00    -0.075 S 
ENDROOT
BRANCH   1   2
ATOM      2  C   UNL     1       2.045   0.769  -0.013  0.00  0.00    +0.209 A 
ATOM      3  N   UNL     1       1.186   1.764   0.000  0.00  0.00    -0.121 NA
ATOM      4  N   UNL     1      -0.016   1.308   0.009  0.00  0.00    -0.127 NA
ATOM      5  C   UNL     1       0.002  -0.004   0.002  0.00  0.00    +0.183 A 
ATOM      6  N   UNL     1       1.323  -0.390  -0.013  0.00  0.00    -0.224 N 
BRANCH   5   7
ATOM      7  C   UNL     1      -1.175  -0.899   0.009  0.00  0.00    +0.039 A 
ATOM      8  C   UNL     1      -1.002  -2.284  -0.005  0.00  0.00    +0.014 A 
ATOM      9  C   UNL     1      -2.103  -3.114   0.007  0.00  0.00    +0.021 A 
ATOM     10  C   UNL     1      -3.380  -2.576   0.023  0.00  0.00    +0.042 A 
ATOM     11  C   UNL     1      -3.559  -1.203   0.031  0.00  0.00    +0.040 A 
ATOM     12  C   UNL     1      -2.464  -0.362   0.025  0.00  0.00    +0.053 A 
ATOM     13 CL   UNL     1      -2.689   1.360   0.035  0.00  0.00    -0.083 Cl
ATOM     14 CL   UNL     1      -4.761  -3.627   0.032  0.00  0.00    -0.083 Cl
ENDBRANCH   5   7
BRANCH   6  15
ATOM     15  N   UNL     1       1.810  -1.666  -0.024  0.00  0.00    -0.295 N 
ATOM     16  H   UNL     1       1.116  -2.520  -0.022  0.00  0.00    +0.163 HD
ATOM     17  H   UNL     1       2.896  -1.840  -0.035  0.00  0.00    +0.163 HD
ENDBRANCH   6  15
ENDBRANCH   1   2
BRANCH   1  18
ATOM     18  C   UNL     1       3.977   2.708  -0.021  0.00  0.00    +0.176 C 
BRANCH  18  21
ATOM     19  C   UNL     1       7.416   3.564  -0.621  0.00  0.00    +0.202 A 
ATOM     20  N   UNL     1       6.186   3.257  -1.093  0.00  0.00    -0.191 NA
ATOM     21  C   UNL     1       5.440   3.070  -0.033  0.00  0.00    +0.238 A 
ATOM     22  O   UNL     1       6.220   3.255   1.036  0.00  0.00    -0.337 OA
ATOM     23  N   UNL     1       7.346   3.537   0.685  0.00  0.00    -0.056 NA
BRANCH  19  29
ATOM     24  C   UNL     1       8.547   3.856  -2.824  0.00  0.00    +0.012 A 
ATOM     25  C   UNL     1       9.669   4.145  -3.574  0.00  0.00    +0.013 A 
ATOM     26  C   UNL     1      10.867   4.438  -2.947  0.00  0.00    +0.055 A 
ATOM     27  C   UNL     1      10.946   4.447  -1.567  0.00  0.00    +0.013 A 
ATOM     28  C   UNL     1       9.829   4.164  -0.806  0.00  0.00    +0.012 A 
ATOM     29  C   UNL     1       8.620   3.869  -1.433  0.00  0.00    +0.022 A 
BRANCH  26  30
ATOM     30  C   UNL     1      12.090   4.746  -3.772  0.00  0.00    +0.417 C 
ATOM     31  F   UNL     1      12.785   3.561  -4.036  0.00  0.00    -0.166 F 
ATOM     32  F   UNL     1      11.702   5.338  -4.979  0.00  0.00    -0.166 F 
ATOM     33  F   UNL     1      12.918   5.625  -3.066  0.00  0.00    -0.166 F 
ENDBRANCH  26  30
ENDBRANCH  19  29
ENDBRANCH  18  21
ENDBRANCH   1  18
TORSDOF 7
