REMARK  Name = ZINC35698336
REMARK  14 active torsions:
REMARK  status: ('A' for Active; 'I' for Inactive)
REMARK    1  A    between atoms: C_1  and  C_2
REMARK    2  A    between atoms: C_2  and  N_3
REMARK    3  A    between atoms: N_3  and  C_4
REMARK    4  A    between atoms: C_4  and  C_5
REMARK    5  A    between atoms: C_6  and  C_8
REMARK    6  A    between atoms: C_9  and  C_37
REMARK    7  A    between atoms: C_13  and  C_15
REMARK    8  A    between atoms: C_20  and  O_21
REMARK    9  A    between atoms: O_21  and  C_22
REMARK   10  A    between atoms: C_23  and  C_26
REMARK   11  A    between atoms: C_27  and  N_29
REMARK   12  A    between atoms: N_29  and  C_30
REMARK   13  A    between atoms: C_30  and  C_31
REMARK   14  A    between atoms: C_31  and  N_32
REMARK                            x       y       z     vdW  Elec       q    Type
REMARK                         _______ _______ _______ _____ _____    ______ ____
ROOT
ATOM      1  C   UNL     1       0.406  -0.721  -3.874  0.00  0.00    +0.061 C 
ATOM      2  C   UNL     1      -0.096  -1.216  -5.061  0.00  0.00    +0.051 C 
ATOM      3  N   UNL     1       0.718  -1.512  -6.062  0.00  0.00    -0.230 NA
ATOM      4  C   UNL     1       2.027  -1.373  -6.032  0.00  0.00    +0.166 C 
ATOM      5  N   UNL     1       2.719  -0.900  -4.952  0.00  0.00    -0.267 N 
ATOM      6  C   UNL     1       1.902  -0.529  -3.767  0.00  0.00    +0.151 C 
ATOM      7  C   UNL     1       4.091  -0.812  -5.077  0.00  0.00    +0.048 C 
ATOM      8  C   UNL     1       4.640  -1.198  -6.250  0.00  0.00    +0.072 C 
ATOM      9  S   UNL     1       3.205  -1.690  -7.184  0.00  0.00    -0.060 S 
ATOM     10  C   UNL     1      -1.581  -1.419  -5.218  0.00  0.00    +0.066 C 
ENDROOT
BRANCH   6  11
ATOM     11  C   UNL     1       2.161   0.923  -3.455  0.00  0.00    +0.020 A 
ATOM     12  C   UNL     1       2.353   1.827  -4.481  0.00  0.00    +0.009 A 
ATOM     13  C   UNL     1       2.592   3.158  -4.196  0.00  0.00    +0.001 A 
ATOM     14  C   UNL     1       2.639   3.589  -2.883  0.00  0.00    +0.004 A 
ATOM     15  C   UNL     1       2.447   2.689  -1.853  0.00  0.00    +0.046 A 
ATOM     16  C   UNL     1       2.202   1.353  -2.137  0.00  0.00    +0.125 A 
BRANCH  16  17
ATOM     17  O   UNL     1       2.008   0.466  -1.125  0.00  0.00    -0.495 OA
ATOM     18  C   UNL     1       1.963   0.996   0.202  0.00  0.00    +0.277 C 
ENDBRANCH  16  17
ENDBRANCH   6  11
BRANCH   1  20
ATOM     19  N   UNL     1      -0.850  -1.368  -1.956  0.00  0.00    -0.298 N 
ATOM     20  C   UNL     1      -0.445  -0.403  -2.805  0.00  0.00    +0.246 C 
ATOM     21  O   UNL     1      -0.817   0.747  -2.643  0.00  0.00    -0.270 OA
BRANCH  19  23
ATOM     22  C   UNL     1      -1.066  -0.617   0.362  0.00  0.00    +0.024 C 
ATOM     23  C   UNL     1      -1.815  -1.055  -0.898  0.00  0.00    +0.104 C 
ENDBRANCH  19  23
BRANCH  19  24
ATOM     24  C   UNL     1      -0.326  -2.729  -2.090  0.00  0.00    +0.104 C 
ATOM     25  C   UNL     1      -1.293  -3.568  -2.928  0.00  0.00    +0.024 C 
ENDBRANCH  19  24
ENDBRANCH   1  20
BRANCH   7  26
ATOM     26  C   UNL     1       4.925  -0.315  -3.973  0.00  0.00    +0.091 C 
ATOM     27  C   UNL     1       6.241  -0.101  -4.167  0.00  0.00    +0.239 C 
ATOM     28  O   UNL     1       6.769  -0.211  -5.410  0.00  0.00    -0.271 OA
BRANCH  27  29
ATOM     29  N   UNL     1       7.053   0.233  -3.096  0.00  0.00    -0.314 N 
ATOM     30  H   UNL     1       6.691   0.240  -2.197  0.00  0.00    +0.149 HD
BRANCH  29  31
ATOM     31  C   UNL     1       8.460   0.574  -3.322  0.00  0.00    +0.086 C 
BRANCH  31  32
ATOM     32  C   UNL     1       9.095   1.020  -2.004  0.00  0.00    -0.060 C 
BRANCH  32  33
ATOM     33  N   UNL     1      10.505   1.362  -2.231  0.00  0.00    +0.381 N 
ATOM     34  C   UNL     1      10.607   2.594  -3.054  0.00  0.00    -0.079 C 
ATOM     35  C   UNL     1      12.029   3.119  -2.732  0.00  0.00    -0.020 C 
ATOM     36  C   UNL     1      12.180   2.804  -1.226  0.00  0.00    -0.020 C 
ATOM     37  C   UNL     1      11.165   1.680  -0.946  0.00  0.00    -0.079 C 
ATOM     38  H   UNL     1      10.980   0.598  -2.686  0.00  0.00    -0.082 HD
ENDBRANCH  32  33
ENDBRANCH  31  32
ENDBRANCH  29  31
ENDBRANCH  27  29
ENDBRANCH   7  26
TORSDOF 10
