REMARK  Name = ZINC02290759
REMARK  7 active torsions:
REMARK  status: ('A' for Active; 'I' for Inactive)
REMARK    1  A    between atoms: C_9  and  C_23
REMARK    2  A    between atoms: C_10  and  N_22
REMARK    3  A    between atoms: N_11  and  C_14
REMARK    4  A    between atoms: C_14  and  C_15
REMARK    5  A    between atoms: C_15  and  C_16
REMARK    6  A    between atoms: N_25  and  C_26
REMARK    7  A    between atoms: C_26  and  C_27
REMARK                            x       y       z     vdW  Elec       q    Type
REMARK                         _______ _______ _______ _____ _____    ______ ____
ROOT
ATOM      1  C   UNL     1       6.864  -1.588  -1.613  0.00  0.00    +0.002 A 
ATOM      2  C   UNL     1       6.613  -1.156  -0.312  0.00  0.00    +0.002 A 
ATOM      3  C   UNL     1       5.353  -0.834   0.088  0.00  0.00    +0.030 A 
ATOM      4  C   UNL     1       4.282  -0.936  -0.820  0.00  0.00    +0.092 A 
ATOM      5  C   UNL     1       4.538  -1.375  -2.143  0.00  0.00    +0.090 A 
ATOM      6  C   UNL     1       5.855  -1.699  -2.519  0.00  0.00    +0.030 A 
ATOM      7  N   UNL     1       3.538  -1.480  -3.026  0.00  0.00    -0.241 NA
ATOM      8  C   UNL     1       2.310  -1.173  -2.657  0.00  0.00    +0.122 A 
ATOM      9  C   UNL     1       1.002  -1.168  -3.332  0.00  0.00    +0.103 A 
ATOM     10  C   UNL     1       0.074  -0.742  -2.388  0.00  0.00    +0.112 A 
ATOM     11  N   UNL     1       0.688  -0.476  -1.203  0.00  0.00    -0.312 N 
ATOM     12  C   UNL     1       2.043  -0.719  -1.290  0.00  0.00    +0.162 A 
ATOM     13  N   UNL     1       3.039  -0.621  -0.435  0.00  0.00    -0.226 NA
ENDROOT
BRANCH   9  14
ATOM     14  C   UNL     1       0.732  -1.542  -4.718  0.00  0.00    +0.250 C 
ATOM     15  O   UNL     1       0.460  -2.696  -4.995  0.00  0.00    -0.270 OA
ATOM     16  N   UNL     1       0.783  -0.610  -5.690  0.00  0.00    -0.307 N 
ATOM     17  H   UNL     1       0.999   0.310  -5.470  0.00  0.00    +0.149 HD
BRANCH  16  18
ATOM     18  C   UNL     1       0.511  -0.985  -7.080  0.00  0.00    +0.140 C 
BRANCH  18  19
ATOM     19  C   UNL     1       0.632   0.231  -7.962  0.00  0.00    -0.027 A 
ATOM     20  C   UNL     1      -0.477   1.019  -8.206  0.00  0.00    +0.009 A 
ATOM     21  C   UNL     1      -0.370   2.139  -9.009  0.00  0.00    +0.050 A 
ATOM     22  C   UNL     1       0.849   2.468  -9.582  0.00  0.00    +0.166 A 
ATOM     23  C   UNL     1       1.965   1.671  -9.340  0.00  0.00    +0.167 A 
ATOM     24  C   UNL     1       1.851   0.553  -8.529  0.00  0.00    +0.054 A 
ATOM     25  O   UNL     1       3.031   2.199 -10.009  0.00  0.00    -0.453 OA
ATOM     26  C   UNL     1       2.467   3.091 -10.988  0.00  0.00    +0.466 C 
ATOM     27  O   UNL     1       1.215   3.495 -10.402  0.00  0.00    -0.453 OA
ENDBRANCH  18  19
ENDBRANCH  16  18
ENDBRANCH   9  14
BRANCH  10  28
ATOM     28  N   UNL     1      -1.270  -0.604  -2.620  0.00  0.00    -0.344 N 
ATOM     29  H   UNL     1      -1.856  -0.298  -1.911  0.00  0.00    +0.144 HD
ATOM     30  H   UNL     1      -1.635  -0.813  -3.494  0.00  0.00    +0.144 HD
ENDBRANCH  10  28
BRANCH  11  31
ATOM     31  C   UNL     1       0.002  -0.004   0.002  0.00  0.00    +0.129 C 
BRANCH  31  32
ATOM     32  C   UNL     1      -0.019   1.526   0.010  0.00  0.00    +0.052 C 
BRANCH  32  33
ATOM     33  C   UNL     1      -0.724   2.012   1.250  0.00  0.00    -0.072 C 
ATOM     34  C   UNL     1      -0.001   2.312   2.281  0.00  0.00    -0.028 C 
ATOM     35  C   UNL     1      -0.560   2.799   3.587  0.00  0.00    +0.027 C 
ATOM     36  C   UNL     1      -1.998   3.286   3.396  0.00  0.00    +0.004 C 
ATOM     37  C   UNL     1      -2.779   2.207   2.635  0.00  0.00    +0.005 C 
ATOM     38  C   UNL     1      -2.220   2.123   1.211  0.00  0.00    +0.030 C 
ENDBRANCH  32  33
ENDBRANCH  31  32
ENDBRANCH  11  31
TORSDOF 7
