REMARK  Name = ZINC39683173
REMARK  10 active torsions:
REMARK  status: ('A' for Active; 'I' for Inactive)
REMARK    1  A    between atoms: C_1  and  C_2
REMARK    2  A    between atoms: C_2  and  C_3
REMARK    3  A    between atoms: C_2  and  C_4
REMARK    4  A    between atoms: C_4  and  O_5
REMARK    5  A    between atoms: O_5  and  C_6
REMARK    6  A    between atoms: C_6  and  C_7
REMARK    7  A    between atoms: C_7  and  C_8
REMARK    8  A    between atoms: C_8  and  N_9
REMARK    9  A    between atoms: C_10  and  C_12
REMARK   10  A    between atoms: C_23  and  C_25
REMARK                            x       y       z     vdW  Elec       q    Type
REMARK                         _______ _______ _______ _____ _____    ______ ____
ROOT
ATOM      1  C   UNL     1      -4.840  -8.256  -0.772  0.00  0.00    +0.100 C 
ATOM      2  C   UNL     1      -4.301  -8.726  -2.141  0.00  0.00    +0.121 C 
ATOM      3  N   UNL     1      -5.002 -10.005  -2.402  0.00  0.00    -0.296 N 
ATOM      4  C   UNL     1      -6.384  -9.772  -1.918  0.00  0.00    +0.115 C 
ATOM      5  C   UNL     1      -6.208  -8.945  -0.629  0.00  0.00    -0.004 C 
ATOM      6  C   UNL     1      -6.214  -9.860   0.591  0.00  0.00    -0.010 C 
ATOM      7  C   UNL     1      -7.602 -10.489   0.744  0.00  0.00    -0.082 C 
ATOM      8  N   UNL     1      -8.607  -9.430   0.897  0.00  0.00    +0.379 N 
ATOM      9  C   UNL     1      -8.659  -8.610  -0.319  0.00  0.00    -0.082 C 
ATOM     10  C   UNL     1      -7.316  -7.902  -0.518  0.00  0.00    -0.010 C 
ATOM     11  C   UNL     1      -4.498 -11.127  -2.954  0.00  0.00    +0.247 C 
ATOM     12  O   UNL     1      -5.228 -12.072  -3.184  0.00  0.00    -0.270 OA
ATOM     13  H   UNL     1      -9.511  -9.847   1.058  0.00  0.00    -0.086 HD
ATOM     14  H   UNL     1      -8.363  -8.848   1.684  0.00  0.00    -0.086 HD
ENDROOT
BRANCH  11  15
ATOM     15  C   UNL     1      -3.059 -11.208  -3.279  0.00  0.00    +0.045 A 
ATOM     16  C   UNL     1      -2.446 -10.186  -4.012  0.00  0.00    +0.014 A 
ATOM     17  C   UNL     1      -1.104 -10.258  -4.316  0.00  0.00    +0.001 A 
ATOM     18  C   UNL     1      -0.347 -11.343  -3.900  0.00  0.00    +0.012 A 
ATOM     19  C   UNL     1      -0.937 -12.368  -3.171  0.00  0.00    +0.031 A 
ATOM     20  C   UNL     1      -2.302 -12.305  -2.849  0.00  0.00    +0.006 A 
ATOM     21  C   UNL     1      -2.664 -13.514  -2.068  0.00  0.00    -0.006 A 
ATOM     22  C   UNL     1      -3.867 -13.936  -1.518  0.00  0.00    +0.009 A 
ATOM     23  C   UNL     1      -3.929 -15.133  -0.821  0.00  0.00    +0.001 A 
ATOM     24  C   UNL     1      -2.799 -15.912  -0.667  0.00  0.00    +0.001 A 
ATOM     25  C   UNL     1      -1.591 -15.505  -1.210  0.00  0.00    +0.012 A 
ATOM     26  C   UNL     1      -1.515 -14.308  -1.911  0.00  0.00    +0.030 A 
ATOM     27  C   UNL     1      -0.395 -13.626  -2.603  0.00  0.00    +0.194 C 
ATOM     28  O   UNL     1       0.752 -14.017  -2.679  0.00  0.00    -0.287 OA
ENDBRANCH  11  15
BRANCH   1  30
ATOM     29  N   UNL     1      -5.024  -6.093   0.414  0.00  0.00    -0.315 N 
ATOM     30  C   UNL     1      -5.003  -6.758  -0.758  0.00  0.00    +0.218 C 
ATOM     31  O   UNL     1      -5.114  -6.151  -1.802  0.00  0.00    -0.275 OA
ATOM     32  H   UNL     1      -4.934  -6.579   1.249  0.00  0.00    +0.149 HD
BRANCH  29  33
ATOM     33  C   UNL     1      -5.182  -4.637   0.428  0.00  0.00    +0.106 C 
BRANCH  33  34
ATOM     34  C   UNL     1      -5.173  -4.136   1.873  0.00  0.00    +0.047 C 
BRANCH  34  35
ATOM     35  C   UNL     1      -5.338  -2.615   1.887  0.00  0.00    +0.161 C 
BRANCH  35  36
ATOM     36  O   UNL     1      -5.330  -2.148   3.238  0.00  0.00    -0.379 OA
BRANCH  36  37
ATOM     37  C   UNL     1      -5.479  -0.732   3.364  0.00  0.00    +0.162 C 
BRANCH  37  39
ATOM     38  C   UNL     1      -5.489   1.177   4.975  0.00  0.00    +0.009 C 
ATOM     39  C   UNL     1      -5.456  -0.347   4.844  0.00  0.00    +0.009 C 
ATOM     40  C   UNL     1      -6.676  -0.946   5.546  0.00  0.00    +0.009 C 
ENDBRANCH  37  39
ENDBRANCH  36  37
ENDBRANCH  35  36
ENDBRANCH  34  35
ENDBRANCH  33  34
ENDBRANCH  29  33
ENDBRANCH   1  30
TORSDOF 8
