REMARK  Name = ZINC12947791
REMARK  12 active torsions:
REMARK  status: ('A' for Active; 'I' for Inactive)
REMARK    1  A    between atoms: C_1  and  C_2
REMARK    2  A    between atoms: C_2  and  O_3
REMARK    3  A    between atoms: O_3  and  C_4
REMARK    4  A    between atoms: C_4  and  C_6
REMARK    5  A    between atoms: C_7  and  C_30
REMARK    6  A    between atoms: C_8  and  C_29
REMARK    7  A    between atoms: C_10  and  N_11
REMARK    8  A    between atoms: C_12  and  C_14
REMARK    9  A    between atoms: C_14  and  N_64
REMARK   10  A    between atoms: C_18  and  C_20
REMARK   11  A    between atoms: N_22  and  C_23
REMARK   12  A    between atoms: C_23  and  C_24
REMARK                            x       y       z     vdW  Elec       q    Type
REMARK                         _______ _______ _______ _____ _____    ______ ____
ROOT
ATOM      1  N   UNL     1      -0.016   1.344   0.009  0.00  0.00    -0.281 N 
ATOM      2  C   UNL     1       0.002  -0.004   0.002  0.00  0.00    +0.201 C 
ATOM      3  O   UNL     1       1.060  -0.596  -0.011  0.00  0.00    -0.278 OA
ATOM      4  H   UNL     1      -0.863   1.817   0.016  0.00  0.00    +0.155 HD
ENDROOT
BRANCH   1   9
ATOM      5  C   UNL     1       1.355   3.429   0.002  0.00  0.00    +0.095 A 
ATOM      6  C   UNL     1       2.725   3.908  -0.004  0.00  0.00    +0.008 A 
ATOM      7  C   UNL     1       3.701   2.964  -0.019  0.00  0.00    -0.003 A 
ATOM      8  S   UNL     1       2.791   1.434  -0.018  0.00  0.00    -0.077 S 
ATOM      9  C   UNL     1       1.174   2.053   0.002  0.00  0.00    +0.087 A 
ATOM     10  C   UNL     1       5.194   3.164  -0.032  0.00  0.00    +0.052 C 
BRANCH   6  11
ATOM     11  C   UNL     1       3.043   5.355  -0.000  0.00  0.00    -0.016 A 
ATOM     12  C   UNL     1       2.701   6.144   1.097  0.00  0.00    +0.008 A 
ATOM     13  C   UNL     1       3.005   7.490   1.098  0.00  0.00    +0.001 A 
ATOM     14  C   UNL     1       3.638   8.059   0.007  0.00  0.00    +0.000 A 
ATOM     15  C   UNL     1       3.974   7.283  -1.087  0.00  0.00    +0.001 A 
ATOM     16  C   UNL     1       3.680   5.935  -1.097  0.00  0.00    +0.008 A 
ENDBRANCH   6  11
BRANCH   5  17
ATOM     17  C   UNL     1       0.220   4.352   0.011  0.00  0.00    +0.342 C 
ATOM     18  O   UNL     1      -0.243   4.736   1.069  0.00  0.00    -0.245 OA
BRANCH  17  19
ATOM     19  O   UNL     1      -0.312   4.779  -1.153  0.00  0.00    -0.461 OA
BRANCH  19  21
ATOM     20  C   UNL     1      -1.901   6.064  -2.477  0.00  0.00    +0.048 C 
ATOM     21  C   UNL     1      -1.437   5.694  -1.067  0.00  0.00    +0.229 C 
ENDBRANCH  19  21
ENDBRANCH  17  19
ENDBRANCH   5  17
ENDBRANCH   1   9
BRANCH   2  22
ATOM     22  C   UNL     1      -1.293  -0.775   0.010  0.00  0.00    +0.020 C 
BRANCH  22  27
ATOM     23  C   UNL     1      -0.424  -2.648   1.284  0.00  0.00    -0.077 C 
ATOM     24  C   UNL     1      -1.327  -3.769   1.840  0.00  0.00    -0.020 C 
ATOM     25  C   UNL     1      -2.046  -4.300   0.571  0.00  0.00    -0.008 C 
ATOM     26  C   UNL     1      -2.233  -3.000  -0.249  0.00  0.00    +0.020 C 
ATOM     27  N   UNL     1      -0.996  -2.232  -0.006  0.00  0.00    +0.393 N 
ATOM     28  H   UNL     1      -0.322  -2.428  -0.755  0.00  0.00    -0.080 HD
BRANCH  26  29
ATOM     29  C   UNL     1      -2.363  -3.320  -1.716  0.00  0.00    +0.200 C 
ATOM     30  O   UNL     1      -1.518  -2.937  -2.498  0.00  0.00    -0.278 OA
ATOM     31  N   UNL     1      -3.418  -4.031  -2.160  0.00  0.00    -0.310 N 
ATOM     32  H   UNL     1      -4.094  -4.337  -1.536  0.00  0.00    +0.149 HD
BRANCH  31  33
ATOM     33  C   UNL     1      -3.544  -4.342  -3.586  0.00  0.00    +0.178 C 
BRANCH  33  34
ATOM     34  C   UNL     1      -4.801  -5.140  -3.817  0.00  0.00    +0.122 A 
ATOM     35  C   UNL     1      -6.018  -4.632  -4.084  0.00  0.00    +0.046 A 
ATOM     36  C   UNL     1      -6.897  -5.730  -4.230  0.00  0.00    +0.041 A 
ATOM     37  C   UNL     1      -6.167  -6.843  -4.035  0.00  0.00    +0.195 A 
ATOM     38  O   UNL     1      -4.898  -6.479  -3.785  0.00  0.00    -0.466 OA
ENDBRANCH  33  34
ENDBRANCH  31  33
ENDBRANCH  26  29
ENDBRANCH  22  27
ENDBRANCH   2  22
TORSDOF 10
