REMARK  Name = ZINC12603308
REMARK  12 active torsions:
REMARK  status: ('A' for Active; 'I' for Inactive)
REMARK    1  A    between atoms: C_1  and  C_2
REMARK    2  A    between atoms: C_2  and  C_3
REMARK    3  A    between atoms: C_2  and  C_4
REMARK    4  A    between atoms: C_7  and  C_10
REMARK    5  A    between atoms: C_13  and  N_36
REMARK    6  A    between atoms: C_19  and  C_32
REMARK    7  A    between atoms: C_32  and  O_34
REMARK    8  A    between atoms: O_34  and  C_35
REMARK    9  A    between atoms: N_36  and  C_37
REMARK   10  A    between atoms: C_37  and  C_38
REMARK   11  A    between atoms: C_38  and  O_39
REMARK   12  A    between atoms: O_39  and  C_40
REMARK                            x       y       z     vdW  Elec       q    Type
REMARK                         _______ _______ _______ _____ _____    ______ ____
ROOT
ATOM      1  C   UNL     1       2.792   4.511   0.013  0.00  0.00    +0.087 C 
ATOM      2  C   UNL     1       3.183   5.308   1.260  0.00  0.00    +0.008 C 
ATOM      3  C   UNL     1       4.334   6.257   0.919  0.00  0.00    -0.068 C 
ATOM      4  C   UNL     1       3.912   7.174  -0.234  0.00  0.00    +0.009 C 
ATOM      5  C   UNL     1       3.511   6.313  -1.433  0.00  0.00    +0.103 C 
ATOM      6  N   UNL     1       2.392   5.440  -1.050  0.00  0.00    -0.274 NA
ATOM      7  C   UNL     1       1.825   4.744  -2.211  0.00  0.00    +0.172 C 
ATOM      8  C   UNL     1       1.081   5.745  -3.107  0.00  0.00    +0.068 C 
ATOM      9  C   UNL     1       1.979   6.936  -3.327  0.00  0.00    -0.016 A 
ATOM     10  C   UNL     1       3.075   7.196  -2.576  0.00  0.00    +0.038 A 
ATOM     11  N   UNL     1       3.678   8.341  -3.020  0.00  0.00    -0.356 N 
ATOM     12  H   UNL     1       4.588   8.710  -2.525  0.00  0.00    +0.166 HD
ATOM     13  C   UNL     1       2.982   8.850  -4.079  0.00  0.00    +0.047 A 
ATOM     14  C   UNL     1       1.881   7.986  -4.317  0.00  0.00    +0.003 A 
ATOM     15  C   UNL     1       0.970   8.239  -5.346  0.00  0.00    +0.010 A 
ATOM     16  C   UNL     1       1.191   9.358  -6.110  0.00  0.00    +0.001 A 
ATOM     17  C   UNL     1       2.264  10.204  -5.883  0.00  0.00    +0.002 A 
ATOM     18  C   UNL     1       3.181   9.978  -4.872  0.00  0.00    +0.026 A 
ENDROOT
BRANCH   1  22
ATOM     19  C   UNL     1      -0.475   1.918   0.938  0.00  0.00    -0.045 A 
ATOM     20  C   UNL     1       0.814   1.420   0.901  0.00  0.00    +0.004 A 
ATOM     21  C   UNL     1       1.871   2.258   0.599  0.00  0.00    +0.005 A 
ATOM     22  C   UNL     1       1.639   3.596   0.341  0.00  0.00    -0.030 A 
ATOM     23  C   UNL     1       0.351   4.096   0.383  0.00  0.00    +0.005 A 
ATOM     24  C   UNL     1      -0.706   3.257   0.684  0.00  0.00    +0.004 A 
BRANCH  19  26
ATOM     25  C   UNL     1      -2.341   1.504   2.518  0.00  0.00    +0.012 C 
ATOM     26  C   UNL     1      -1.628   1.002   1.260  0.00  0.00    +0.013 C 
ATOM     27  C   UNL     1      -2.611   0.988   0.088  0.00  0.00    +0.012 C 
ENDBRANCH  19  26
ENDBRANCH   1  22
BRANCH   3  28
ATOM     28  N   UNL     1       4.663   7.071   2.097  0.00  0.00    +0.382 N 
ATOM     29  H   UNL     1       5.132   8.012   1.773  0.00  0.00    -0.085 HD
ATOM     30  H   UNL     1       3.744   7.294   2.657  0.00  0.00    -0.085 HD
BRANCH  28  31
ATOM     31  C   UNL     1       5.595   6.362   2.983  0.00  0.00    -0.054 C 
BRANCH  31  32
ATOM     32  C   UNL     1       5.914   7.239   4.196  0.00  0.00    +0.140 C 
BRANCH  32  33
ATOM     33  O   UNL     1       4.728   7.431   4.970  0.00  0.00    -0.385 OA
ATOM     34  C   UNL     1       4.917   8.241   6.131  0.00  0.00    +0.193 C 
ENDBRANCH  32  33
ENDBRANCH  31  32
ENDBRANCH  28  31
ENDBRANCH   3  28
BRANCH   7  35
ATOM     35  C   UNL     1       2.939   4.100  -2.995  0.00  0.00    +0.325 C 
ATOM     36  O   UNL     1       4.053   4.045  -2.529  0.00  0.00    -0.249 OA
BRANCH  35  37
ATOM     37  O   UNL     1       2.695   3.588  -4.212  0.00  0.00    -0.467 OA
ATOM     38  C   UNL     1       3.816   2.983  -4.909  0.00  0.00    +0.280 C 
ENDBRANCH  35  37
ENDBRANCH   7  35
TORSDOF 8
