REMARK  Name = ZINC00864557
REMARK  5 active torsions:
REMARK  status: ('A' for Active; 'I' for Inactive)
REMARK    1  A    between atoms: C_3  and  C_11
REMARK    2  A    between atoms: C_6  and  N_7
REMARK    3  A    between atoms: C_14  and  C_16
REMARK    4  A    between atoms: C_17  and  C_18
REMARK    5  A    between atoms: C_17  and  C_20
REMARK                            x       y       z     vdW  Elec       q    Type
REMARK                         _______ _______ _______ _____ _____    ______ ____
ROOT
ATOM      1  C   UNL     1      -5.646   2.524   0.129  0.00  0.00    +0.137 A 
ATOM      2  C   UNL     1      -5.674   3.519   1.084  0.00  0.00    +0.050 A 
ATOM      3  C   UNL     1      -6.707   4.389   0.738  0.00  0.00    +0.050 A 
ATOM      4  C   UNL     1      -7.283   3.886  -0.420  0.00  0.00    +0.130 A 
ATOM      5  O   UNL     1      -6.622   2.760  -0.765  0.00  0.00    -0.455 OA
ENDROOT
BRANCH   1   8
ATOM      6  C   UNL     1      -4.300  -0.973  -0.086  0.00  0.00    +0.033 A 
ATOM      7  C   UNL     1      -5.185   0.085  -0.057  0.00  0.00    +0.015 A 
ATOM      8  C   UNL     1      -4.706   1.388   0.097  0.00  0.00    +0.031 A 
ATOM      9  C   UNL     1      -3.331   1.610   0.220  0.00  0.00    +0.031 A 
ATOM     10  C   UNL     1      -2.458   0.541   0.194  0.00  0.00    +0.048 A 
ATOM     11  C   UNL     1      -2.940  -0.746   0.036  0.00  0.00    +0.127 A 
ATOM     12 BR   UNL     1      -2.670   3.369   0.429  0.00  0.00    -0.049 Br
BRANCH  11  13
ATOM     13  N   UNL     1      -1.998  -1.887   0.005  0.00  0.00    +0.056 N 
ATOM     14  O   UNL     1      -2.419  -3.022  -0.129  0.00  0.00    -0.126 OA
ATOM     15  O   UNL     1      -0.800  -1.690   0.107  0.00  0.00    -0.126 OA
ENDBRANCH  11  13
ENDBRANCH   1   8
BRANCH   4  16
ATOM     16  C   UNL     1      -8.366   4.450  -1.113  0.00  0.00    +0.070 C 
ATOM     17  C   UNL     1      -8.377   4.453  -2.501  0.00  0.00    +0.117 C 
BRANCH  17  18
ATOM     18  C   UNL     1      -7.182   4.035  -3.245  0.00  0.00    +0.252 C 
ATOM     19  O   UNL     1      -6.145   3.804  -2.651  0.00  0.00    -0.270 OA
ATOM     20  N   UNL     1      -7.234   3.905  -4.585  0.00  0.00    -0.325 N 
ATOM     21  H   UNL     1      -8.060   4.089  -5.059  0.00  0.00    +0.145 HD
ATOM     22  H   UNL     1      -6.445   3.629  -5.077  0.00  0.00    +0.145 HD
ENDBRANCH  17  18
BRANCH  17  23
ATOM     23  C   UNL     1      -9.553   4.863  -3.208  0.00  0.00    +0.104 C 
ATOM     24  N   UNL     1     -10.485   5.189  -3.768  0.00  0.00    -0.191 NA
ENDBRANCH  17  23
ENDBRANCH   4  16
TORSDOF 5
