REMARK  Name = ZINC39862202
REMARK  11 active torsions:
REMARK  status: ('A' for Active; 'I' for Inactive)
REMARK    1  A    between atoms: C_1  and  O_2
REMARK    2  A    between atoms: O_2  and  C_3
REMARK    3  A    between atoms: C_5  and  C_12
REMARK    4  A    between atoms: C_7  and  O_10
REMARK    5  A    between atoms: C_8  and  O_9
REMARK    6  A    between atoms: O_10  and  C_11
REMARK    7  A    between atoms: N_16  and  C_20
REMARK    8  A    between atoms: C_20  and  C_22
REMARK    9  A    between atoms: C_20  and  C_27
REMARK   10  A    between atoms: C_22  and  C_23
REMARK   11  A    between atoms: C_23  and  C_24
REMARK                            x       y       z     vdW  Elec       q    Type
REMARK                         _______ _______ _______ _____ _____    ______ ____
ROOT
ATOM      1  C   UNL     1      -4.852   0.226   0.038  0.00  0.00    +0.028 C 
ATOM      2  C   UNL     1      -6.050  -0.405  -0.056  0.00  0.00    +0.077 C 
ATOM      3  C   UNL     1      -7.407   0.164  -0.172  0.00  0.00    +0.259 C 
ATOM      4  O   UNL     1      -7.597   1.366  -0.195  0.00  0.00    -0.269 OA
ATOM      5  N   UNL     1      -8.407  -0.699  -0.249  0.00  0.00    -0.241 N 
ATOM      6  C   UNL     1      -8.192  -2.030  -0.223  0.00  0.00    +0.121 C 
ATOM      7  S   UNL     1      -9.343  -3.294  -0.311  0.00  0.00    -0.027 S 
ATOM      8  S   UNL     1      -6.417  -2.155  -0.083  0.00  0.00    -0.061 S 
ENDROOT
BRANCH   1  11
ATOM      9  C   UNL     1      -2.444  -2.580  -0.598  0.00  0.00    +0.166 A 
ATOM     10  C   UNL     1      -3.619  -1.854  -0.535  0.00  0.00    +0.057 A 
ATOM     11  C   UNL     1      -3.606  -0.548  -0.031  0.00  0.00    -0.017 A 
ATOM     12  C   UNL     1      -2.403   0.018   0.407  0.00  0.00    +0.057 A 
ATOM     13  C   UNL     1      -1.232  -0.714   0.340  0.00  0.00    +0.166 A 
ATOM     14  C   UNL     1      -1.250  -2.015  -0.157  0.00  0.00    +0.201 A 
BRANCH   9  16
ATOM     15  C   UNL     1      -3.714  -4.365  -1.523  0.00  0.00    +0.277 C 
ATOM     16  O   UNL     1      -2.455  -3.848  -1.088  0.00  0.00    -0.491 OA
ENDBRANCH   9  16
BRANCH  14  17
ATOM     17  O   UNL     1      -0.098  -2.734  -0.216  0.00  0.00    -0.501 OA
ATOM     18  H   UNL     1       0.389  -2.630  -1.045  0.00  0.00    +0.292 HD
ENDBRANCH  14  17
BRANCH  13  19
ATOM     19  O   UNL     1      -0.063  -0.165   0.765  0.00  0.00    -0.491 OA
ATOM     20  C   UNL     1      -0.118   1.171   1.268  0.00  0.00    +0.277 C 
ENDBRANCH  13  19
ENDBRANCH   1  11
BRANCH   5  21
ATOM     21  C   UNL     1      -9.778  -0.197  -0.364  0.00  0.00    +0.196 C 
BRANCH  21  22
ATOM     22  C   UNL     1     -10.390  -0.699  -1.647  0.00  0.00    +0.376 C 
ATOM     23  O   UNL     1      -9.817  -1.551  -2.303  0.00  0.00    -0.244 OA
ATOM     24  O   UNL     1     -11.460  -0.253  -2.027  0.00  0.00    -0.244 OA
ENDBRANCH  21  22
BRANCH  21  25
ATOM     25  C   UNL     1     -10.605  -0.692   0.824  0.00  0.00    +0.044 C 
BRANCH  25  26
ATOM     26  C   UNL     1     -10.058  -0.082   2.116  0.00  0.00    +0.098 C 
BRANCH  26  27
ATOM     27  C   UNL     1     -10.872  -0.570   3.286  0.00  0.00    +0.211 C 
ATOM     28  O   UNL     1     -11.798  -1.331   3.105  0.00  0.00    -0.276 OA
ATOM     29  N   UNL     1     -10.570  -0.160   4.534  0.00  0.00    -0.329 N 
ATOM     30  H   UNL     1      -9.829   0.449   4.679  0.00  0.00    +0.145 HD
ATOM     31  H   UNL     1     -11.094  -0.474   5.288  0.00  0.00    +0.145 HD
ENDBRANCH  26  27
ENDBRANCH  25  26
ENDBRANCH  21  25
ENDBRANCH   5  21
TORSDOF 9
