REMARK  Name = ZINC58927957
REMARK  7 active torsions:
REMARK  status: ('A' for Active; 'I' for Inactive)
REMARK    1  A    between atoms: C_1  and  C_2
REMARK    2  A    between atoms: C_2  and  C_3
REMARK    3  A    between atoms: C_2  and  N_20
REMARK    4  A    between atoms: N_5  and  N_6
REMARK    5  A    between atoms: C_7  and  C_9
REMARK    6  A    between atoms: C_9  and  C_10
REMARK    7  A    between atoms: N_23  and  C_24
REMARK                            x       y       z     vdW  Elec       q    Type
REMARK                         _______ _______ _______ _____ _____    ______ ____
ROOT
ATOM      1  C   UNL     1       0.701  -0.502  -1.239  0.00  0.00    +0.249 C 
ATOM      2  O   UNL     1       1.693  -1.192  -1.142  0.00  0.00    -0.272 OA
ATOM      3  N   UNL     1       0.224  -0.176  -2.457  0.00  0.00    -0.233 N 
ATOM      4  H   UNL     1      -0.570   0.377  -2.535  0.00  0.00    +0.173 HD
ENDROOT
BRANCH   3   5
ATOM      5  N   UNL     1       0.874  -0.635  -3.610  0.00  0.00    -0.234 N 
ATOM      6  C   UNL     1       0.397  -0.308  -4.827  0.00  0.00    +0.233 C 
ATOM      7  O   UNL     1      -0.595   0.382  -4.925  0.00  0.00    -0.274 OA
ATOM      8  H   UNL     1       1.667  -1.187  -3.532  0.00  0.00    +0.173 HD
BRANCH   6   9
ATOM      9  C   UNL     1       1.096  -0.802  -6.068  0.00  0.00    +0.132 C 
BRANCH   9  10
ATOM     10  C   UNL     1       0.368  -0.301  -7.288  0.00  0.00    -0.038 A 
ATOM     11  C   UNL     1      -0.661  -1.065  -7.836  0.00  0.00    +0.005 A 
ATOM     12  C   UNL     1      -1.339  -0.642  -8.938  0.00  0.00    +0.009 A 
ATOM     13  C   UNL     1      -0.998   0.584  -9.534  0.00  0.00    -0.018 A 
ATOM     14  C   UNL     1      -1.675   1.054 -10.673  0.00  0.00    +0.008 A 
ATOM     15  C   UNL     1      -1.319   2.246 -11.223  0.00  0.00    +0.001 A 
ATOM     16  C   UNL     1      -0.290   3.011 -10.676  0.00  0.00    +0.001 A 
ATOM     17  C   UNL     1       0.388   2.587  -9.574  0.00  0.00    +0.008 A 
ATOM     18  C   UNL     1       0.048   1.361  -8.978  0.00  0.00    -0.018 A 
ATOM     19  C   UNL     1       0.721   0.893  -7.836  0.00  0.00    +0.012 A 
ENDBRANCH   9  10
ENDBRANCH   6   9
ENDBRANCH   3   5
BRANCH   1  21
ATOM     20  C   UNL     1      -0.009   1.522   0.006  0.00  0.00    +0.038 C 
ATOM     21  C   UNL     1       0.002  -0.008   0.001  0.00  0.00    +0.159 C 
BRANCH  21  22
ATOM     22  N   UNL     1       0.710  -0.495   1.187  0.00  0.00    -0.288 N 
ATOM     23  C   UNL     1       0.052  -0.632   2.356  0.00  0.00    +0.304 C 
ATOM     24  O   UNL     1      -1.129  -0.351   2.425  0.00  0.00    -0.252 OA
ATOM     25  N   UNL     1       0.703  -1.080   3.447  0.00  0.00    -0.269 N 
ATOM     26  H   UNL     1       1.652  -0.719   1.132  0.00  0.00    +0.151 HD
ATOM     27  H   UNL     1       1.627  -1.367   3.377  0.00  0.00    +0.156 HD
BRANCH  25  28
ATOM     28  C   UNL     1       0.047  -1.130   4.682  0.00  0.00    +0.035 A 
ATOM     29  C   UNL     1       0.745  -0.864   5.853  0.00  0.00    +0.023 A 
ATOM     30  C   UNL     1       0.094  -0.914   7.070  0.00  0.00    +0.002 A 
ATOM     31  C   UNL     1      -1.251  -1.229   7.124  0.00  0.00    +0.000 A 
ATOM     32  C   UNL     1      -1.949  -1.496   5.960  0.00  0.00    +0.002 A 
ATOM     33  C   UNL     1      -1.306  -1.442   4.739  0.00  0.00    +0.023 A 
ENDBRANCH  25  28
ENDBRANCH  21  22
ENDBRANCH   1  21
TORSDOF 6
