REMARK  Name = ZINC63295787
REMARK  5 active torsions:
REMARK  status: ('A' for Active; 'I' for Inactive)
REMARK    1  A    between atoms: C_1  and  C_2
REMARK    2  A    between atoms: C_2  and  C_3
REMARK    3  A    between atoms: C_2  and  N_4
REMARK    4  A    between atoms: C_5  and  C_7
REMARK    5  A    between atoms: C_7  and  N_8
REMARK                            x       y       z     vdW  Elec       q    Type
REMARK                         _______ _______ _______ _____ _____    ______ ____
ROOT
ATOM      1  N   UNL     1      -0.148  -1.196   4.707  0.00  0.00    -0.291 N 
ATOM      2  C   UNL     1       0.283  -1.623   5.911  0.00  0.00    +0.303 C 
ATOM      3  O   UNL     1       1.419  -2.038   6.037  0.00  0.00    -0.253 OA
ATOM      4  N   UNL     1      -0.545  -1.591   6.974  0.00  0.00    -0.283 N 
ATOM      5  C   UNL     1      -1.947  -1.205   6.789  0.00  0.00    +0.114 C 
ATOM      6  C   UNL     1      -2.861  -2.338   7.290  0.00  0.00    +0.052 C 
ATOM      7  C   UNL     1      -2.311  -2.780   8.624  0.00  0.00    -0.035 C 
ATOM      8  C   UNL     1      -2.892  -2.929   9.808  0.00  0.00    +0.001 A 
ATOM      9  C   UNL     1      -4.298  -2.824  10.228  0.00  0.00    +0.030 A 
ATOM     10  C   UNL     1      -4.545  -3.022  11.551  0.00  0.00    +0.042 A 
ATOM     11  C   UNL     1      -3.544  -3.310  12.486  0.00  0.00    +0.022 A 
ATOM     12  C   UNL     1      -2.227  -3.432  12.185  0.00  0.00    +0.027 A 
ATOM     13  C   UNL     1      -1.845  -3.254  10.823  0.00  0.00    +0.043 A 
ATOM     14  N   UNL     1      -0.676  -3.337  10.261  0.00  0.00    -0.376 N 
ATOM     15  C   UNL     1      -0.842  -3.137   8.820  0.00  0.00    +0.124 C 
ATOM     16  C   UNL     1      -0.033  -1.948   8.306  0.00  0.00    +0.138 C 
ATOM     17 CL   UNL     1      -6.186  -2.912  12.108  0.00  0.00    -0.084 Cl
ATOM     18  H   UNL     1      -1.074  -0.933   4.590  0.00  0.00    +0.151 HD
ATOM     19  H   UNL     1       0.164  -3.502  10.717  0.00  0.00    +0.160 HD
ENDROOT
BRANCH   1  20
ATOM     20  C   UNL     1       0.782  -1.128   3.578  0.00  0.00    +0.201 C 
BRANCH  20  22
ATOM     21  N   UNL     1       0.715  -0.478   1.192  0.00  0.00    -0.312 N 
ATOM     22  C   UNL     1       0.055  -0.623   2.358  0.00  0.00    +0.230 C 
ATOM     23  O   UNL     1      -1.124  -0.346   2.426  0.00  0.00    -0.274 OA
ATOM     24  H   UNL     1       1.658  -0.699   1.138  0.00  0.00    +0.149 HD
BRANCH  21  26
ATOM     25  C   UNL     1      -0.007   1.543   0.019  0.00  0.00    +0.027 C 
ATOM     26  C   UNL     1       0.009   0.013   0.006  0.00  0.00    +0.067 C 
ATOM     27  C   UNL     1       0.723  -0.479  -1.254  0.00  0.00    +0.027 C 
ENDBRANCH  21  26
ENDBRANCH  20  22
ENDBRANCH   1  20
TORSDOF 3
