REMARK  Name = ZINC13064786
REMARK  15 active torsions:
REMARK  status: ('A' for Active; 'I' for Inactive)
REMARK    1  A    between atoms: C_1  and  C_2
REMARK    2  A    between atoms: C_2  and  C_3
REMARK    3  A    between atoms: C_3  and  C_5
REMARK    4  A    between atoms: C_3  and  N_71
REMARK    5  A    between atoms: N_9  and  C_10
REMARK    6  A    between atoms: C_10  and  C_11
REMARK    7  A    between atoms: C_10  and  C_12
REMARK    8  A    between atoms: C_10  and  C_13
REMARK    9  A    between atoms: C_13  and  C_14
REMARK   10  A    between atoms: C_15  and  C_16
REMARK   11  A    between atoms: C_15  and  N_71
REMARK   12  A    between atoms: C_23  and  C_24
REMARK   13  A    between atoms: C_23  and  N_71
REMARK   14  A    between atoms: C_27  and  C_37
REMARK   15  A    between atoms: C_29  and  C_36
REMARK                            x       y       z     vdW  Elec       q    Type
REMARK                         _______ _______ _______ _____ _____    ______ ____
ROOT
ATOM      1  N   UNL     1      -0.358  -0.259   4.416  0.00  0.00    +0.392 N 
ATOM      2  H   UNL     1      -0.663   0.206   5.279  0.00  0.00    -0.080 HD
ENDROOT
BRANCH   1   3
ATOM      3  C   UNL     1       0.096   0.766   3.453  0.00  0.00    +0.003 C 
BRANCH   3   4
ATOM      4  C   UNL     1       0.725   1.901   4.220  0.00  0.00    +0.139 A 
ATOM      5  N   UNL     1       1.371   1.813   5.357  0.00  0.00    -0.115 NA
ATOM      6  N   UNL     1       1.751   2.999   5.690  0.00  0.00    -0.023 NA
ATOM      7  N   UNL     1       1.368   3.839   4.793  0.00  0.00    -0.043 NA
ATOM      8  N   UNL     1       0.735   3.200   3.868  0.00  0.00    -0.225 N 
BRANCH   8   9
ATOM      9  C   UNL     1       0.134   3.780   2.664  0.00  0.00    +0.061 C 
ATOM     10  C   UNL     1      -1.389   3.675   2.753  0.00  0.00    +0.036 C 
ATOM     11  C   UNL     1       0.627   3.020   1.431  0.00  0.00    +0.036 C 
BRANCH   9  12
ATOM     12  C   UNL     1       0.538   5.252   2.552  0.00  0.00    +0.026 C 
ATOM     13  C   UNL     1      -0.089   5.858   1.295  0.00  0.00    +0.006 C 
ENDBRANCH   9  12
ENDBRANCH   8   9
ENDBRANCH   3   4
BRANCH   3  15
ATOM     14  C   UNL     1       0.482  -0.976   1.704  0.00  0.00    +0.002 C 
ATOM     15  C   UNL     1       1.123   0.172   2.486  0.00  0.00    -0.011 C 
ENDBRANCH   3  15
ENDBRANCH   1   3
BRANCH   1  16
ATOM     16  C   UNL     1      -1.495  -1.016   3.851  0.00  0.00    -0.042 C 
BRANCH  16  17
ATOM     17  C   UNL     1      -2.173  -1.774   4.963  0.00  0.00    -0.064 A 
ATOM     18  C   UNL     1      -1.847  -3.097   5.196  0.00  0.00    +0.004 A 
ATOM     19  C   UNL     1      -2.464  -3.792   6.219  0.00  0.00    +0.038 A 
ATOM     20  C   UNL     1      -3.417  -3.165   7.004  0.00  0.00    +0.123 A 
ATOM     21  C   UNL     1      -3.747  -1.841   6.766  0.00  0.00    +0.038 A 
ATOM     22  C   UNL     1      -3.124  -1.147   5.746  0.00  0.00    +0.004 A 
ATOM     23  F   UNL     1      -4.025  -3.845   8.001  0.00  0.00    -0.205 F 
ENDBRANCH  16  17
ENDBRANCH   1  16
BRANCH   1  24
ATOM     24  C   UNL     1       0.753  -1.180   4.735  0.00  0.00    -0.036 C 
BRANCH  24  25
ATOM     25  C   UNL     1       1.582  -0.571   5.836  0.00  0.00    +0.001 A 
ATOM     26  C   UNL     1       1.149  -0.631   7.120  0.00  0.00    +0.017 A 
ATOM     27  C   UNL     1       1.978  -0.030   8.166  0.00  0.00    +0.002 A 
ATOM     28  C   UNL     1       1.584  -0.061   9.508  0.00  0.00    -0.041 A 
ATOM     29  C   UNL     1       2.380   0.509  10.461  0.00  0.00    +0.007 A 
ATOM     30  C   UNL     1       3.576   1.119  10.109  0.00  0.00    -0.048 A 
ATOM     31  C   UNL     1       3.984   1.162   8.793  0.00  0.00    +0.029 A 
ATOM     32  C   UNL     1       3.190   0.588   7.806  0.00  0.00    +0.050 A 
ATOM     33  N   UNL     1       3.574   0.615   6.482  0.00  0.00    -0.322 N 
ATOM     34  H   UNL     1       4.410   1.041   6.235  0.00  0.00    +0.169 HD
ATOM     35  C   UNL     1       2.809   0.055   5.528  0.00  0.00    +0.251 A 
ATOM     36  O   UNL     1       3.182   0.094   4.369  0.00  0.00    -0.268 OA
ATOM     37  C   UNL     1       4.438   1.741  11.177  0.00  0.00    +0.044 C 
ATOM     38  C   UNL     1       0.287  -0.720   9.901  0.00  0.00    +0.044 C 
ENDBRANCH  24  25
ENDBRANCH   1  24
TORSDOF 9
