REMARK  Name = ZINC39662495
REMARK  7 active torsions:
REMARK  status: ('A' for Active; 'I' for Inactive)
REMARK    1  A    between atoms: C_4  and  C_7
REMARK    2  A    between atoms: C_7  and  C_9
REMARK    3  A    between atoms: C_7  and  N_11
REMARK    4  A    between atoms: C_12  and  C_14
REMARK    5  A    between atoms: C_25  and  C_27
REMARK    6  A    between atoms: C_32  and  S_33
REMARK    7  A    between atoms: S_33  and  C_34
REMARK                            x       y       z     vdW  Elec       q    Type
REMARK                         _______ _______ _______ _____ _____    ______ ____
ROOT
ATOM      1  C   UNL     1       4.707  -4.192   2.189  0.00  0.00    +0.100 C 
ATOM      2  C   UNL     1       3.960  -3.610   3.410  0.00  0.00    +0.121 C 
ATOM      3  N   UNL     1       4.679  -4.158   4.584  0.00  0.00    -0.296 N 
ATOM      4  C   UNL     1       6.109  -4.114   4.195  0.00  0.00    +0.115 C 
ATOM      5  C   UNL     1       6.117  -4.521   2.708  0.00  0.00    -0.004 C 
ATOM      6  C   UNL     1       7.162  -3.713   1.945  0.00  0.00    -0.010 C 
ATOM      7  C   UNL     1       8.559  -4.100   2.438  0.00  0.00    -0.082 C 
ATOM      8  N   UNL     1       8.774  -5.537   2.228  0.00  0.00    +0.379 N 
ATOM      9  C   UNL     1       7.823  -6.309   3.038  0.00  0.00    -0.082 C 
ATOM     10  C   UNL     1       6.395  -6.015   2.570  0.00  0.00    -0.010 C 
ATOM     11  C   UNL     1       4.152  -4.597   5.745  0.00  0.00    +0.249 C 
ATOM     12  O   UNL     1       4.884  -4.931   6.657  0.00  0.00    -0.270 OA
ATOM     13  H   UNL     1       8.638  -5.757   1.253  0.00  0.00    -0.086 HD
ATOM     14  H   UNL     1       9.716  -5.778   2.497  0.00  0.00    -0.086 HD
ENDROOT
BRANCH  11  15
ATOM     15  C   UNL     1       2.689  -4.672   5.908  0.00  0.00    +0.069 A 
ATOM     16  C   UNL     1       1.856  -3.713   5.319  0.00  0.00    +0.017 A 
ATOM     17  C   UNL     1       0.490  -3.829   5.501  0.00  0.00    +0.020 A 
ATOM     18  C   UNL     1      -0.012  -4.877   6.254  0.00  0.00    +0.112 A 
ATOM     19  N   UNL     1       0.789  -5.769   6.801  0.00  0.00    -0.248 NA
ATOM     20  C   UNL     1       2.104  -5.710   6.654  0.00  0.00    +0.114 A 
BRANCH  20  21
ATOM     21  S   UNL     1       3.126  -6.935   7.402  0.00  0.00    -0.069 S 
BRANCH  21  22
ATOM     22  C   UNL     1       2.002  -7.911   8.343  0.00  0.00    +0.014 A 
ATOM     23  C   UNL     1       1.466  -9.073   7.801  0.00  0.00    +0.015 A 
ATOM     24  C   UNL     1       0.585  -9.836   8.542  0.00  0.00    +0.001 A 
ATOM     25  C   UNL     1       0.236  -9.445   9.822  0.00  0.00    +0.000 A 
ATOM     26  C   UNL     1       0.767  -8.289  10.364  0.00  0.00    +0.001 A 
ATOM     27  C   UNL     1       1.653  -7.524   9.631  0.00  0.00    +0.015 A 
ENDBRANCH  21  22
ENDBRANCH  20  21
ENDBRANCH  11  15
BRANCH   1  29
ATOM     28  N   UNL     1       4.832  -3.573  -0.203  0.00  0.00    -0.296 N 
ATOM     29  C   UNL     1       4.779  -3.171   1.083  0.00  0.00    +0.219 C 
ATOM     30  O   UNL     1       4.790  -1.988   1.349  0.00  0.00    -0.275 OA
ATOM     31  H   UNL     1       4.824  -4.520  -0.416  0.00  0.00    +0.150 HD
BRANCH  28  32
ATOM     32  C   UNL     1       4.903  -2.581  -1.278  0.00  0.00    +0.207 C 
BRANCH  32  36
ATOM     33  C   UNL     1       3.338  -4.266  -4.878  0.00  0.00    +0.000 A 
ATOM     34  C   UNL     1       3.054  -2.954  -4.548  0.00  0.00    +0.000 A 
ATOM     35  C   UNL     1       3.561  -2.409  -3.384  0.00  0.00    +0.006 A 
ATOM     36  C   UNL     1       4.351  -3.176  -2.548  0.00  0.00    -0.013 A 
ATOM     37  C   UNL     1       4.634  -4.488  -2.877  0.00  0.00    +0.006 A 
ATOM     38  C   UNL     1       4.128  -5.033  -4.042  0.00  0.00    +0.000 A 
ENDBRANCH  32  36
BRANCH  32  39
ATOM     39  C   UNL     1       6.306  -2.187  -1.491  0.00  0.00    +0.090 C 
ATOM     40  N   UNL     1       7.388  -1.883  -1.655  0.00  0.00    -0.194 NA
ENDBRANCH  32  39
ENDBRANCH  28  32
ENDBRANCH   1  29
TORSDOF 7
