REMARK  Name = ZINC08845172
REMARK  10 active torsions:
REMARK  status: ('A' for Active; 'I' for Inactive)
REMARK    1  A    between atoms: C_1  and  C_2
REMARK    2  A    between atoms: C_4  and  O_33
REMARK    3  A    between atoms: C_5  and  C_9
REMARK    4  A    between atoms: N_17  and  C_30
REMARK    5  A    between atoms: C_18  and  C_20
REMARK    6  A    between atoms: C_22  and  O_28
REMARK    7  A    between atoms: C_23  and  O_27
REMARK    8  A    between atoms: O_28  and  C_29
REMARK    9  A    between atoms: C_30  and  C_31
REMARK   10  A    between atoms: C_31  and  O_32
REMARK                            x       y       z     vdW  Elec       q    Type
REMARK                         _______ _______ _______ _____ _____    ______ ____
ROOT
ATOM      1  C   UNL     1      -0.412  -4.013   0.169  0.00  0.00    +0.102 A 
ATOM      2  C   UNL     1      -0.112  -4.917   1.193  0.00  0.00    +0.035 A 
ATOM      3  C   UNL     1       0.170  -6.116   0.566  0.00  0.00    +0.126 A 
ATOM      4  N   UNL     1       0.031  -5.885  -0.773  0.00  0.00    -0.272 N 
ATOM      5  H   UNL     1       0.167  -6.547  -1.469  0.00  0.00    +0.189 HD
ATOM      6  N   UNL     1      -0.311  -4.663  -0.974  0.00  0.00    -0.173 NA
ATOM      7  C   UNL     1       0.494  -7.114   1.591  0.00  0.00    +0.266 C 
ATOM      8  O   UNL     1       0.789  -8.272   1.364  0.00  0.00    -0.268 OA
ATOM      9  N   UNL     1       0.420  -6.567   2.818  0.00  0.00    -0.283 N 
ATOM     10  C   UNL     1       0.037  -5.157   2.671  0.00  0.00    +0.141 C 
ENDROOT
BRANCH   1  15
ATOM     11  C   UNL     1      -1.850   1.530   0.830  0.00  0.00    +0.045 C 
ATOM     12  C   UNL     1      -1.474   0.081   0.654  0.00  0.00    -0.029 A 
ATOM     13  C   UNL     1      -1.280  -0.431  -0.615  0.00  0.00    +0.050 A 
ATOM     14  C   UNL     1      -0.934  -1.762  -0.781  0.00  0.00    +0.126 A 
ATOM     15  C   UNL     1      -0.782  -2.585   0.339  0.00  0.00    +0.045 A 
ATOM     16  C   UNL     1      -0.979  -2.061   1.613  0.00  0.00    +0.034 A 
ATOM     17  C   UNL     1      -1.318  -0.730   1.766  0.00  0.00    +0.045 A 
ATOM     18 CL   UNL     1      -1.558  -0.075   3.355  0.00  0.00    -0.083 Cl
BRANCH  14  19
ATOM     19  O   UNL     1      -0.744  -2.266  -2.029  0.00  0.00    -0.506 OA
ATOM     20  H   UNL     1       0.167  -2.195  -2.347  0.00  0.00    +0.292 HD
ENDBRANCH  14  19
ENDBRANCH   1  15
BRANCH  10  21
ATOM     21  C   UNL     1       1.113  -4.265   3.235  0.00  0.00    -0.018 A 
ATOM     22  C   UNL     1       2.409  -4.365   2.764  0.00  0.00    +0.055 A 
ATOM     23  C   UNL     1       3.400  -3.547   3.281  0.00  0.00    +0.163 A 
ATOM     24  C   UNL     1       3.087  -2.624   4.274  0.00  0.00    +0.173 A 
ATOM     25  C   UNL     1       1.786  -2.527   4.742  0.00  0.00    +0.063 A 
ATOM     26  C   UNL     1       0.801  -3.345   4.218  0.00  0.00    +0.025 A 
ATOM     27 BR   UNL     1       1.357  -1.275   6.092  0.00  0.00    -0.046 Br
BRANCH  24  28
ATOM     28  O   UNL     1       4.057  -1.818   4.785  0.00  0.00    -0.503 OA
ATOM     29  H   UNL     1       4.160  -0.980   4.315  0.00  0.00    +0.292 HD
ENDBRANCH  24  28
BRANCH  23  30
ATOM     30  O   UNL     1       4.675  -3.645   2.819  0.00  0.00    -0.491 OA
ATOM     31  C   UNL     1       4.949  -4.694   1.887  0.00  0.00    +0.277 C 
ENDBRANCH  23  30
ENDBRANCH  10  21
BRANCH   9  32
ATOM     32  C   UNL     1       0.676  -7.259   4.083  0.00  0.00    +0.137 C 
BRANCH  32  33
ATOM     33  C   UNL     1       2.181  -7.279   4.358  0.00  0.00    +0.175 C 
BRANCH  33  34
ATOM     34  O   UNL     1       2.635  -5.949   4.617  0.00  0.00    -0.393 OA
ATOM     35  H   UNL     1       3.583  -5.885   4.800  0.00  0.00    +0.209 HD
ENDBRANCH  33  34
ENDBRANCH  32  33
ENDBRANCH   9  32
TORSDOF 8
