REMARK  Name = ZINC38605369
REMARK  3 active torsions:
REMARK  status: ('A' for Active; 'I' for Inactive)
REMARK    1  A    between atoms: C_4  and  C_7
REMARK    2  A    between atoms: N_17  and  N_18
REMARK    3  A    between atoms: C_19  and  C_20
REMARK                            x       y       z     vdW  Elec       q    Type
REMARK                         _______ _______ _______ _____ _____    ______ ____
ROOT
ATOM      1  C   UNL     1       3.697  -0.686  -0.037  0.00  0.00    +0.084 A 
ATOM      2  C   UNL     1       3.885  -1.862   0.732  0.00  0.00    +0.028 A 
ATOM      3  C   UNL     1       2.870  -2.393   1.535  0.00  0.00    +0.032 A 
ATOM      4  C   UNL     1       3.107  -3.529   2.255  0.00  0.00    +0.042 A 
ATOM      5  C   UNL     1       4.346  -4.165   2.200  0.00  0.00    +0.022 A 
ATOM      6  C   UNL     1       5.355  -3.672   1.428  0.00  0.00    +0.030 A 
ATOM      7  C   UNL     1       5.146  -2.507   0.675  0.00  0.00    +0.077 A 
ATOM      8  N   UNL     1       6.104  -1.983  -0.100  0.00  0.00    -0.213 NA
ATOM      9  C   UNL     1       5.876  -0.886  -0.796  0.00  0.00    +0.236 A 
ATOM     10  N   UNL     1       4.707  -0.251  -0.777  0.00  0.00    -0.213 NA
ATOM     11  N   UNL     1       6.894  -0.377  -1.585  0.00  0.00    -0.205 N 
ATOM     12 CL   UNL     1       1.849  -4.189   3.252  0.00  0.00    -0.084 Cl
ATOM     13  H   UNL     1       6.747   0.429  -2.105  0.00  0.00    +0.177 HD
ENDROOT
BRANCH   1  17
ATOM     14  C   UNL     1      -0.016   1.380   0.011  0.00  0.00    +0.000 A 
ATOM     15  C   UNL     1       0.537   0.930   1.196  0.00  0.00    +0.001 A 
ATOM     16  C   UNL     1       1.742   0.258   1.187  0.00  0.00    +0.010 A 
ATOM     17  C   UNL     1       2.403   0.034  -0.021  0.00  0.00    +0.001 A 
ATOM     18  C   UNL     1       1.840   0.490  -1.213  0.00  0.00    +0.010 A 
ATOM     19  C   UNL     1       0.634   1.160  -1.190  0.00  0.00    +0.001 A 
ENDBRANCH   1  17
BRANCH  11  20
ATOM     20  N   UNL     1       8.134  -1.026  -1.632  0.00  0.00    -0.191 NA
ATOM     21  C   UNL     1       9.076  -0.555  -2.361  0.00  0.00    +0.120 C 
BRANCH  21  22
ATOM     22  C   UNL     1      10.411  -1.253  -2.411  0.00  0.00    +0.141 C 
ATOM     23  C   UNL     1      11.450  -0.310  -1.837  0.00  0.00    +0.001 C 
ATOM     24  C   UNL     1      12.501   0.024  -2.639  0.00  0.00    -0.007 A 
ATOM     25  C   UNL     1      13.549   0.929  -2.164  0.00  0.00    +0.009 A 
ATOM     26  C   UNL     1      14.577   1.234  -2.998  0.00  0.00    +0.001 A 
ATOM     27  C   UNL     1      14.649   0.705  -4.287  0.00  0.00    +0.002 A 
ATOM     28  C   UNL     1      13.709  -0.140  -4.786  0.00  0.00    +0.024 A 
ATOM     29  C   UNL     1      12.603  -0.520  -4.004  0.00  0.00    +0.040 A 
ATOM     30  N   UNL     1      11.687  -1.349  -4.504  0.00  0.00    -0.284 N 
ATOM     31  C   UNL     1      10.624  -1.744  -3.825  0.00  0.00    +0.229 C 
ATOM     32  O   UNL     1       9.821  -2.503  -4.335  0.00  0.00    -0.274 OA
ATOM     33  H   UNL     1      11.805  -1.677  -5.409  0.00  0.00    +0.155 HD
ENDBRANCH  21  22
ENDBRANCH  11  20
TORSDOF 3
