REMARK  Name = ZINC36990059
REMARK  3 active torsions:
REMARK  status: ('A' for Active; 'I' for Inactive)
REMARK    1  A    between atoms: C_8  and  N_11
REMARK    2  A    between atoms: N_11  and  C_12
REMARK    3  A    between atoms: C_20  and  O_22
REMARK                            x       y       z     vdW  Elec       q    Type
REMARK                         _______ _______ _______ _____ _____    ______ ____
ROOT
ATOM      1  N   UNL     1       2.651  -4.076  -0.045  0.00  0.00    -0.333 N 
ATOM      2  H   UNL     1       1.853  -4.627  -0.040  0.00  0.00    +0.147 HD
ENDROOT
BRANCH   1  10
ATOM      3  C   UNL     1      -0.016   1.357   0.009  0.00  0.00    +0.001 A 
ATOM      4  C   UNL     1       1.170   2.088   0.002  0.00  0.00    +0.002 A 
ATOM      5  C   UNL     1       2.379   1.464  -0.013  0.00  0.00    +0.028 A 
ATOM      6  C   UNL     1       2.441   0.059  -0.021  0.00  0.00    +0.071 A 
ATOM      7  C   UNL     1       1.233  -0.682  -0.013  0.00  0.00    +0.002 A 
ATOM      8  C   UNL     1       0.002  -0.004   0.002  0.00  0.00    +0.010 A 
ATOM      9  C   UNL     1       1.292  -2.087  -0.021  0.00  0.00    +0.034 A 
ATOM     10  C   UNL     1       2.539  -2.683  -0.037  0.00  0.00    +0.047 A 
ATOM     11  C   UNL     1       3.689  -1.884  -0.044  0.00  0.00    +0.134 A 
ATOM     12  N   UNL     1       3.616  -0.576  -0.036  0.00  0.00    -0.253 NA
ENDBRANCH   1  10
BRANCH   1  13
ATOM     13  C   UNL     1       3.975  -4.704  -0.061  0.00  0.00    +0.142 C 
ATOM     14  C   UNL     1       4.495  -4.935   1.377  0.00  0.00    +0.256 C 
ATOM     15  O   UNL     1       5.191  -6.188   1.267  0.00  0.00    -0.489 OA
ATOM     16  C   UNL     1       4.639  -6.921   0.261  0.00  0.00    +0.129 A 
ATOM     17  C   UNL     1       3.896  -6.120  -0.598  0.00  0.00    +0.018 A 
ATOM     18  C   UNL     1       3.260  -6.658  -1.695  0.00  0.00    +0.013 A 
ATOM     19  C   UNL     1       3.349  -8.014  -1.951  0.00  0.00    +0.046 A 
ATOM     20  C   UNL     1       4.082  -8.828  -1.098  0.00  0.00    +0.120 A 
ATOM     21  C   UNL     1       4.724  -8.287   0.004  0.00  0.00    +0.091 A 
BRANCH  20  22
ATOM     22  O   UNL     1       4.169 -10.162  -1.344  0.00  0.00    -0.507 OA
ATOM     23  H   UNL     1       4.916 -10.411  -1.905  0.00  0.00    +0.292 HD
ENDBRANCH  20  22
ENDBRANCH   1  13
TORSDOF 3
