REMARK  Name = ZINC61918946
REMARK  2 active torsions:
REMARK  status: ('A' for Active; 'I' for Inactive)
REMARK    1  A    between atoms: C_1  and  C_2
REMARK    2  A    between atoms: C_11  and  C_20
REMARK                            x       y       z     vdW  Elec       q    Type
REMARK                         _______ _______ _______ _____ _____    ______ ____
ROOT
ATOM      1  C   UNL     1       3.041   0.046  -3.278  0.00  0.00    +0.039 C 
ATOM      2  C   UNL     1       1.801  -0.201  -2.416  0.00  0.00    +0.132 C 
ATOM      3  C   UNL     1       1.798  -1.669  -1.925  0.00  0.00    +0.137 C 
ATOM      4  N   UNL     1       0.537  -1.958  -1.267  0.00  0.00    -0.312 N 
ATOM      5  C   UNL     1       0.328  -1.739   0.177  0.00  0.00    +0.109 C 
ATOM      6  C   UNL     1       0.961  -0.415   0.630  0.00  0.00    +0.047 C 
ATOM      7  C   UNL     1       0.724   0.648  -0.423  0.00  0.00    +0.162 C 
ATOM      8  O   UNL     1       1.820   0.648  -1.329  0.00  0.00    -0.375 OA
ATOM      9  C   UNL     1      -0.509  -2.458  -2.022  0.00  0.00    +0.132 A 
ATOM     10  C   UNL     1      -0.591  -3.837  -2.280  0.00  0.00    +0.052 A 
ATOM     11  C   UNL     1      -1.657  -4.307  -3.049  0.00  0.00    +0.020 A 
ATOM     12  C   UNL     1      -2.594  -3.399  -3.526  0.00  0.00    -0.025 A 
ATOM     13  C   UNL     1      -2.453  -2.061  -3.228  0.00  0.00    +0.047 A 
ATOM     14  N   UNL     1      -1.430  -1.639  -2.494  0.00  0.00    -0.236 NA
ATOM     15  C   UNL     1      -3.442  -1.023  -3.697  0.00  0.00    +0.056 C 
ATOM     16  C   UNL     1      -4.284  -1.566  -4.850  0.00  0.00    +0.006 C 
ATOM     17  C   UNL     1      -4.868  -2.919  -4.429  0.00  0.00    +0.005 C 
ATOM     18  C   UNL     1      -3.728  -3.934  -4.359  0.00  0.00    +0.037 C 
ENDROOT
BRANCH  10  19
ATOM     19  C   UNL     1       0.426  -4.766  -1.750  0.00  0.00    +0.098 C 
ATOM     20  N   UNL     1       0.662  -4.819  -0.439  0.00  0.00    -0.387 N 
ATOM     21  N   UNL     1       1.109  -5.552  -2.582  0.00  0.00    -0.344 N 
ATOM     22  H   UNL     1       0.112  -4.306   0.174  0.00  0.00    +0.157 HD
ATOM     23  H   UNL     1       0.937  -5.513  -3.536  0.00  0.00    +0.144 HD
ATOM     24  H   UNL     1       1.777  -6.162  -2.234  0.00  0.00    +0.144 HD
ATOM     25  H   UNL     1       1.384  -5.370  -0.098  0.00  0.00    +0.157 HD
ENDBRANCH  10  19
TORSDOF 1
