REMARK  Name = ZINC36146373
REMARK  14 active torsions:
REMARK  status: ('A' for Active; 'I' for Inactive)
REMARK    1  A    between atoms: C_1  and  C_2
REMARK    2  A    between atoms: C_2  and  C_3
REMARK    3  A    between atoms: C_2  and  C_4
REMARK    4  A    between atoms: C_4  and  O_5
REMARK    5  A    between atoms: O_5  and  C_6
REMARK    6  A    between atoms: C_6  and  C_7
REMARK    7  A    between atoms: C_7  and  C_9
REMARK    8  A    between atoms: C_7  and  O_34
REMARK    9  A    between atoms: C_9  and  N_10
REMARK   10  A    between atoms: N_10  and  C_11
REMARK   11  A    between atoms: N_10  and  C_19
REMARK   12  A    between atoms: C_11  and  C_12
REMARK   13  A    between atoms: C_19  and  C_20
REMARK   14  A    between atoms: C_23  and  C_26
REMARK                            x       y       z     vdW  Elec       q    Type
REMARK                         _______ _______ _______ _____ _____    ______ ____
ROOT
ATOM      1  N   UNL     1       6.795   0.124  -2.681  0.00  0.00    +0.387 N 
ATOM      2  H   UNL     1       6.873   0.963  -2.127  0.00  0.00    -0.081 HD
ENDROOT
BRANCH   1   3
ATOM      3  C   UNL     1       5.438   0.027  -3.234  0.00  0.00    -0.044 C 
BRANCH   3   4
ATOM      4  C   UNL     1       4.419   0.388  -2.152  0.00  0.00    +0.124 C 
BRANCH   4   5
ATOM      5  O   UNL     1       4.382  -0.647  -1.168  0.00  0.00    -0.391 OA
ATOM      6  H   UNL     1       4.087  -1.503  -1.508  0.00  0.00    +0.210 HD
ENDBRANCH   4   5
BRANCH   4   7
ATOM      7  C   UNL     1       3.034   0.539  -2.785  0.00  0.00    +0.189 C 
BRANCH   7   8
ATOM      8  O   UNL     1       2.105   0.990  -1.796  0.00  0.00    -0.377 OA
BRANCH   8   9
ATOM      9  C   UNL     1       0.774   1.165  -2.287  0.00  0.00    +0.163 C 
BRANCH   9  11
ATOM     10  C   UNL     1       0.321   3.036  -0.695  0.00  0.00    +0.009 C 
ATOM     11  C   UNL     1      -0.129   1.646  -1.149  0.00  0.00    +0.009 C 
ATOM     12  C   UNL     1      -1.576   1.714  -1.641  0.00  0.00    +0.009 C 
ENDBRANCH   9  11
ENDBRANCH   8   9
ENDBRANCH   7   8
ENDBRANCH   4   7
ENDBRANCH   3   4
ENDBRANCH   1   3
BRANCH   1  13
ATOM     13  C   UNL     1       7.064  -1.048  -1.836  0.00  0.00    -0.043 C 
BRANCH  13  14
ATOM     14  C   UNL     1       6.937  -2.302  -2.662  0.00  0.00    -0.064 A 
ATOM     15  C   UNL     1       5.725  -2.962  -2.733  0.00  0.00    +0.004 A 
ATOM     16  C   UNL     1       5.607  -4.112  -3.490  0.00  0.00    +0.038 A 
ATOM     17  C   UNL     1       6.704  -4.604  -4.177  0.00  0.00    +0.123 A 
ATOM     18  C   UNL     1       7.918  -3.942  -4.105  0.00  0.00    +0.038 A 
ATOM     19  C   UNL     1       8.032  -2.789  -3.351  0.00  0.00    +0.004 A 
ATOM     20  F   UNL     1       6.591  -5.729  -4.917  0.00  0.00    -0.205 F 
ENDBRANCH  13  14
ENDBRANCH   1  13
BRANCH   1  21
ATOM     21  C   UNL     1       7.769   0.169  -3.780  0.00  0.00    -0.030 C 
BRANCH  21  22
ATOM     22  C   UNL     1       9.147   0.538  -3.224  0.00  0.00    +0.194 C 
ATOM     23  C   UNL     1      10.214   0.534  -4.345  0.00  0.00    +0.104 C 
ATOM     24  C   UNL     1      11.430  -0.037  -3.640  0.00  0.00    +0.091 C 
ATOM     25  N   UNL     1      11.038  -0.586  -2.539  0.00  0.00    -0.089 NA
ATOM     26  O   UNL     1       9.641  -0.492  -2.344  0.00  0.00    -0.392 OA
BRANCH  24  27
ATOM     27  C   UNL     1      12.821   0.024  -4.129  0.00  0.00    +0.001 A 
ATOM     28  C   UNL     1      13.111   0.655  -5.341  0.00  0.00    +0.011 A 
ATOM     29  C   UNL     1      14.413   0.710  -5.793  0.00  0.00    +0.022 A 
ATOM     30  C   UNL     1      15.432   0.140  -5.048  0.00  0.00    +0.059 A 
ATOM     31  C   UNL     1      15.151  -0.488  -3.845  0.00  0.00    +0.060 A 
ATOM     32  C   UNL     1      13.853  -0.545  -3.380  0.00  0.00    +0.031 A 
ATOM     33 CL   UNL     1      16.435  -1.200  -2.919  0.00  0.00    -0.082 Cl
ATOM     34 CL   UNL     1      17.068   0.212  -5.625  0.00  0.00    -0.082 Cl
ENDBRANCH  24  27
ENDBRANCH  21  22
ENDBRANCH   1  21
TORSDOF 12
