REMARK  Name = ZINC04342173
REMARK  7 active torsions:
REMARK  status: ('A' for Active; 'I' for Inactive)
REMARK    1  A    between atoms: C_1  and  O_2
REMARK    2  A    between atoms: O_2  and  C_3
REMARK    3  A    between atoms: C_7  and  C_10
REMARK    4  A    between atoms: C_8  and  O_9
REMARK    5  A    between atoms: N_11  and  N_12
REMARK    6  A    between atoms: N_12  and  C_13
REMARK    7  A    between atoms: N_16  and  C_21
REMARK                            x       y       z     vdW  Elec       q    Type
REMARK                         _______ _______ _______ _____ _____    ______ ____
ROOT
ATOM      1  N   UNL     1      -0.010  -5.400   1.486  0.00  0.00    -0.235 N 
ATOM      2  H   UNL     1       0.608  -5.812   2.111  0.00  0.00    +0.174 HD
ENDROOT
BRANCH   1   3
ATOM      3  C   UNL     1      -0.709  -6.185   0.586  0.00  0.00    +0.092 A 
ATOM      4  C   UNL     1      -0.641  -7.593   0.666  0.00  0.00    +0.159 A 
ATOM      5  N   UNL     1      -1.300  -8.334  -0.181  0.00  0.00    -0.170 NA
ATOM      6  N   UNL     1      -2.085  -7.758  -1.185  0.00  0.00    -0.195 N 
ATOM      7  C   UNL     1      -2.179  -6.418  -1.298  0.00  0.00    +0.292 A 
ATOM      8  O   UNL     1      -2.867  -5.922  -2.177  0.00  0.00    -0.264 OA
ATOM      9  C   UNL     1      -1.486  -5.597  -0.398  0.00  0.00    +0.131 A 
ATOM     10 CL   UNL     1      -1.595  -3.869  -0.518  0.00  0.00    -0.076 Cl
BRANCH   6  11
ATOM     11  C   UNL     1      -2.780  -8.579  -2.079  0.00  0.00    +0.069 A 
ATOM     12  C   UNL     1      -2.598  -8.428  -3.448  0.00  0.00    +0.028 A 
ATOM     13  C   UNL     1      -3.284  -9.241  -4.329  0.00  0.00    +0.002 A 
ATOM     14  C   UNL     1      -4.152 -10.205  -3.849  0.00  0.00    +0.000 A 
ATOM     15  C   UNL     1      -4.336 -10.358  -2.486  0.00  0.00    +0.002 A 
ATOM     16  C   UNL     1      -3.648  -9.552  -1.601  0.00  0.00    +0.028 A 
ENDBRANCH   6  11
ENDBRANCH   1   3
BRANCH   1  18
ATOM     17  C   UNL     1       0.356  -3.290   2.424  0.00  0.00    +0.142 C 
ATOM     18  N   UNL     1      -0.195  -4.012   1.496  0.00  0.00    -0.190 NA
BRANCH  17  23
ATOM     19  C   UNL     1      -0.242   0.190   1.124  0.00  0.00    +0.162 A 
ATOM     20  C   UNL     1       0.231   0.952   2.182  0.00  0.00    +0.049 A 
ATOM     21  C   UNL     1       0.741   0.337   3.312  0.00  0.00    +0.004 A 
ATOM     22  C   UNL     1       0.785  -1.039   3.396  0.00  0.00    +0.013 A 
ATOM     23  C   UNL     1       0.311  -1.819   2.338  0.00  0.00    +0.040 A 
ATOM     24  C   UNL     1      -0.211  -1.197   1.198  0.00  0.00    +0.167 A 
BRANCH  19  26
ATOM     25  C   UNL     1      -0.744   2.230   0.009  0.00  0.00    +0.277 C 
ATOM     26  O   UNL     1      -0.742   0.801   0.017  0.00  0.00    -0.491 OA
ENDBRANCH  19  26
BRANCH  24  27
ATOM     27  O   UNL     1      -0.679  -1.946   0.165  0.00  0.00    -0.503 OA
ATOM     28  H   UNL     1      -0.034  -2.090  -0.541  0.00  0.00    +0.292 HD
ENDBRANCH  24  27
ENDBRANCH  17  23
ENDBRANCH   1  18
TORSDOF 6
