REMARK  Name = ZINC64337877
REMARK  9 active torsions:
REMARK  status: ('A' for Active; 'I' for Inactive)
REMARK    1  A    between atoms: C_4  and  C_7
REMARK    2  A    between atoms: C_7  and  C_8
REMARK    3  A    between atoms: C_8  and  N_9
REMARK    4  A    between atoms: N_9  and  C_10
REMARK    5  A    between atoms: C_10  and  C_11
REMARK    6  A    between atoms: C_17  and  C_19
REMARK    7  A    between atoms: C_19  and  N_20
REMARK    8  A    between atoms: C_23  and  C_28
REMARK    9  A    between atoms: C_28  and  C_29
REMARK                            x       y       z     vdW  Elec       q    Type
REMARK                         _______ _______ _______ _____ _____    ______ ____
ROOT
ATOM      1  C   UNL     1       6.519  -3.960   1.335  0.00  0.00    +0.213 C 
ENDROOT
BRANCH   1   2
ATOM      2  N   UNL     1       6.090  -5.359   1.422  0.00  0.00    -0.216 N 
ATOM      3  C   UNL     1       6.008  -6.055   2.573  0.00  0.00    +0.244 C 
ATOM      4  O   UNL     1       6.265  -5.657   3.689  0.00  0.00    -0.273 OA
ATOM      5  C   UNL     1       5.527  -7.438   2.181  0.00  0.00    +0.165 C 
ATOM      6  N   UNL     1       5.380  -7.352   0.718  0.00  0.00    -0.287 N 
ATOM      7  C   UNL     1       5.727  -6.100   0.369  0.00  0.00    +0.310 C 
ATOM      8  O   UNL     1       5.715  -5.690  -0.775  0.00  0.00    -0.252 OA
ATOM      9  H   UNL     1       5.087  -8.060   0.122  0.00  0.00    +0.151 HD
BRANCH   5  10
ATOM     10  C   UNL     1       6.564  -8.496   2.560  0.00  0.00    +0.065 C 
BRANCH  10  11
ATOM     11  C   UNL     1       6.011  -9.868   2.274  0.00  0.00    -0.039 C 
ATOM     12  C   UNL     1       6.204 -10.606   1.157  0.00  0.00    -0.001 A 
ATOM     13  C   UNL     1       6.958 -10.361  -0.079  0.00  0.00    +0.010 A 
ATOM     14  C   UNL     1       6.965 -11.310  -1.042  0.00  0.00    +0.001 A 
ATOM     15  C   UNL     1       6.271 -12.519  -0.891  0.00  0.00    +0.002 A 
ATOM     16  C   UNL     1       5.556 -12.816   0.215  0.00  0.00    +0.026 A 
ATOM     17  C   UNL     1       5.481 -11.890   1.292  0.00  0.00    +0.043 A 
ATOM     18  N   UNL     1       4.864 -11.944   2.447  0.00  0.00    -0.380 N 
ATOM     19  C   UNL     1       5.131 -10.701   3.179  0.00  0.00    +0.144 C 
ATOM     20  H   UNL     1       4.323 -12.684   2.767  0.00  0.00    +0.160 HD
ENDBRANCH  10  11
ENDBRANCH   5  10
ENDBRANCH   1   2
BRANCH   1  22
ATOM     21  N   UNL     1       5.482  -1.721   1.505  0.00  0.00    -0.296 N 
ATOM     22  C   UNL     1       5.319  -3.058   1.471  0.00  0.00    +0.234 C 
ATOM     23  O   UNL     1       4.207  -3.535   1.550  0.00  0.00    -0.274 OA
BRANCH  21  24
ATOM     24  C   UNL     1       4.331  -0.848   1.749  0.00  0.00    +0.113 C 
BRANCH  24  25
ATOM     25  C   UNL     1       3.680  -0.477   0.415  0.00  0.00    +0.054 C 
BRANCH  25  29
ATOM     26  C   UNL     1       0.323   2.067   1.124  0.00  0.00    +0.000 A 
ATOM     27  C   UNL     1       1.577   2.615   0.930  0.00  0.00    +0.000 A 
ATOM     28  C   UNL     1       2.664   1.792   0.701  0.00  0.00    +0.004 A 
ATOM     29  C   UNL     1       2.496   0.420   0.666  0.00  0.00    -0.046 A 
ATOM     30  C   UNL     1       1.242  -0.128   0.861  0.00  0.00    +0.004 A 
ATOM     31  C   UNL     1       0.156   0.695   1.088  0.00  0.00    +0.000 A 
ENDBRANCH  25  29
ENDBRANCH  24  25
ENDBRANCH  21  24
BRANCH  21  32
ATOM     32  C   UNL     1       6.811  -1.139   1.299  0.00  0.00    +0.143 C 
BRANCH  32  33
ATOM     33  C   UNL     1       7.456  -0.872   2.635  0.00  0.00    -0.030 A 
ATOM     34  C   UNL     1       7.165   0.292   3.321  0.00  0.00    +0.005 A 
ATOM     35  C   UNL     1       7.756   0.538   4.547  0.00  0.00    +0.000 A 
ATOM     36  C   UNL     1       8.638  -0.381   5.085  0.00  0.00    +0.000 A 
ATOM     37  C   UNL     1       8.928  -1.545   4.399  0.00  0.00    +0.000 A 
ATOM     38  C   UNL     1       8.333  -1.793   3.175  0.00  0.00    +0.005 A 
ENDBRANCH  32  33
ENDBRANCH  21  32
ENDBRANCH   1  22
TORSDOF 9
