REMARK  Name = ZINC44877701
REMARK  10 active torsions:
REMARK  status: ('A' for Active; 'I' for Inactive)
REMARK    1  A    between atoms: C_1  and  C_2
REMARK    2  A    between atoms: N_7  and  C_9
REMARK    3  A    between atoms: C_9  and  C_10
REMARK    4  A    between atoms: C_13  and  C_16
REMARK    5  A    between atoms: C_16  and  N_17
REMARK    6  A    between atoms: C_18  and  C_20
REMARK    7  A    between atoms: C_20  and  N_21
REMARK    8  A    between atoms: N_21  and  C_22
REMARK    9  A    between atoms: N_21  and  S_29
REMARK   10  A    between atoms: S_29  and  C_32
REMARK                            x       y       z     vdW  Elec       q    Type
REMARK                         _______ _______ _______ _____ _____    ______ ____
ROOT
ATOM      1  N   UNL     1       0.239  -8.816   1.763  0.00  0.00    -0.310 N 
ATOM      2  C   UNL     1       0.021 -10.123   1.512  0.00  0.00    +0.232 C 
ATOM      3  O   UNL     1       0.270 -10.953   2.361  0.00  0.00    -0.274 OA
ATOM      4  H   UNL     1       0.041  -8.153   1.084  0.00  0.00    +0.149 HD
ENDROOT
BRANCH   1   5
ATOM      5  C   UNL     1       0.776  -8.399   3.061  0.00  0.00    +0.139 C 
BRANCH   5   9
ATOM      6  C   UNL     1       1.199  -4.149   3.130  0.00  0.00    -0.064 A 
ATOM      7  C   UNL     1       0.017  -4.733   3.545  0.00  0.00    +0.002 A 
ATOM      8  C   UNL     1      -0.120  -6.108   3.522  0.00  0.00    +0.005 A 
ATOM      9  C   UNL     1       0.925  -6.900   3.084  0.00  0.00    -0.030 A 
ATOM     10  C   UNL     1       2.107  -6.316   2.668  0.00  0.00    +0.005 A 
ATOM     11  C   UNL     1       2.242  -4.940   2.687  0.00  0.00    +0.002 A 
BRANCH   6  12
ATOM     12  C   UNL     1       1.348  -2.650   3.154  0.00  0.00    -0.043 C 
BRANCH  12  18
ATOM     13  C   UNL     1       0.413   1.488   0.710  0.00  0.00    +0.005 C 
ATOM     14  C   UNL     1       0.385  -0.040   0.635  0.00  0.00    -0.031 C 
ATOM     15  C   UNL     1       1.259  -0.512  -0.531  0.00  0.00    -0.001 C 
ATOM     16  C   UNL     1       1.286  -2.043  -0.549  0.00  0.00    -0.018 C 
ATOM     17  C   UNL     1       1.794  -2.554   0.801  0.00  0.00    -0.078 C 
ATOM     18  N   UNL     1       0.901  -2.092   1.871  0.00  0.00    +0.383 N 
ATOM     19  C   UNL     1       0.925  -0.626   1.941  0.00  0.00    -0.075 C 
ATOM     20  H   UNL     1      -0.039  -2.403   1.680  0.00  0.00    -0.081 HD
ENDBRANCH  12  18
ENDBRANCH   6  12
ENDBRANCH   5   9
ENDBRANCH   1   5
BRANCH   2  21
ATOM     21  C   UNL     1      -0.531 -10.552   0.178  0.00  0.00    +0.227 C 
BRANCH  21  22
ATOM     22  N   UNL     1      -0.542 -12.015   0.101  0.00  0.00    -0.193 N 
BRANCH  22  23
ATOM     23  C   UNL     1       0.598 -12.701  -0.327  0.00  0.00    +0.070 A 
ATOM     24  C   UNL     1       1.586 -13.046   0.586  0.00  0.00    +0.026 A 
ATOM     25  C   UNL     1       2.711 -13.724   0.161  0.00  0.00    +0.002 A 
ATOM     26  C   UNL     1       2.855 -14.060  -1.173  0.00  0.00    +0.002 A 
ATOM     27  C   UNL     1       1.874 -13.719  -2.085  0.00  0.00    +0.022 A 
ATOM     28  C   UNL     1       0.743 -13.045  -1.665  0.00  0.00    +0.064 A 
ATOM     29 CL   UNL     1      -0.493 -12.622  -2.810  0.00  0.00    -0.082 Cl
ENDBRANCH  22  23
BRANCH  22  30
ATOM     30  S   UNL     1      -1.905 -12.855   0.521  0.00  0.00    +0.075 S 
ATOM     31  O   UNL     1      -1.481 -14.161   0.887  0.00  0.00    -0.150 OA
ATOM     32  O   UNL     1      -2.643 -12.019   1.403  0.00  0.00    -0.150 OA
BRANCH  30  33
ATOM     33  C   UNL     1      -2.878 -13.033  -0.937  0.00  0.00    +0.109 A 
ATOM     34  C   UNL     1      -3.815 -12.070  -1.264  0.00  0.00    +0.029 A 
ATOM     35  C   UNL     1      -4.578 -12.209  -2.408  0.00  0.00    +0.002 A 
ATOM     36  C   UNL     1      -4.405 -13.310  -3.225  0.00  0.00    +0.000 A 
ATOM     37  C   UNL     1      -3.468 -14.273  -2.898  0.00  0.00    +0.002 A 
ATOM     38  C   UNL     1      -2.702 -14.132  -1.756  0.00  0.00    +0.029 A 
ENDBRANCH  30  33
ENDBRANCH  22  30
ENDBRANCH  21  22
ENDBRANCH   2  21
TORSDOF 9
