REMARK  Name = ZINC56154309
REMARK  7 active torsions:
REMARK  status: ('A' for Active; 'I' for Inactive)
REMARK    1  A    between atoms: C_1  and  C_2
REMARK    2  A    between atoms: C_2  and  C_4
REMARK    3  A    between atoms: C_2  and  N_12
REMARK    4  A    between atoms: N_12  and  C_13
REMARK    5  A    between atoms: C_17  and  N_19
REMARK    6  A    between atoms: N_19  and  S_20
REMARK    7  A    between atoms: S_20  and  C_23
REMARK                            x       y       z     vdW  Elec       q    Type
REMARK                         _______ _______ _______ _____ _____    ______ ____
ROOT
ATOM      1  C   UNL     1      -1.478  -0.978   1.732  0.00  0.00    +0.029 A 
ATOM      2  C   UNL     1      -0.798  -0.247   2.699  0.00  0.00    +0.023 A 
ATOM      3  C   UNL     1      -1.164  -0.348   4.028  0.00  0.00    +0.004 A 
ATOM      4  C   UNL     1      -2.205  -1.176   4.400  0.00  0.00    +0.024 A 
ATOM      5  C   UNL     1      -2.889  -1.910   3.438  0.00  0.00    +0.050 A 
ATOM      6  C   UNL     1      -2.529  -1.806   2.102  0.00  0.00    +0.047 A 
ENDROOT
BRANCH   1   7
ATOM      7  N   UNL     1      -1.108  -0.875   0.390  0.00  0.00    -0.333 N 
ATOM      8  H   UNL     1      -1.585  -1.383  -0.285  0.00  0.00    +0.147 HD
BRANCH   7  10
ATOM      9  C   UNL     1      -0.516   1.427  -0.185  0.00  0.00    +0.038 C 
ATOM     10  C   UNL     1       0.001  -0.001   0.000  0.00  0.00    +0.154 C 
BRANCH  10  11
ATOM     11  C   UNL     1       0.597  -0.491  -1.294  0.00  0.00    +0.243 C 
ATOM     12  O   UNL     1      -0.085  -1.119  -2.076  0.00  0.00    -0.273 OA
ATOM     13  N   UNL     1       1.888  -0.232  -1.583  0.00  0.00    -0.223 N 
ATOM     14  C   UNL     1       2.849   0.416  -0.678  0.00  0.00    +0.137 C 
ATOM     15  C   UNL     1       4.153   0.464  -1.499  0.00  0.00    +0.125 C 
ATOM     16  N   UNL     1       3.787  -0.162  -2.778  0.00  0.00    -0.297 N 
ATOM     17  C   UNL     1       2.499  -0.528  -2.737  0.00  0.00    +0.309 C 
ATOM     18  O   UNL     1       1.936  -1.075  -3.664  0.00  0.00    -0.252 OA
ATOM     19  H   UNL     1       4.385  -0.293  -3.531  0.00  0.00    +0.150 HD
ENDBRANCH  10  11
ENDBRANCH   7  10
ENDBRANCH   1   7
BRANCH   5  20
ATOM     20  N   UNL     1      -3.942  -2.748   3.815  0.00  0.00    -0.216 N 
ATOM     21  H   UNL     1      -4.003  -3.644   3.449  0.00  0.00    +0.174 HD
BRANCH  20  22
ATOM     22  S   UNL     1      -5.084  -2.211   4.887  0.00  0.00    +0.072 S 
ATOM     23  O   UNL     1      -6.021  -3.267   5.045  0.00  0.00    -0.150 OA
ATOM     24  O   UNL     1      -4.378  -1.648   5.984  0.00  0.00    -0.150 OA
BRANCH  22  25
ATOM     25  C   UNL     1      -5.945  -0.885   4.109  0.00  0.00    +0.108 A 
ATOM     26  C   UNL     1      -5.490   0.413   4.251  0.00  0.00    +0.029 A 
ATOM     27  C   UNL     1      -6.166   1.453   3.641  0.00  0.00    +0.002 A 
ATOM     28  C   UNL     1      -7.297   1.195   2.889  0.00  0.00    +0.000 A 
ATOM     29  C   UNL     1      -7.752  -0.102   2.746  0.00  0.00    +0.002 A 
ATOM     30  C   UNL     1      -7.073  -1.143   3.353  0.00  0.00    +0.029 A 
ENDBRANCH  22  25
ENDBRANCH  20  22
ENDBRANCH   5  20
TORSDOF 6
