REMARK  Name = ZINC05345652
REMARK  8 active torsions:
REMARK  status: ('A' for Active; 'I' for Inactive)
REMARK    1  A    between atoms: C_1  and  C_2
REMARK    2  A    between atoms: C_2  and  C_3
REMARK    3  A    between atoms: C_3  and  C_5
REMARK    4  A    between atoms: C_3  and  N_6
REMARK    5  A    between atoms: C_18  and  C_26
REMARK    6  A    between atoms: C_27  and  C_29
REMARK    7  A    between atoms: C_29  and  C_31
REMARK    8  A    between atoms: C_29  and  O_32
REMARK                            x       y       z     vdW  Elec       q    Type
REMARK                         _______ _______ _______ _____ _____    ______ ____
ROOT
ATOM      1  N   UNL     1      -5.263   2.066   2.171  0.00  0.00    -0.239 N 
ATOM      2  C   UNL     1      -4.075   2.677   2.242  0.00  0.00    +0.224 C 
ATOM      3  O   UNL     1      -3.864   3.834   1.949  0.00  0.00    -0.275 OA
ATOM      4  C   UNL     1      -3.037   1.700   2.745  0.00  0.00    +0.075 C 
ATOM      5  C   UNL     1      -3.850   0.393   2.963  0.00  0.00    +0.088 C 
ATOM      6  C   UNL     1      -5.251   0.782   2.549  0.00  0.00    +0.225 C 
ATOM      7  O   UNL     1      -6.215   0.046   2.559  0.00  0.00    -0.275 OA
ATOM      8  C   UNL     1      -3.267  -0.600   1.952  0.00  0.00    +0.050 C 
ATOM      9  C   UNL     1      -4.117  -0.697   0.717  0.00  0.00    -0.026 A 
ATOM     10  C   UNL     1      -4.527   0.220  -0.226  0.00  0.00    +0.008 A 
ATOM     11  C   UNL     1      -5.329  -0.182  -1.280  0.00  0.00    -0.049 A 
ATOM     12  C   UNL     1      -5.716  -1.505  -1.385  0.00  0.00    +0.025 A 
ATOM     13  C   UNL     1      -5.307  -2.427  -0.443  0.00  0.00    +0.063 A 
ATOM     14  C   UNL     1      -4.501  -2.031   0.623  0.00  0.00    +0.054 A 
ATOM     15  N   UNL     1      -3.967  -2.764   1.686  0.00  0.00    -0.285 N 
ATOM     16  C   UNL     1      -3.230  -1.996   2.512  0.00  0.00    +0.211 C 
ATOM     17  O   UNL     1      -2.650  -2.360   3.513  0.00  0.00    -0.277 OA
ATOM     18 CL   UNL     1      -5.800  -4.086  -0.585  0.00  0.00    -0.082 Cl
ATOM     19  C   UNL     1      -5.779   0.821  -2.311  0.00  0.00    +0.044 C 
ATOM     20  C   UNL     1      -2.057   1.367   1.599  0.00  0.00    -0.028 C 
ATOM     21  H   UNL     1      -4.110  -3.714   1.814  0.00  0.00    +0.155 HD
ATOM     22  N   UNL     1      -1.941  -0.092   1.644  0.00  0.00    +0.396 N 
ATOM     23  H   UNL     1      -1.625  -0.451   0.736  0.00  0.00    -0.083 HD
ATOM     24  H   UNL     1      -1.276  -0.372   2.374  0.00  0.00    -0.083 HD
ENDROOT
BRANCH   1  25
ATOM     25  C   UNL     1      -6.478   2.746   1.714  0.00  0.00    +0.081 C 
ATOM     26  C   UNL     1      -7.103   1.956   0.563  0.00  0.00    +0.028 C 
BRANCH  25  28
ATOM     27  C   UNL     1      -6.886   3.707   3.985  0.00  0.00    +0.006 C 
ATOM     28  C   UNL     1      -7.475   2.839   2.871  0.00  0.00    +0.019 C 
ENDBRANCH  25  28
ENDBRANCH   1  25
BRANCH  20  29
ATOM     29  C   UNL     1      -0.706   2.043   1.841  0.00  0.00    +0.098 C 
ATOM     30  C   UNL     1       0.248   1.701   0.694  0.00  0.00    +0.036 C 
BRANCH  29  31
ATOM     31  O   UNL     1      -0.885   3.459   1.904  0.00  0.00    -0.394 OA
ATOM     32  H   UNL     1      -0.068   3.953   2.056  0.00  0.00    +0.210 HD
ENDBRANCH  29  31
ENDBRANCH  20  29
TORSDOF 4
