REMARK  Name = ZINC06171229
REMARK  9 active torsions:
REMARK  status: ('A' for Active; 'I' for Inactive)
REMARK    1  A    between atoms: C_1  and  C_2
REMARK    2  A    between atoms: C_2  and  C_4
REMARK    3  A    between atoms: C_2  and  N_14
REMARK    4  A    between atoms: C_15  and  C_17
REMARK    5  A    between atoms: C_17  and  S_18
REMARK    6  A    between atoms: S_18  and  C_19
REMARK    7  A    between atoms: C_21  and  C_25
REMARK    8  A    between atoms: C_28  and  O_31
REMARK    9  A    between atoms: O_31  and  C_32
REMARK                            x       y       z     vdW  Elec       q    Type
REMARK                         _______ _______ _______ _____ _____    ______ ____
ROOT
ATOM      1  N   UNL     1       0.688  -0.476  -1.203  0.00  0.00    -0.312 N 
ATOM      2  C   UNL     1       0.006  -0.608  -2.358  0.00  0.00    +0.224 C 
ATOM      3  O   UNL     1      -1.175  -0.336  -2.400  0.00  0.00    -0.275 OA
ATOM      4  H   UNL     1       1.632  -0.695  -1.170  0.00  0.00    +0.149 HD
ENDROOT
BRANCH   1   6
ATOM      5  C   UNL     1      -0.019   1.526   0.010  0.00  0.00    +0.028 C 
ATOM      6  C   UNL     1       0.002  -0.004   0.002  0.00  0.00    +0.076 C 
BRANCH   6   7
ATOM      7  C   UNL     1       0.742  -0.511   1.242  0.00  0.00    -0.010 C 
ATOM      8  C   UNL     1       2.178   0.019   1.231  0.00  0.00    +0.012 C 
ATOM      9  C   UNL     1       2.917  -0.488   2.470  0.00  0.00    -0.010 C 
ATOM     10  C   UNL     1       2.201   0.005   3.729  0.00  0.00    +0.007 C 
ATOM     11  C   UNL     1       0.766  -0.524   3.740  0.00  0.00    -0.010 C 
ATOM     12  C   UNL     1       0.026  -0.018   2.500  0.00  0.00    +0.012 C 
ATOM     13  C   UNL     1       0.787  -2.054   3.732  0.00  0.00    +0.007 C 
ATOM     14  C   UNL     1       1.503  -2.548   2.473  0.00  0.00    -0.010 C 
ATOM     15  C   UNL     1       2.938  -2.018   2.462  0.00  0.00    +0.007 C 
ATOM     16  C   UNL     1       0.763  -2.041   1.233  0.00  0.00    +0.012 C 
ENDBRANCH   6   7
ENDBRANCH   1   6
BRANCH   2  17
ATOM     17  C   UNL     1       0.712  -1.094  -3.598  0.00  0.00    +0.173 C 
BRANCH  17  18
ATOM     18  S   UNL     1      -0.466  -1.164  -4.976  0.00  0.00    -0.077 S 
BRANCH  18  19
ATOM     19  C   UNL     1       0.498  -1.742  -6.333  0.00  0.00    +0.185 A 
ATOM     20  N   UNL     1       1.778  -2.041  -6.299  0.00  0.00    -0.201 NA
ATOM     21  C   UNL     1       2.179  -2.447  -7.512  0.00  0.00    +0.182 A 
ATOM     22  N   UNL     1       1.153  -2.411  -8.333  0.00  0.00    -0.152 NA
ATOM     23  H   UNL     1      -0.855  -1.831  -7.914  0.00  0.00    +0.191 HD
ATOM     24  N   UNL     1       0.050  -1.961  -7.589  0.00  0.00    -0.253 N 
BRANCH  21  25
ATOM     25  C   UNL     1       3.555  -2.869  -7.870  0.00  0.00    +0.021 A 
ATOM     26  C   UNL     1       4.559  -2.868  -6.904  0.00  0.00    +0.015 A 
ATOM     27  C   UNL     1       5.838  -3.261  -7.239  0.00  0.00    +0.046 A 
ATOM     28  C   UNL     1       6.126  -3.657  -8.538  0.00  0.00    +0.120 A 
ATOM     29  C   UNL     1       5.128  -3.658  -9.503  0.00  0.00    +0.046 A 
ATOM     30  C   UNL     1       3.846  -3.272  -9.172  0.00  0.00    +0.015 A 
BRANCH  28  31
ATOM     31  O   UNL     1       7.387  -4.042  -8.866  0.00  0.00    -0.495 OA
ATOM     32  C   UNL     1       7.613  -4.437 -10.221  0.00  0.00    +0.277 C 
ENDBRANCH  28  31
ENDBRANCH  21  25
ENDBRANCH  18  19
ENDBRANCH  17  18
ENDBRANCH   2  17
TORSDOF 7
