REMARK  Name = ZINC08914152
REMARK  9 active torsions:
REMARK  status: ('A' for Active; 'I' for Inactive)
REMARK    1  A    between atoms: C_1  and  N_57
REMARK    2  A    between atoms: C_2  and  N_57
REMARK    3  A    between atoms: C_3  and  C_4
REMARK    4  A    between atoms: C_3  and  N_57
REMARK    5  A    between atoms: C_4  and  C_5
REMARK    6  A    between atoms: C_5  and  N_6
REMARK    7  A    between atoms: C_7  and  C_26
REMARK    8  A    between atoms: C_10  and  C_11
REMARK    9  A    between atoms: C_10  and  O_21
REMARK                            x       y       z     vdW  Elec       q    Type
REMARK                         _______ _______ _______ _____ _____    ______ ____
ROOT
ATOM      1  N   UNL     1      -7.196   0.402   0.354  0.00  0.00    -0.284 N 
ATOM      2  C   UNL     1      -6.249  -0.712   0.254  0.00  0.00    +0.144 C 
ATOM      3  C   UNL     1      -4.873  -0.100   0.135  0.00  0.00    +0.071 C 
ATOM      4  C   UNL     1      -3.672  -0.774   0.019  0.00  0.00    +0.133 C 
ATOM      5  C   UNL     1      -5.059   1.290   0.159  0.00  0.00    +0.249 C 
ATOM      6  O   UNL     1      -4.181   2.130   0.080  0.00  0.00    -0.282 OA
ATOM      7  C   UNL     1      -6.516   1.560   0.297  0.00  0.00    +0.288 C 
ATOM      8  O   UNL     1      -7.017   2.664   0.349  0.00  0.00    -0.266 OA
ENDROOT
BRANCH   4   9
ATOM      9  C   UNL     1      -2.404  -0.031   0.066  0.00  0.00    +0.021 A 
ATOM     10  C   UNL     1      -2.156   0.871   1.107  0.00  0.00    +0.015 A 
ATOM     11  C   UNL     1      -0.970   1.567   1.145  0.00  0.00    +0.050 A 
ATOM     12  C   UNL     1      -0.011   1.375   0.156  0.00  0.00    +0.162 A 
ATOM     13  C   UNL     1      -0.249   0.477  -0.883  0.00  0.00    +0.163 A 
ATOM     14  C   UNL     1      -1.440  -0.223  -0.931  0.00  0.00    +0.061 A 
ATOM     15  O   UNL     1       0.680   0.278  -1.858  0.00  0.00    -0.485 OA
ATOM     16  C   UNL     1       1.703   1.271  -1.984  0.00  0.00    +0.270 C 
ATOM     17  C   UNL     1       2.239   1.588  -0.581  0.00  0.00    +0.270 C 
ATOM     18  O   UNL     1       1.153   2.075   0.215  0.00  0.00    -0.485 OA
ENDBRANCH   4   9
BRANCH   2  19
ATOM     19  C   UNL     1      -6.329  -1.566   1.492  0.00  0.00    -0.021 A 
ATOM     20  C   UNL     1      -6.232  -2.942   1.391  0.00  0.00    +0.006 A 
ATOM     21  C   UNL     1      -6.305  -3.726   2.527  0.00  0.00    +0.001 A 
ATOM     22  C   UNL     1      -6.474  -3.135   3.765  0.00  0.00    +0.015 A 
ATOM     23  C   UNL     1      -6.572  -1.759   3.867  0.00  0.00    +0.018 A 
ATOM     24  C   UNL     1      -6.494  -0.975   2.730  0.00  0.00    +0.021 A 
ATOM     25 BR   UNL     1      -6.805  -0.951   5.561  0.00  0.00    -0.050 Br
ENDBRANCH   2  19
BRANCH   4  26
ATOM     26  O   UNL     1      -3.663  -2.116  -0.137  0.00  0.00    -0.506 OA
ATOM     27  H   UNL     1      -2.719  -2.437  -0.204  0.00  0.00    +0.292 HD
ENDBRANCH   4  26
BRANCH   1  28
ATOM     28  C   UNL     1      -8.649   0.275   0.489  0.00  0.00    +0.107 C 
BRANCH  28  29
ATOM     29  C   UNL     1      -9.289   0.238  -0.900  0.00  0.00    +0.000 C 
BRANCH  29  30
ATOM     30  C   UNL     1     -10.807   0.105  -0.759  0.00  0.00    -0.078 C 
BRANCH  30  33
ATOM     31  C   UNL     1     -12.842  -0.293  -2.008  0.00  0.00    -0.097 C 
ATOM     32  C   UNL     1     -11.246   1.352  -2.787  0.00  0.00    -0.097 C 
ATOM     33  N   UNL     1     -11.408   0.050  -2.108  0.00  0.00    +0.376 N 
ATOM     34  H   UNL     1     -10.930  -0.674  -2.657  0.00  0.00    -0.083 HD
ENDBRANCH  30  33
ENDBRANCH  29  30
ENDBRANCH  28  29
ENDBRANCH   1  28
TORSDOF 7
