REMARK  Name = ZINC12343903
REMARK  9 active torsions:
REMARK  status: ('A' for Active; 'I' for Inactive)
REMARK    1  A    between atoms: C_2  and  C_3
REMARK    2  A    between atoms: C_3  and  O_4
REMARK    3  A    between atoms: O_4  and  C_5
REMARK    4  A    between atoms: C_10  and  C_11
REMARK    5  A    between atoms: C_12  and  C_13
REMARK    6  A    between atoms: C_12  and  C_15
REMARK    7  A    between atoms: C_16  and  C_27
REMARK    8  A    between atoms: C_17  and  N_26
REMARK    9  A    between atoms: N_18  and  C_20
REMARK                            x       y       z     vdW  Elec       q    Type
REMARK                         _______ _______ _______ _____ _____    ______ ____
ROOT
ATOM      1  C   UNL     1       0.569   5.575  -0.525  0.00  0.00    +0.123 A 
ATOM      2  C   UNL     1       1.863   5.631   0.167  0.00  0.00    +0.119 A 
ATOM      3  C   UNL     1       2.182   4.321   0.506  0.00  0.00    +0.138 A 
ATOM      4  N   UNL     1       1.178   3.527   0.055  0.00  0.00    -0.217 N 
ATOM      5  N   UNL     1       0.204   4.312  -0.567  0.00  0.00    -0.163 NA
ENDROOT
BRANCH   4   6
ATOM      6  C   UNL     1       1.123   2.134   0.197  0.00  0.00    +0.067 A 
ATOM      7  C   UNL     1      -0.097   1.504   0.404  0.00  0.00    +0.028 A 
ATOM      8  C   UNL     1      -0.147   0.130   0.543  0.00  0.00    +0.002 A 
ATOM      9  C   UNL     1       1.015  -0.616   0.476  0.00  0.00    +0.000 A 
ATOM     10  C   UNL     1       2.231   0.009   0.271  0.00  0.00    +0.002 A 
ATOM     11  C   UNL     1       2.288   1.382   0.131  0.00  0.00    +0.028 A 
ENDBRANCH   4   6
BRANCH   3  12
ATOM     12  N   UNL     1       3.315   3.903   1.177  0.00  0.00    -0.342 N 
ATOM     13  H   UNL     1       3.448   2.961   1.365  0.00  0.00    +0.144 HD
ATOM     14  H   UNL     1       3.978   4.552   1.459  0.00  0.00    +0.144 HD
ENDBRANCH   3  12
BRANCH   1  16
ATOM     15  C   UNL     1      -1.379   6.521  -1.694  0.00  0.00    +0.032 C 
ATOM     16  C   UNL     1      -0.184   6.724  -1.073  0.00  0.00    +0.081 C 
BRANCH  15  22
ATOM     17  C   UNL     1      -2.984   7.596  -3.265  0.00  0.00    +0.128 A 
ATOM     18  C   UNL     1      -3.755   8.684  -3.640  0.00  0.00    +0.047 A 
ATOM     19  C   UNL     1      -3.740   9.839  -2.882  0.00  0.00    +0.019 A 
ATOM     20  C   UNL     1      -2.961   9.919  -1.738  0.00  0.00    +0.019 A 
ATOM     21  C   UNL     1      -2.191   8.845  -1.345  0.00  0.00    +0.026 A 
ATOM     22  C   UNL     1      -2.196   7.668  -2.104  0.00  0.00    +0.019 A 
ATOM     23 BR   UNL     1      -2.954  11.507  -0.713  0.00  0.00    -0.050 Br
BRANCH  17  24
ATOM     24  O   UNL     1      -2.994   6.463  -4.013  0.00  0.00    -0.487 OA
BRANCH  24  25
ATOM     25  C   UNL     1      -3.819   6.463  -5.180  0.00  0.00    +0.256 C 
BRANCH  25  27
ATOM     26  C   UNL     1      -4.778   4.523  -6.310  0.00  0.00    +0.007 C 
ATOM     27  C   UNL     1      -3.702   5.132  -5.877  0.00  0.00    +0.006 C 
ENDBRANCH  25  27
ENDBRANCH  24  25
ENDBRANCH  17  24
ENDBRANCH  15  22
BRANCH  16  28
ATOM     28  C   UNL     1       0.344   8.050  -0.951  0.00  0.00    +0.101 C 
ATOM     29  N   UNL     1       0.763   9.101  -0.854  0.00  0.00    -0.191 NA
ENDBRANCH  16  28
ENDBRANCH   1  16
BRANCH   2  30
ATOM     30  C   UNL     1       2.639   6.803   0.443  0.00  0.00    +0.105 C 
ATOM     31  N   UNL     1       3.254   7.733   0.661  0.00  0.00    -0.191 NA
ENDBRANCH   2  30
TORSDOF 9
