REMARK  Name = ZINC06947392
REMARK  4 active torsions:
REMARK  status: ('A' for Active; 'I' for Inactive)
REMARK    1  A    between atoms: C_2  and  C_3
REMARK    2  A    between atoms: C_3  and  N_4
REMARK    3  A    between atoms: N_12  and  N_13
REMARK    4  A    between atoms: N_13  and  C_14
REMARK                            x       y       z     vdW  Elec       q    Type
REMARK                         _______ _______ _______ _____ _____    ______ ____
ROOT
ATOM      1  N   UNL     1      -1.318  -1.700  -1.126  0.00  0.00    -0.262 N 
ATOM      2  C   UNL     1      -1.814  -1.380  -2.385  0.00  0.00    +0.046 A 
ATOM      3  C   UNL     1      -2.375  -0.212  -2.888  0.00  0.00    +0.024 A 
ATOM      4  C   UNL     1      -2.797  -0.157  -4.201  0.00  0.00    +0.002 A 
ATOM      5  C   UNL     1      -2.667  -1.258  -5.031  0.00  0.00    +0.001 A 
ATOM      6  C   UNL     1      -2.112  -2.426  -4.549  0.00  0.00    +0.012 A 
ATOM      7  C   UNL     1      -1.684  -2.492  -3.228  0.00  0.00    +0.028 A 
ATOM      8  C   UNL     1      -1.062  -3.562  -2.414  0.00  0.00    +0.153 C 
ATOM      9  N   UNL     1      -0.754  -4.781  -2.797  0.00  0.00    -0.177 NA
ATOM     10  C   UNL     1      -0.859  -2.962  -1.085  0.00  0.00    +0.272 C 
ATOM     11  O   UNL     1      -0.364  -3.513  -0.119  0.00  0.00    -0.268 OA
ENDROOT
BRANCH   9  12
ATOM     12  N   UNL     1      -0.213  -5.602  -1.963  0.00  0.00    -0.237 N 
ATOM     13  H   UNL     1      -0.033  -5.320  -1.052  0.00  0.00    +0.174 HD
BRANCH  12  14
ATOM     14  C   UNL     1       0.114  -6.896  -2.369  0.00  0.00    +0.048 A 
ATOM     15  C   UNL     1      -0.138  -7.301  -3.675  0.00  0.00    +0.026 A 
ATOM     16  C   UNL     1       0.187  -8.582  -4.074  0.00  0.00    +0.017 A 
ATOM     17  C   UNL     1       0.762  -9.463  -3.176  0.00  0.00    +0.018 A 
ATOM     18  C   UNL     1       1.014  -9.064  -1.875  0.00  0.00    +0.017 A 
ATOM     19  C   UNL     1       0.698  -7.782  -1.471  0.00  0.00    +0.026 A 
ATOM     20 BR   UNL     1       1.205 -11.217  -3.727  0.00  0.00    -0.050 Br
ENDBRANCH  12  14
ENDBRANCH   9  12
BRANCH   1  21
ATOM     21  C   UNL     1      -1.293  -0.775   0.010  0.00  0.00    +0.140 C 
BRANCH  21  23
ATOM     22  C   UNL     1      -0.016   1.306   0.009  0.00  0.00    +0.005 C 
ATOM     23  C   UNL     1       0.002  -0.004   0.002  0.00  0.00    -0.015 C 
ENDBRANCH  21  23
ENDBRANCH   1  21
TORSDOF 4
