REMARK  Name = ZINC31035463
REMARK  4 active torsions:
REMARK  status: ('A' for Active; 'I' for Inactive)
REMARK    1  A    between atoms: C_6  and  C_7
REMARK    2  A    between atoms: C_7  and  N_8
REMARK    3  A    between atoms: N_11  and  C_12
REMARK    4  A    between atoms: C_12  and  C_13
REMARK                            x       y       z     vdW  Elec       q    Type
REMARK                         _______ _______ _______ _____ _____    ______ ____
ROOT
ATOM      1  N   UNL     1       6.051  -1.072   1.229  0.00  0.00    -0.295 N 
ATOM      2  C   UNL     1       7.355  -1.234   1.530  0.00  0.00    +0.300 C 
ATOM      3  O   UNL     1       7.746  -1.035   2.664  0.00  0.00    -0.253 OA
ATOM      4  N   UNL     1       8.224  -1.618   0.575  0.00  0.00    -0.299 N 
ATOM      5  H   UNL     1       5.697  -1.252   0.203  0.00  0.00    +0.151 HD
ATOM      6  H   UNL     1       7.870  -1.798  -0.451  0.00  0.00    +0.150 HD
ENDROOT
BRANCH   1   7
ATOM      7  C   UNL     1       5.106  -0.655   2.267  0.00  0.00    +0.141 C 
BRANCH   7  13
ATOM      8  C   UNL     1       2.886  -1.646   1.677  0.00  0.00    +0.009 A 
ATOM      9  C   UNL     1       1.617  -1.552   1.135  0.00  0.00    +0.050 A 
ATOM     10  C   UNL     1       1.183  -0.356   0.589  0.00  0.00    +0.166 A 
ATOM     11  C   UNL     1       2.029   0.752   0.587  0.00  0.00    +0.167 A 
ATOM     12  C   UNL     1       3.298   0.650   1.131  0.00  0.00    +0.054 A 
ATOM     13  C   UNL     1       3.724  -0.547   1.675  0.00  0.00    -0.027 A 
ATOM     14  O   UNL     1       1.376   1.797  -0.001  0.00  0.00    -0.453 OA
ATOM     15  C   UNL     1      -0.018   1.436   0.010  0.00  0.00    +0.466 C 
ATOM     16  O   UNL     1       0.002  -0.004   0.002  0.00  0.00    -0.453 OA
ENDBRANCH   7  13
ENDBRANCH   1   7
BRANCH   4  17
ATOM     17  C   UNL     1       9.641  -1.795   0.902  0.00  0.00    +0.112 C 
BRANCH  17  18
ATOM     18  C   UNL     1      10.404  -2.230  -0.351  0.00  0.00    -0.013 C 
ATOM     19  C   UNL     1       9.830  -3.553  -0.864  0.00  0.00    +0.012 C 
ATOM     20  C   UNL     1      10.593  -3.988  -2.116  0.00  0.00    -0.010 C 
ATOM     21  C   UNL     1      12.073  -4.173  -1.774  0.00  0.00    +0.007 C 
ATOM     22  C   UNL     1      12.646  -2.850  -1.262  0.00  0.00    -0.010 C 
ATOM     23  C   UNL     1      11.884  -2.415  -0.009  0.00  0.00    +0.012 C 
ATOM     24  C   UNL     1      12.503  -1.778  -2.344  0.00  0.00    +0.007 C 
ATOM     25  C   UNL     1      11.023  -1.594  -2.686  0.00  0.00    -0.010 C 
ATOM     26  C   UNL     1      10.449  -2.916  -3.199  0.00  0.00    +0.007 C 
ATOM     27  C   UNL     1      10.261  -1.158  -1.433  0.00  0.00    +0.012 C 
ENDBRANCH  17  18
ENDBRANCH   4  17
TORSDOF 4
