REMARK  Name = ZINC39696145
REMARK  10 active torsions:
REMARK  status: ('A' for Active; 'I' for Inactive)
REMARK    1  A    between atoms: C_1  and  C_2
REMARK    2  A    between atoms: C_2  and  C_3
REMARK    3  A    between atoms: C_6  and  C_9
REMARK    4  A    between atoms: C_9  and  C_11
REMARK    5  A    between atoms: C_9  and  N_12
REMARK    6  A    between atoms: C_13  and  C_15
REMARK    7  A    between atoms: C_26  and  C_28
REMARK    8  A    between atoms: C_28  and  C_30
REMARK    9  A    between atoms: C_28  and  C_32
REMARK   10  A    between atoms: C_30  and  C_31
REMARK                            x       y       z     vdW  Elec       q    Type
REMARK                         _______ _______ _______ _____ _____    ______ ____
ROOT
ATOM      1  C   UNL     1       2.948  -0.498   8.324  0.00  0.00    +0.100 C 
ATOM      2  C   UNL     1       1.586  -1.092   8.747  0.00  0.00    +0.121 C 
ATOM      3  N   UNL     1       1.923  -2.104   9.776  0.00  0.00    -0.300 N 
ATOM      4  C   UNL     1       3.010  -1.478  10.566  0.00  0.00    +0.115 C 
ATOM      5  C   UNL     1       3.878  -0.750   9.522  0.00  0.00    -0.004 C 
ATOM      6  C   UNL     1       4.384   0.575  10.086  0.00  0.00    -0.010 C 
ATOM      7  C   UNL     1       5.353   0.296  11.239  0.00  0.00    -0.082 C 
ATOM      8  N   UNL     1       6.477  -0.512  10.751  0.00  0.00    +0.379 N 
ATOM      9  C   UNL     1       5.993  -1.821  10.296  0.00  0.00    -0.082 C 
ATOM     10  C   UNL     1       5.051  -1.632   9.104  0.00  0.00    -0.010 C 
ATOM     11  C   UNL     1       1.366  -3.319   9.954  0.00  0.00    +0.223 C 
ATOM     12  O   UNL     1       0.541  -3.729   9.165  0.00  0.00    -0.275 OA
ATOM     13  H   UNL     1       6.925  -0.035   9.983  0.00  0.00    -0.086 HD
ATOM     14  H   UNL     1       7.144  -0.642  11.497  0.00  0.00    -0.086 HD
ENDROOT
BRANCH   1  16
ATOM     15  N   UNL     1       4.247  -0.538   6.219  0.00  0.00    -0.308 N 
ATOM     16  C   UNL     1       3.469  -1.201   7.097  0.00  0.00    +0.219 C 
ATOM     17  O   UNL     1       3.188  -2.365   6.901  0.00  0.00    -0.275 OA
ATOM     18  H   UNL     1       4.471   0.393   6.376  0.00  0.00    +0.149 HD
BRANCH  15  19
ATOM     19  C   UNL     1       4.753  -1.222   5.027  0.00  0.00    +0.100 C 
ATOM     20  C   UNL     1       3.701  -1.160   3.918  0.00  0.00    +0.033 C 
BRANCH  19  24
ATOM     21  C   UNL     1       8.334   0.692   3.699  0.00  0.00    -0.048 A 
ATOM     22  C   UNL     1       8.236  -0.687   3.670  0.00  0.00    +0.004 A 
ATOM     23  C   UNL     1       7.077  -1.306   4.100  0.00  0.00    +0.006 A 
ATOM     24  C   UNL     1       6.017  -0.547   4.559  0.00  0.00    -0.027 A 
ATOM     25  C   UNL     1       6.116   0.832   4.589  0.00  0.00    +0.006 A 
ATOM     26  C   UNL     1       7.276   1.451   4.163  0.00  0.00    +0.004 A 
BRANCH  21  28
ATOM     27  C   UNL     1      10.560   1.523   4.409  0.00  0.00    +0.009 C 
ATOM     28  C   UNL     1       9.597   1.367   3.230  0.00  0.00    +0.032 C 
ENDBRANCH  21  28
ENDBRANCH  19  24
ENDBRANCH  15  19
ENDBRANCH   1  16
BRANCH  11  29
ATOM     29  C   UNL     1       1.769  -4.167  11.132  0.00  0.00    +0.105 C 
BRANCH  29  30
ATOM     30  C   UNL     1       1.128  -5.526  11.015  0.00  0.00    -0.036 A 
ATOM     31  C   UNL     1      -0.249  -5.639  10.971  0.00  0.00    +0.004 A 
ATOM     32  C   UNL     1      -0.836  -6.886  10.864  0.00  0.00    +0.000 A 
ATOM     33  C   UNL     1      -0.047  -8.019  10.800  0.00  0.00    +0.000 A 
ATOM     34  C   UNL     1       1.330  -7.906  10.843  0.00  0.00    +0.000 A 
ATOM     35  C   UNL     1       1.918  -6.659  10.946  0.00  0.00    +0.004 A 
ENDBRANCH  29  30
BRANCH  29  36
ATOM     36  C   UNL     1       1.307  -3.495  12.426  0.00  0.00    +0.014 C 
ATOM     37  C   UNL     1       1.841  -4.279  13.627  0.00  0.00    +0.005 C 
ENDBRANCH  29  36
ENDBRANCH  11  29
TORSDOF 7
