REMARK  Name = ZINC38635670
REMARK  8 active torsions:
REMARK  status: ('A' for Active; 'I' for Inactive)
REMARK    1  A    between atoms: C_1  and  C_2
REMARK    2  A    between atoms: C_2  and  C_4
REMARK    3  A    between atoms: C_2  and  C_38
REMARK    4  A    between atoms: C_4  and  N_5
REMARK    5  A    between atoms: N_7  and  C_31
REMARK    6  A    between atoms: N_13  and  C_16
REMARK    7  A    between atoms: C_19  and  C_22
REMARK    8  A    between atoms: C_19  and  C_24
REMARK                            x       y       z     vdW  Elec       q    Type
REMARK                         _______ _______ _______ _____ _____    ______ ____
ROOT
ATOM      1  N   UNL     1       2.148  -0.104   1.172  0.00  0.00    -0.283 N 
ATOM      2  C   UNL     1       3.215  -0.888   0.551  0.00  0.00    +0.217 C 
ATOM      3  N   UNL     1       4.470  -0.137   0.689  0.00  0.00    -0.300 N 
ATOM      4  C   UNL     1       4.121   1.099   1.399  0.00  0.00    +0.109 C 
ATOM      5  C   UNL     1       2.640   1.046   1.663  0.00  0.00    +0.240 C 
ATOM      6  O   UNL     1       1.994   1.902   2.230  0.00  0.00    -0.273 OA
ATOM      7  C   UNL     1       4.454   2.313   0.531  0.00  0.00    +0.017 C 
ATOM      8  C   UNL     1       4.144   3.592   1.313  0.00  0.00    -0.076 C 
ATOM      9  N   UNL     1       4.944   3.623   2.543  0.00  0.00    +0.382 N 
ATOM     10  C   UNL     1       4.566   2.503   3.413  0.00  0.00    -0.076 C 
ATOM     11  C   UNL     1       4.893   1.179   2.717  0.00  0.00    +0.017 C 
ATOM     12  H   UNL     1       5.922   3.549   2.309  0.00  0.00    -0.081 HD
ENDROOT
BRANCH   3  13
ATOM     13  C   UNL     1       5.736  -0.521   0.236  0.00  0.00    +0.032 A 
ATOM     14  C   UNL     1       6.831   0.305   0.452  0.00  0.00    +0.026 A 
ATOM     15  C   UNL     1       8.081  -0.076   0.005  0.00  0.00    +0.040 A 
ATOM     16  C   UNL     1       8.242  -1.281  -0.658  0.00  0.00    +0.124 A 
ATOM     17  C   UNL     1       7.152  -2.106  -0.874  0.00  0.00    +0.040 A 
ATOM     18  C   UNL     1       5.901  -1.731  -0.424  0.00  0.00    +0.026 A 
ATOM     19  F   UNL     1       9.466  -1.652  -1.095  0.00  0.00    -0.205 F 
ENDBRANCH   3  13
BRANCH   9  20
ATOM     20  C   UNL     1       4.706   4.890   3.248  0.00  0.00    -0.068 C 
ATOM     21  C   UNL     1       5.110   6.058   2.347  0.00  0.00    -0.013 C 
ATOM     22  C   UNL     1       6.595   5.941   1.994  0.00  0.00    +0.025 C 
ATOM     23  C   UNL     1       7.428   5.975   3.277  0.00  0.00    +0.082 C 
ATOM     24  C   UNL     1       7.023   4.806   4.179  0.00  0.00    +0.025 C 
ATOM     25  C   UNL     1       5.539   4.923   4.531  0.00  0.00    -0.013 C 
BRANCH  23  26
ATOM     26  C   UNL     1       8.889   5.859   2.930  0.00  0.00    -0.027 A 
ATOM     27  C   UNL     1       9.279   5.751   1.609  0.00  0.00    +0.008 A 
ATOM     28  C   UNL     1      10.620   5.646   1.289  0.00  0.00    +0.038 A 
ATOM     29  C   UNL     1      11.572   5.648   2.294  0.00  0.00    +0.123 A 
ATOM     30  C   UNL     1      11.181   5.756   3.617  0.00  0.00    +0.038 A 
ATOM     31  C   UNL     1       9.840   5.867   3.934  0.00  0.00    +0.008 A 
ATOM     32  F   UNL     1      12.883   5.545   1.983  0.00  0.00    -0.205 F 
ENDBRANCH  23  26
BRANCH  23  33
ATOM     33  C   UNL     1       7.190   7.244   3.983  0.00  0.00    +0.074 C 
ATOM     34  N   UNL     1       7.006   8.224   4.529  0.00  0.00    -0.196 NA
ENDBRANCH  23  33
ENDBRANCH   9  20
BRANCH   1  35
ATOM     35  C   UNL     1       0.742  -0.511   1.242  0.00  0.00    +0.127 C 
BRANCH  35  37
ATOM     36  C   UNL     1      -0.019   1.526   0.010  0.00  0.00    +0.025 C 
ATOM     37  C   UNL     1       0.002  -0.004   0.002  0.00  0.00    +0.106 C 
BRANCH  37  38
ATOM     38  C   UNL     1      -1.379  -0.514   0.013  0.00  0.00    +0.067 C 
ATOM     39  N   UNL     1      -2.445  -0.907   0.021  0.00  0.00    -0.196 NA
ENDBRANCH  37  38
ENDBRANCH  35  37
ENDBRANCH   1  35
TORSDOF 7
