REMARK  Name = ZINC09861364
REMARK  5 active torsions:
REMARK  status: ('A' for Active; 'I' for Inactive)
REMARK    1  A    between atoms: C_1  and  C_2
REMARK    2  A    between atoms: C_2  and  C_36
REMARK    3  A    between atoms: C_6  and  C_24
REMARK    4  A    between atoms: C_12  and  C_16
REMARK    5  A    between atoms: C_16  and  C_18
REMARK                            x       y       z     vdW  Elec       q    Type
REMARK                         _______ _______ _______ _____ _____    ______ ____
ROOT
ATOM      1  C   UNL     1      -4.102  -7.656   3.570  0.00  0.00    +0.011 C 
ATOM      2  C   UNL     1      -2.798  -7.252   4.261  0.00  0.00    -0.023 C 
ATOM      3  C   UNL     1      -1.612  -7.553   3.347  0.00  0.00    +0.058 C 
ATOM      4  C   UNL     1      -1.757  -6.784   2.043  0.00  0.00    +0.017 C 
ATOM      5  C   UNL     1      -2.329  -5.571   2.033  0.00  0.00    +0.036 C 
ATOM      6  C   UNL     1      -2.496  -4.679   0.825  0.00  0.00    +0.136 C 
ATOM      7  N   UNL     1      -2.220  -5.329  -0.438  0.00  0.00    -0.331 N 
ATOM      8  C   UNL     1      -0.951  -5.793  -0.744  0.00  0.00    +0.049 A 
ATOM      9  C   UNL     1      -0.205  -5.225  -1.771  0.00  0.00    +0.025 A 
ATOM     10  C   UNL     1       1.072  -5.677  -2.019  0.00  0.00    +0.013 A 
ATOM     11  C   UNL     1       1.622  -6.702  -1.240  0.00  0.00    +0.024 A 
ATOM     12  C   UNL     1       0.863  -7.285  -0.217  0.00  0.00    +0.036 A 
ATOM     13  C   UNL     1      -0.422  -6.838   0.006  0.00  0.00    +0.053 A 
ATOM     14  N   UNL     1      -1.257  -7.423   0.954  0.00  0.00    -0.316 N 
ATOM     15  C   UNL     1      -2.849  -5.017   3.227  0.00  0.00    +0.163 C 
ATOM     16  O   UNL     1      -3.352  -3.911   3.188  0.00  0.00    -0.292 OA
ATOM     17  C   UNL     1      -2.803  -5.743   4.537  0.00  0.00    +0.086 C 
ATOM     18  C   UNL     1      -2.647  -8.019   5.576  0.00  0.00    +0.011 C 
ATOM     19  H   UNL     1      -2.936  -5.443  -1.082  0.00  0.00    +0.147 HD
ATOM     20  H   UNL     1      -1.499  -8.354   0.827  0.00  0.00    +0.152 HD
ENDROOT
BRANCH   6  21
ATOM     21  C   UNL     1      -1.568  -3.500   0.969  0.00  0.00    -0.019 A 
ATOM     22  C   UNL     1      -2.088  -2.228   1.119  0.00  0.00    +0.009 A 
ATOM     23  C   UNL     1      -1.241  -1.143   1.252  0.00  0.00    +0.050 A 
ATOM     24  C   UNL     1       0.132  -1.329   1.235  0.00  0.00    +0.166 A 
ATOM     25  C   UNL     1       0.655  -2.611   1.084  0.00  0.00    +0.167 A 
ATOM     26  C   UNL     1      -0.200  -3.693   0.951  0.00  0.00    +0.055 A 
ATOM     27  O   UNL     1       2.018  -2.530   1.099  0.00  0.00    -0.453 OA
ATOM     28  C   UNL     1       2.324  -1.145   0.851  0.00  0.00    +0.466 C 
ATOM     29  O   UNL     1       1.166  -0.446   1.345  0.00  0.00    -0.453 OA
ENDBRANCH   6  21
BRANCH  11  30
ATOM     30  C   UNL     1       2.997  -7.166  -1.495  0.00  0.00    +0.193 C 
ATOM     31  O   UNL     1       3.420  -7.220  -2.634  0.00  0.00    -0.287 OA
BRANCH  30  32
ATOM     32  C   UNL     1       3.863  -7.566  -0.366  0.00  0.00    +0.022 A 
ATOM     33  C   UNL     1       3.446  -7.350   0.949  0.00  0.00    +0.012 A 
ATOM     34  C   UNL     1       4.256  -7.732   1.998  0.00  0.00    +0.001 A 
ATOM     35  C   UNL     1       5.486  -8.317   1.749  0.00  0.00    +0.000 A 
ATOM     36  C   UNL     1       5.908  -8.529   0.449  0.00  0.00    +0.001 A 
ATOM     37  C   UNL     1       5.105  -8.158  -0.610  0.00  0.00    +0.012 A 
ENDBRANCH  30  32
ENDBRANCH  11  30
TORSDOF 3
