REMARK  Name = ZINC05345393
REMARK  12 active torsions:
REMARK  status: ('A' for Active; 'I' for Inactive)
REMARK    1  A    between atoms: CD1_1  and  CG1_2
REMARK    2  A    between atoms: CG1_2  and  CB_3
REMARK    3  A    between atoms: CB_3  and  CG2_5
REMARK    4  A    between atoms: CB_3  and  CA_6
REMARK    5  A    between atoms: CA_6  and  C_8
REMARK    6  A    between atoms: CA_6  and  N_10
REMARK    7  A    between atoms: N_21  and  CA_22
REMARK    8  A    between atoms: CA_22  and  CB_24
REMARK    9  A    between atoms: CA_22  and  C_29
REMARK   10  A    between atoms: CB_24  and  CG2_26
REMARK   11  A    between atoms: CB_24  and  CG1_27
REMARK   12  A    between atoms: CG1_27  and  CD1_28
REMARK                            x       y       z     vdW  Elec       q    Type
REMARK                         _______ _______ _______ _____ _____    ______ ____
ROOT
ATOM      1  N   ILE A   1      -4.176   0.840   2.660  0.00  0.00    -0.286 N 
ATOM      2  C   UNK A   0      -4.750   0.593   3.854  0.00  0.00    +0.303 C 
ATOM      3  O   UNK A   0      -4.127   0.789   4.880  0.00  0.00    -0.253 OA
ATOM      4  N   UNK A   0      -6.014   0.128   3.912  0.00  0.00    -0.283 N 
ATOM      5  C   UNK A   0      -6.740  -0.216   2.681  0.00  0.00    +0.128 C 
ATOM      6  C   UNK A   0      -7.228  -1.670   2.796  0.00  0.00    +0.128 C 
ATOM      7  N   UNK A   0      -7.906  -1.836   4.089  0.00  0.00    -0.283 N 
ATOM      8  C   UNK A   0      -7.181  -1.487   5.319  0.00  0.00    +0.128 C 
ATOM      9  C   UNK A   0      -6.692  -0.038   5.205  0.00  0.00    +0.128 C 
ATOM     10  C   UNK A   0      -9.170  -2.301   4.146  0.00  0.00    +0.303 C 
ATOM     11  O   UNK A   0      -9.754  -2.345   5.212  0.00  0.00    -0.253 OA
ATOM     12  N   ILE A   1      -9.787  -2.716   3.022  0.00  0.00    -0.286 N 
ATOM     13  H   ILE A   1      -4.645   0.615   1.841  0.00  0.00    +0.151 HD
ATOM     14  H   ILE A   1      -9.349  -2.614   2.163  0.00  0.00    +0.151 HD
ENDROOT
BRANCH   1  15
ATOM     15  CA  ILE A   1      -2.844   1.447   2.599  0.00  0.00    +0.190 C 
BRANCH  15  16
ATOM     16  C   ILE A   1      -2.971   2.946   2.686  0.00  0.00    +0.376 C 
ATOM     17  O   ILE A   1      -4.062   3.455   2.788  0.00  0.00    -0.244 OA
ATOM     18  OXT ILE A   1      -1.873   3.716   2.649  0.00  0.00    -0.244 OA
ENDBRANCH  15  16
BRANCH  15  19
ATOM     19  CB  ILE A   1      -2.171   1.068   1.279  0.00  0.00    +0.017 C 
ATOM     20  CG2 ILE A   1      -2.950   1.682   0.114  0.00  0.00    +0.010 C 
BRANCH  19  22
ATOM     21  CD1 ILE A   1      -0.023   1.112   0.004  0.00  0.00    +0.004 C 
ATOM     22  CG1 ILE A   1      -0.735   1.597   1.268  0.00  0.00    +0.002 C 
ENDBRANCH  19  22
ENDBRANCH  15  19
ENDBRANCH   1  15
BRANCH  12  23
ATOM     23  CA  ILE A   1     -11.118  -3.323   3.099  0.00  0.00    +0.190 C 
BRANCH  23  24
ATOM     24  C   ILE A   1     -10.984  -4.794   3.397  0.00  0.00    +0.376 C 
ATOM     25  O   ILE A   1      -9.889  -5.286   3.531  0.00  0.00    -0.244 OA
ATOM     26  OXT ILE A   1     -12.082  -5.558   3.512  0.00  0.00    -0.244 OA
ENDBRANCH  23  24
BRANCH  23  27
ATOM     27  CB  ILE A   1     -11.841  -3.137   1.763  0.00  0.00    +0.017 C 
ATOM     28  CG2 ILE A   1     -11.103  -3.915   0.671  0.00  0.00    +0.010 C 
BRANCH  27  29
ATOM     29  CG1 ILE A   1     -13.274  -3.658   1.881  0.00  0.00    +0.002 C 
ATOM     30  CD1 ILE A   1     -14.034  -3.359   0.587  0.00  0.00    +0.004 C 
ENDBRANCH  27  29
ENDBRANCH  23  27
ENDBRANCH  12  23
TORSDOF 8
