REMARK  Name = ZINC08324006
REMARK  5 active torsions:
REMARK  status: ('A' for Active; 'I' for Inactive)
REMARK    1  A    between atoms: C_1  and  C_2
REMARK    2  A    between atoms: C_2  and  C_4
REMARK    3  A    between atoms: C_2  and  N_14
REMARK    4  A    between atoms: N_6  and  C_7
REMARK    5  A    between atoms: C_7  and  C_8
REMARK                            x       y       z     vdW  Elec       q    Type
REMARK                         _______ _______ _______ _____ _____    ______ ____
ROOT
ATOM      1  N   UNL     1       5.501   0.141  -1.233  0.00  0.00    -0.212 N 
ATOM      2  C   UNL     1       4.358  -0.549  -1.421  0.00  0.00    +0.252 C 
ATOM      3  O   UNL     1       3.924  -0.977  -2.470  0.00  0.00    -0.272 OA
ATOM      4  C   UNL     1       3.731  -0.678  -0.051  0.00  0.00    +0.138 C 
ATOM      5  C   UNL     1       3.615  -2.145   0.342  0.00  0.00    +0.040 C 
ATOM      6  C   UNL     1       2.489  -2.781  -0.484  0.00  0.00    +0.008 C 
ATOM      7  C   UNL     1       1.158  -2.198  -0.016  0.00  0.00    +0.035 C 
ATOM      8  C   UNL     1       1.207  -0.693  -0.015  0.00  0.00    -0.042 A 
ATOM      9  C   UNL     1       2.394   0.007  -0.025  0.00  0.00    -0.012 A 
ATOM     10  C   UNL     1       2.373   1.395  -0.015  0.00  0.00    +0.006 A 
ATOM     11  C   UNL     1       1.174   2.078   0.002  0.00  0.00    +0.000 A 
ATOM     12  C   UNL     1      -0.017   1.376   0.010  0.00  0.00    +0.000 A 
ATOM     13  C   UNL     1       0.002  -0.004   0.002  0.00  0.00    +0.004 A 
ATOM     14  N   UNL     1       4.676   0.015   0.837  0.00  0.00    -0.281 N 
ATOM     15  C   UNL     1       5.678   0.460   0.055  0.00  0.00    +0.310 C 
ATOM     16  O   UNL     1       6.636   1.081   0.472  0.00  0.00    -0.252 OA
ATOM     17  H   UNL     1       4.593   0.130   1.796  0.00  0.00    +0.152 HD
ENDROOT
BRANCH   1  19
ATOM     18  C   UNL     1       6.569   2.020  -2.378  0.00  0.00    +0.038 C 
ATOM     19  C   UNL     1       6.434   0.498  -2.305  0.00  0.00    +0.168 C 
BRANCH  19  20
ATOM     20  C   UNL     1       7.782  -0.113  -2.021  0.00  0.00    +0.234 C 
ATOM     21  O   UNL     1       7.947  -0.780  -1.021  0.00  0.00    -0.274 OA
ATOM     22  N   UNL     1       8.804   0.082  -2.877  0.00  0.00    -0.314 N 
ATOM     23  H   UNL     1       8.672   0.616  -3.676  0.00  0.00    +0.149 HD
BRANCH  22  24
ATOM     24  C   UNL     1      10.115  -0.511  -2.601  0.00  0.00    +0.107 C 
BRANCH  24  25
ATOM     25  C   UNL     1      11.089  -0.139  -3.720  0.00  0.00    +0.006 C 
ATOM     26  C   UNL     1      10.626  -0.775  -5.032  0.00  0.00    +0.005 C 
ATOM     27  C   UNL     1      11.600  -0.403  -6.152  0.00  0.00    +0.000 C 
ATOM     28  C   UNL     1      12.998  -0.916  -5.803  0.00  0.00    +0.000 C 
ATOM     29  C   UNL     1      13.462  -0.281  -4.490  0.00  0.00    +0.000 C 
ATOM     30  C   UNL     1      12.488  -0.653  -3.371  0.00  0.00    +0.005 C 
ENDBRANCH  24  25
ENDBRANCH  22  24
ENDBRANCH  19  20
ENDBRANCH   1  19
TORSDOF 4
