REMARK  Name = ZINC46022832
REMARK  6 active torsions:
REMARK  status: ('A' for Active; 'I' for Inactive)
REMARK    1  A    between atoms: C_1  and  N_2
REMARK    2  A    between atoms: C_3  and  C_5
REMARK    3  A    between atoms: C_9  and  N_11
REMARK    4  A    between atoms: C_12  and  C_14
REMARK    5  A    between atoms: C_15  and  C_16
REMARK    6  A    between atoms: C_20  and  N_22
REMARK                            x       y       z     vdW  Elec       q    Type
REMARK                         _______ _______ _______ _____ _____    ______ ____
ROOT
ATOM      1  N   UNL     1       0.962  -4.898  -3.738  0.00  0.00    -0.281 N 
ATOM      2  C   UNL     1       1.645  -4.250  -4.702  0.00  0.00    +0.241 C 
ATOM      3  O   UNL     1       1.423  -3.073  -4.920  0.00  0.00    -0.270 OA
ATOM      4  H   UNL     1       1.190  -5.814  -3.514  0.00  0.00    +0.155 HD
ENDROOT
BRANCH   1   9
ATOM      5  C   UNL     1      -1.774  -2.547  -2.978  0.00  0.00    +0.039 A 
ATOM      6  C   UNL     1      -2.133  -2.973  -1.698  0.00  0.00    +0.014 A 
ATOM      7  C   UNL     1      -1.467  -4.028  -1.110  0.00  0.00    +0.022 A 
ATOM      8  C   UNL     1      -0.441  -4.667  -1.784  0.00  0.00    +0.062 A 
ATOM      9  C   UNL     1      -0.076  -4.249  -3.060  0.00  0.00    +0.053 A 
ATOM     10  C   UNL     1      -0.743  -3.194  -3.661  0.00  0.00    +0.037 A 
ATOM     11 CL   UNL     1       0.393  -5.993  -1.036  0.00  0.00    -0.082 Cl
BRANCH   5  14
ATOM     12  C   UNL     1      -4.188   0.327  -3.576  0.00  0.00    +0.128 C 
ATOM     13  N   UNL     1      -3.481  -0.793  -2.949  0.00  0.00    -0.314 N 
ATOM     14  C   UNL     1      -2.486  -1.417  -3.611  0.00  0.00    +0.244 C 
ATOM     15  O   UNL     1      -2.175  -1.050  -4.727  0.00  0.00    -0.270 OA
ATOM     16  H   UNL     1      -3.730  -1.086  -2.059  0.00  0.00    +0.149 HD
ENDBRANCH   5  14
ENDBRANCH   1   9
BRANCH   2  17
ATOM     17  C   UNL     1       2.654  -4.962  -5.489  0.00  0.00    +0.068 C 
ATOM     18  C   UNL     1       3.429  -4.286  -6.361  0.00  0.00    +0.013 C 
BRANCH  18  19
ATOM     19  C   UNL     1       3.418  -2.814  -6.368  0.00  0.00    -0.023 A 
ATOM     20  C   UNL     1       3.529  -2.104  -5.168  0.00  0.00    +0.009 A 
ATOM     21  C   UNL     1       3.518  -0.726  -5.183  0.00  0.00    +0.023 A 
ATOM     22  C   UNL     1       3.397  -0.044  -6.383  0.00  0.00    +0.071 A 
ATOM     23  C   UNL     1       3.286  -0.740  -7.575  0.00  0.00    +0.145 A 
ATOM     24  C   UNL     1       3.302  -2.119  -7.576  0.00  0.00    +0.042 A 
ATOM     25 CL   UNL     1       3.384   1.692  -6.391  0.00  0.00    -0.081 Cl
BRANCH  23  26
ATOM     26  N   UNL     1       3.156  -0.002  -8.851  0.00  0.00    +0.058 N 
ATOM     27  O   UNL     1       3.059  -0.609  -9.893  0.00  0.00    -0.126 OA
ATOM     28  O   UNL     1       3.146   1.207  -8.853  0.00  0.00    -0.126 OA
ENDBRANCH  23  26
ENDBRANCH  18  19
ENDBRANCH   2  17
TORSDOF 5
