REMARK  Name = ZINC53045678
REMARK  5 active torsions:
REMARK  status: ('A' for Active; 'I' for Inactive)
REMARK    1  A    between atoms: C_2  and  C_8
REMARK    2  A    between atoms: C_8  and  N_9
REMARK    3  A    between atoms: N_9  and  C_10
REMARK    4  A    between atoms: C_10  and  C_15
REMARK    5  A    between atoms: C_15  and  O_16
REMARK                            x       y       z     vdW  Elec       q    Type
REMARK                         _______ _______ _______ _____ _____    ______ ____
ROOT
ATOM      1  N   UNL     1       1.849   3.736   1.499  0.00  0.00    +0.389 N 
ATOM      2  H   UNL     1       2.551   3.231   2.019  0.00  0.00    -0.084 HD
ATOM      3  H   UNL     1       1.705   3.288   0.607  0.00  0.00    -0.084 HD
ENDROOT
BRANCH   1   4
ATOM      4  C   UNL     1       2.298   5.118   1.286  0.00  0.00    -0.044 C 
ATOM      5  C   UNL     1       3.581   5.131   0.437  0.00  0.00    -0.010 C 
ATOM      6  C   UNL     1       4.675   5.791   1.301  0.00  0.00    -0.001 C 
ATOM      7  C   UNL     1       4.190   5.579   2.756  0.00  0.00    -0.001 C 
ATOM      8  C   UNL     1       2.658   5.771   2.637  0.00  0.00    -0.010 C 
BRANCH   4   9
ATOM      9  C   UNL     1       1.200   5.924   0.590  0.00  0.00    +0.143 C 
BRANCH   9  10
ATOM     10  O   UNL     1       0.809   5.258  -0.612  0.00  0.00    -0.396 OA
ATOM     11  H   UNL     1       0.114   5.713  -1.106  0.00  0.00    +0.209 HD
ENDBRANCH   9  10
ENDBRANCH   4   9
ENDBRANCH   1   4
BRANCH   1  12
ATOM     12  C   UNL     1       0.589   3.741   2.254  0.00  0.00    -0.006 C 
BRANCH  12  14
ATOM     13  C   UNL     1       0.373   1.482   3.395  0.00  0.00    +0.059 A 
ATOM     14  C   UNL     1       0.081   2.329   2.392  0.00  0.00    +0.091 A 
ATOM     15  O   UNL     1      -0.742   1.704   1.533  0.00  0.00    -0.454 OA
ATOM     16  C   UNL     1      -0.985   0.457   1.972  0.00  0.00    +0.184 A 
ATOM     17  C   UNL     1      -0.314   0.275   3.126  0.00  0.00    +0.070 A 
ATOM     18 BR   UNL     1      -0.292  -1.293   4.182  0.00  0.00    -0.046 Br
ATOM     19 BR   UNL     1      -2.084  -0.823   1.118  0.00  0.00    -0.007 Br
ENDBRANCH  12  14
ENDBRANCH   1  12
TORSDOF 5
