REMARK  Name = ZINC44808078
REMARK  5 active torsions:
REMARK  status: ('A' for Active; 'I' for Inactive)
REMARK    1  A    between atoms: C_1  and  C_2
REMARK    2  A    between atoms: C_5  and  N_8
REMARK    3  A    between atoms: C_9  and  C_11
REMARK    4  A    between atoms: C_11  and  C_12
REMARK    5  A    between atoms: N_18  and  C_19
REMARK                            x       y       z     vdW  Elec       q    Type
REMARK                         _______ _______ _______ _____ _____    ______ ____
ROOT
ATOM      1  C   UNL     1       0.269  -6.923   2.276  0.00  0.00    +0.149 C 
ATOM      2  C   UNL     1       0.530  -8.407   2.479  0.00  0.00    +0.232 C 
ATOM      3  O   UNL     1       1.514  -8.955   2.029  0.00  0.00    -0.274 OA
ATOM      4  N   UNL     1      -0.382  -9.062   3.177  0.00  0.00    -0.264 N 
ATOM      5  C   UNL     1      -1.503  -8.445   3.693  0.00  0.00    +0.161 C 
ATOM      6  N   UNL     1      -2.471  -8.982   4.396  0.00  0.00    -0.223 NA
ATOM      7  S   UNL     1      -1.326  -6.742   3.177  0.00  0.00    -0.077 S 
ATOM      8  H   UNL     1      -0.257 -10.011   3.333  0.00  0.00    +0.157 HD
ENDROOT
BRANCH   6   9
ATOM      9  C   UNL     1      -3.522  -8.209   4.817  0.00  0.00    +0.102 A 
ATOM     10  C   UNL     1      -3.284  -6.994   5.460  0.00  0.00    +0.031 A 
ATOM     11  C   UNL     1      -4.346  -6.220   5.882  0.00  0.00    +0.002 A 
ATOM     12  C   UNL     1      -5.645  -6.647   5.670  0.00  0.00    +0.003 A 
ATOM     13  C   UNL     1      -5.890  -7.851   5.033  0.00  0.00    +0.040 A 
ATOM     14  C   UNL     1      -4.836  -8.633   4.601  0.00  0.00    +0.149 A 
ATOM     15  F   UNL     1      -5.076  -9.806   3.974  0.00  0.00    -0.203 F 
ENDBRANCH   6   9
BRANCH   1  16
ATOM     16  C   UNL     1       0.108  -6.587   0.792  0.00  0.00    +0.120 C 
BRANCH  16  18
ATOM     17  N   UNL     1      -0.289  -4.576  -0.594  0.00  0.00    -0.285 N 
ATOM     18  C   UNL     1      -0.120  -5.105   0.634  0.00  0.00    +0.219 C 
ATOM     19  O   UNL     1      -0.151  -4.389   1.613  0.00  0.00    -0.275 OA
ATOM     20  H   UNL     1      -0.340  -5.157  -1.369  0.00  0.00    +0.155 HD
BRANCH  17  25
ATOM     21  C   UNL     1      -0.707   1.046  -1.229  0.00  0.00    +0.044 C 
ATOM     22  C   UNL     1      -0.596  -0.448  -1.060  0.00  0.00    -0.050 A 
ATOM     23  C   UNL     1       0.221  -0.972  -0.075  0.00  0.00    +0.005 A 
ATOM     24  C   UNL     1       0.325  -2.340   0.082  0.00  0.00    +0.023 A 
ATOM     25  C   UNL     1      -0.393  -3.190  -0.750  0.00  0.00    +0.033 A 
ATOM     26  C   UNL     1      -1.213  -2.660  -1.738  0.00  0.00    +0.023 A 
ATOM     27  C   UNL     1      -1.316  -1.291  -1.887  0.00  0.00    +0.005 A 
ENDBRANCH  17  25
ENDBRANCH  16  18
ENDBRANCH   1  16
TORSDOF 4
