REMARK  Name = ZINC38891802
REMARK  9 active torsions:
REMARK  status: ('A' for Active; 'I' for Inactive)
REMARK    1  A    between atoms: C_1  and  C_2
REMARK    2  A    between atoms: C_5  and  C_8
REMARK    3  A    between atoms: C_10  and  C_13
REMARK    4  A    between atoms: C_13  and  N_14
REMARK    5  A    between atoms: C_18  and  C_21
REMARK    6  A    between atoms: N_23  and  C_24
REMARK    7  A    between atoms: C_24  and  C_25
REMARK    8  A    between atoms: C_28  and  N_31
REMARK    9  A    between atoms: C_35  and  C_38
REMARK                            x       y       z     vdW  Elec       q    Type
REMARK                         _______ _______ _______ _____ _____    ______ ____
ROOT
ATOM      1  N   UNL     1      -1.276  -7.918   1.896  0.00  0.00    +0.386 N 
ATOM      2  C   UNL     1      -1.952  -6.832   2.617  0.00  0.00    -0.078 C 
ATOM      3  C   UNL     1      -3.414  -7.213   2.865  0.00  0.00    -0.018 C 
ATOM      4  C   UNL     1      -3.467  -8.494   3.702  0.00  0.00    +0.009 C 
ATOM      5  C   UNL     1      -2.695  -9.599   2.975  0.00  0.00    +0.058 C 
ATOM      6  C   UNL     1      -1.260  -9.130   2.723  0.00  0.00    -0.065 C 
ATOM      7  H   UNL     1      -1.768  -8.105   1.036  0.00  0.00    -0.081 HD
ENDROOT
BRANCH   5   8
ATOM      8  C   UNL     1      -2.677 -10.843   3.826  0.00  0.00    +0.215 C 
ATOM      9  O   UNL     1      -1.620 -11.312   4.192  0.00  0.00    -0.276 OA
ATOM     10  N   UNL     1      -3.835 -11.434   4.180  0.00  0.00    -0.311 N 
ATOM     11  H   UNL     1      -4.681 -11.059   3.887  0.00  0.00    +0.149 HD
BRANCH  10  12
ATOM     12  C   UNL     1      -3.818 -12.643   5.007  0.00  0.00    +0.139 C 
BRANCH  12  13
ATOM     13  C   UNL     1      -5.231 -13.101   5.258  0.00  0.00    -0.030 A 
ATOM     14  C   UNL     1      -5.923 -12.630   6.359  0.00  0.00    +0.007 A 
ATOM     15  C   UNL     1      -7.219 -13.047   6.592  0.00  0.00    +0.023 A 
ATOM     16  C   UNL     1      -7.827 -13.941   5.719  0.00  0.00    +0.030 A 
ATOM     17  C   UNL     1      -7.129 -14.411   4.614  0.00  0.00    +0.023 A 
ATOM     18  C   UNL     1      -5.836 -13.986   4.384  0.00  0.00    +0.007 A 
BRANCH  16  19
ATOM     19  N   UNL     1      -9.137 -14.365   5.952  0.00  0.00    -0.330 N 
ATOM     20  C   UNL     1      -9.834 -15.213   4.976  0.00  0.00    +0.105 C 
ATOM     21  C   UNL     1     -10.360 -16.461   5.693  0.00  0.00    +0.019 C 
ATOM     22  C   UNL     1     -11.222 -16.034   6.884  0.00  0.00    +0.006 C 
ATOM     23  C   UNL     1     -10.370 -15.232   7.871  0.00  0.00    +0.003 C 
ATOM     24  C   UNL     1      -9.843 -13.976   7.181  0.00  0.00    +0.108 C 
ATOM     25  C   UNL     1     -11.224 -14.835   9.077  0.00  0.00    +0.009 C 
ENDBRANCH  16  19
ENDBRANCH  12  13
ENDBRANCH  10  12
ENDBRANCH   5   8
BRANCH   1  26
ATOM     26  C   UNL     1       0.104  -7.516   1.592  0.00  0.00    +0.022 C 
BRANCH  26  29
ATOM     27  C   UNL     1       0.061  -4.312  -0.112  0.00  0.00    +0.202 A 
ATOM     28  N   UNL     1       0.069  -5.089   0.986  0.00  0.00    -0.193 NA
ATOM     29  C   UNL     1       0.089  -6.345   0.644  0.00  0.00    +0.211 A 
ATOM     30  O   UNL     1       0.095  -6.421  -0.693  0.00  0.00    -0.340 OA
ATOM     31  N   UNL     1       0.072  -5.084  -1.171  0.00  0.00    -0.056 NA
BRANCH  27  36
ATOM     32  C   UNL     1      -0.029   1.446  -0.155  0.00  0.00    +0.044 C 
ATOM     33  C   UNL     1      -0.006  -0.060  -0.143  0.00  0.00    -0.050 A 
ATOM     34  C   UNL     1       0.004  -0.758  -1.338  0.00  0.00    +0.004 A 
ATOM     35  C   UNL     1       0.026  -2.138  -1.333  0.00  0.00    +0.012 A 
ATOM     36  C   UNL     1       0.038  -2.828  -0.123  0.00  0.00    +0.022 A 
ATOM     37  C   UNL     1       0.028  -2.120   1.077  0.00  0.00    +0.012 A 
ATOM     38  C   UNL     1       0.012  -0.740   1.061  0.00  0.00    +0.004 A 
ENDBRANCH  27  36
ENDBRANCH  26  29
ENDBRANCH   1  26
TORSDOF 7
