REMARK  Name = ZINC06149348
REMARK  12 active torsions:
REMARK  status: ('A' for Active; 'I' for Inactive)
REMARK    1  A    between atoms: C_1  and  C_2
REMARK    2  A    between atoms: C_2  and  C_3
REMARK    3  A    between atoms: C_3  and  C_4
REMARK    4  A    between atoms: C_3  and  C_5
REMARK    5  A    between atoms: C_3  and  N_6
REMARK    6  A    between atoms: C_7  and  C_11
REMARK    7  A    between atoms: C_11  and  C_13
REMARK    8  A    between atoms: C_11  and  N_75
REMARK    9  A    between atoms: C_16  and  C_26
REMARK   10  A    between atoms: C_19  and  C_25
REMARK   11  A    between atoms: C_29  and  C_32
REMARK   12  A    between atoms: C_32  and  C_33
REMARK                            x       y       z     vdW  Elec       q    Type
REMARK                         _______ _______ _______ _____ _____    ______ ____
ROOT
ATOM      1  C   UNL     1       3.322   1.798   3.588  0.00  0.00    +0.039 C 
ENDROOT
BRANCH   1   2
ATOM      2  C   UNL     1       1.873   2.192   3.457  0.00  0.00    +0.011 A 
ATOM      3  C   UNL     1       1.245   2.069   2.262  0.00  0.00    +0.018 A 
ATOM      4  C   UNL     1      -0.163   2.461   2.168  0.00  0.00    +0.002 A 
ATOM      5  C   UNL     1      -0.864   2.357   0.963  0.00  0.00    -0.041 A 
ATOM      6  C   UNL     1      -2.176   2.735   0.907  0.00  0.00    +0.004 A 
ATOM      7  C   UNL     1      -2.822   3.212   2.040  0.00  0.00    +0.005 A 
ATOM      8  C   UNL     1      -2.150   3.323   3.238  0.00  0.00    -0.026 A 
ATOM      9  C   UNL     1      -0.813   2.949   3.317  0.00  0.00    +0.052 A 
ATOM     10  N   UNL     1      -0.117   3.049   4.503  0.00  0.00    -0.322 N 
ATOM     11  H   UNL     1      -0.581   3.396   5.319  0.00  0.00    +0.169 HD
ATOM     12  C   UNL     1       1.176   2.687   4.580  0.00  0.00    +0.251 A 
ATOM     13  O   UNL     1       1.759   2.789   5.645  0.00  0.00    -0.268 OA
ATOM     14  C   UNL     1      -2.862   3.848   4.458  0.00  0.00    +0.046 C 
ATOM     15  C   UNL     1      -0.174   1.836  -0.272  0.00  0.00    +0.044 C 
ENDBRANCH   1   2
BRANCH   1  21
ATOM     16  C   UNL     1       2.514  -0.289   4.509  0.00  0.00    -0.077 C 
ATOM     17  C   UNL     1       2.592  -1.214   5.726  0.00  0.00    -0.015 C 
ATOM     18  C   UNL     1       4.017  -1.759   5.856  0.00  0.00    -0.010 C 
ATOM     19  C   UNL     1       4.995  -0.587   5.974  0.00  0.00    -0.015 C 
ATOM     20  C   UNL     1       4.847   0.319   4.750  0.00  0.00    -0.077 C 
ATOM     21  N   UNL     1       3.461   0.830   4.696  0.00  0.00    +0.389 N 
ATOM     22  H   UNL     1       3.246   1.304   5.581  0.00  0.00    -0.080 HD
BRANCH  18  23
ATOM     23  C   UNL     1       4.117  -2.636   7.106  0.00  0.00    +0.038 C 
BRANCH  23  24
ATOM     24  C   UNL     1       3.246  -3.854   6.936  0.00  0.00    -0.047 A 
ATOM     25  C   UNL     1       1.927  -3.825   7.351  0.00  0.00    +0.003 A 
ATOM     26  C   UNL     1       1.127  -4.940   7.191  0.00  0.00    +0.000 A 
ATOM     27  C   UNL     1       1.648  -6.089   6.625  0.00  0.00    +0.000 A 
ATOM     28  C   UNL     1       2.967  -6.120   6.214  0.00  0.00    +0.000 A 
ATOM     29  C   UNL     1       3.766  -5.003   6.370  0.00  0.00    +0.003 A 
ENDBRANCH  23  24
ENDBRANCH  18  23
ENDBRANCH   1  21
BRANCH   1  31
ATOM     30  N   UNL     1       5.040   3.617   3.092  0.00  0.00    -0.225 N 
ATOM     31  C   UNL     1       4.148   3.018   3.903  0.00  0.00    +0.143 A 
ATOM     32  N   UNL     1       4.142   3.700   5.023  0.00  0.00    -0.115 NA
ATOM     33  N   UNL     1       4.982   4.669   4.903  0.00  0.00    -0.023 NA
ATOM     34  N   UNL     1       5.524   4.624   3.736  0.00  0.00    -0.043 NA
BRANCH  30  35
ATOM     35  C   UNL     1       5.392   3.204   1.731  0.00  0.00    +0.061 C 
ATOM     36  C   UNL     1       6.012   1.806   1.766  0.00  0.00    +0.036 C 
ATOM     37  C   UNL     1       4.132   3.181   0.863  0.00  0.00    +0.036 C 
BRANCH  35  39
ATOM     38  C   UNL     1       6.766   3.764  -0.279  0.00  0.00    +0.006 C 
ATOM     39  C   UNL     1       6.399   4.195   1.142  0.00  0.00    +0.026 C 
ENDBRANCH  35  39
ENDBRANCH  30  35
ENDBRANCH   1  31
TORSDOF 7
