REMARK  Name = ZINC40070630
REMARK  17 active torsions:
REMARK  status: ('A' for Active; 'I' for Inactive)
REMARK    1  A    between atoms: C_1  and  C_2
REMARK    2  A    between atoms: C_2  and  C_3
REMARK    3  A    between atoms: C_3  and  C_5
REMARK    4  A    between atoms: C_3  and  N_35
REMARK    5  A    between atoms: C_9  and  S_18
REMARK    6  A    between atoms: N_10  and  C_11
REMARK    7  A    between atoms: C_11  and  C_12
REMARK    8  A    between atoms: S_18  and  C_19
REMARK    9  A    between atoms: C_19  and  C_21
REMARK   10  A    between atoms: C_19  and  C_22
REMARK   11  A    between atoms: C_22  and  C_24
REMARK   12  A    between atoms: C_25  and  C_34
REMARK   13  A    between atoms: C_26  and  C_31
REMARK   14  A    between atoms: C_27  and  C_30
REMARK   15  A    between atoms: C_31  and  C_33
REMARK   16  A    between atoms: N_35  and  C_36
REMARK   17  A    between atoms: N_35  and  C_37
REMARK                            x       y       z     vdW  Elec       q    Type
REMARK                         _______ _______ _______ _____ _____    ______ ____
ROOT
ATOM      1  C   UNL     1      -1.392  -1.015   0.851  0.00  0.00    +0.164 C 
ATOM      2  N   UNL     1      -2.789  -1.478   0.791  0.00  0.00    -0.248 N 
ATOM      3  N   UNL     1      -2.781  -2.640   0.010  0.00  0.00    -0.163 NA
ATOM      4  C   UNL     1      -1.591  -2.928  -0.397  0.00  0.00    +0.176 C 
ATOM      5  N   UNL     1      -0.652  -2.008   0.054  0.00  0.00    -0.286 N 
ATOM      6  H   UNL     1      -3.559  -1.062   1.208  0.00  0.00    +0.170 HD
ENDROOT
BRANCH   1   7
ATOM      7  C   UNL     1      -1.260   0.378   0.230  0.00  0.00    -0.029 C 
BRANCH   7   8
ATOM      8  N   UNL     1      -1.939   0.398  -1.073  0.00  0.00    +0.380 N 
ATOM      9  C   UNL     1      -1.244  -0.505  -2.001  0.00  0.00    -0.096 C 
ATOM     10  C   UNL     1      -3.330  -0.044  -0.908  0.00  0.00    -0.096 C 
ATOM     11  H   UNL     1      -1.926   1.337  -1.444  0.00  0.00    -0.082 HD
ENDBRANCH   7   8
BRANCH   7  13
ATOM     12  C   UNL     1      -1.672   2.815   0.592  0.00  0.00    +0.002 C 
ATOM     13  C   UNL     1      -1.903   1.412   1.156  0.00  0.00    -0.015 C 
ENDBRANCH   7  13
ENDBRANCH   1   7
BRANCH   5  14
ATOM     14  C   UNL     1       0.789  -2.021  -0.210  0.00  0.00    +0.144 C 
BRANCH  14  15
ATOM     15  C   UNL     1       1.484  -2.852   0.837  0.00  0.00    -0.030 A 
ATOM     16  C   UNL     1       1.932  -2.261   2.004  0.00  0.00    +0.005 A 
ATOM     17  C   UNL     1       2.570  -3.024   2.964  0.00  0.00    +0.000 A 
ATOM     18  C   UNL     1       2.760  -4.377   2.758  0.00  0.00    +0.000 A 
ATOM     19  C   UNL     1       2.311  -4.969   1.592  0.00  0.00    +0.000 A 
ATOM     20  C   UNL     1       1.669  -4.207   0.634  0.00  0.00    +0.005 A 
ENDBRANCH  14  15
ENDBRANCH   5  14
BRANCH   4  21
ATOM     21  S   UNL     1      -1.202  -4.322  -1.401  0.00  0.00    -0.078 S 
BRANCH  21  22
ATOM     22  C   UNL     1      -2.802  -5.136  -1.661  0.00  0.00    +0.123 C 
ATOM     23  C   UNL     1      -3.717  -4.216  -2.472  0.00  0.00    +0.028 C 
BRANCH  22  24
ATOM     24  C   UNL     1      -2.593  -6.426  -2.413  0.00  0.00    +0.192 C 
ATOM     25  O   UNL     1      -1.619  -6.564  -3.123  0.00  0.00    -0.289 OA
BRANCH  24  26
ATOM     26  C   UNL     1      -3.534  -7.477  -2.289  0.00  0.00    +0.087 A 
ATOM     27  C   UNL     1      -3.462  -8.703  -2.913  0.00  0.00    -0.012 A 
ATOM     28  C   UNL     1      -4.602  -9.434  -2.509  0.00  0.00    +0.041 A 
ATOM     29  C   UNL     1      -5.326  -8.620  -1.651  0.00  0.00    +0.024 A 
ATOM     30  N   UNL     1      -4.679  -7.454  -1.519  0.00  0.00    -0.355 N 
ATOM     31  H   UNL     1      -4.971  -6.708  -0.971  0.00  0.00    +0.166 HD
ATOM     32  C   UNL     1      -6.622  -8.987  -0.974  0.00  0.00    +0.064 C 
ATOM     33  C   UNL     1      -2.377  -9.174  -3.847  0.00  0.00    +0.047 C 
BRANCH  28  34
ATOM     34  C   UNL     1      -4.954 -10.798  -2.919  0.00  0.00    +0.162 C 
ATOM     35  O   UNL     1      -5.562 -10.982  -3.953  0.00  0.00    -0.292 OA
ATOM     36  C   UNL     1      -4.559 -11.970  -2.058  0.00  0.00    +0.091 C 
ENDBRANCH  28  34
ENDBRANCH  24  26
ENDBRANCH  22  24
ENDBRANCH  21  22
ENDBRANCH   4  21
TORSDOF 10
