REMARK  Name = ZINC17716280
REMARK  9 active torsions:
REMARK  status: ('A' for Active; 'I' for Inactive)
REMARK    1  A    between atoms: C_1  and  C_2
REMARK    2  A    between atoms: C_2  and  C_4
REMARK    3  A    between atoms: C_2  and  N_64
REMARK    4  A    between atoms: C_7  and  S_16
REMARK    5  A    between atoms: N_8  and  C_9
REMARK    6  A    between atoms: S_16  and  C_17
REMARK    7  A    between atoms: C_17  and  C_19
REMARK    8  A    between atoms: C_17  and  C_25
REMARK    9  A    between atoms: N_27  and  C_28
REMARK                            x       y       z     vdW  Elec       q    Type
REMARK                         _______ _______ _______ _____ _____    ______ ____
ROOT
ATOM      1  C   UNL     1      -0.747   1.579   3.646  0.00  0.00    +0.125 A 
ATOM      2  N   UNL     1      -2.023   1.769   3.829  0.00  0.00    -0.135 NA
ATOM      3  N   UNL     1      -2.231   2.298   4.981  0.00  0.00    -0.122 NA
ATOM      4  C   UNL     1      -1.088   2.486   5.600  0.00  0.00    +0.197 A 
ATOM      5  N   UNL     1      -0.103   2.032   4.767  0.00  0.00    -0.275 N 
ENDROOT
BRANCH   5   6
ATOM      6  C   UNL     1       1.279   2.032   5.009  0.00  0.00    +0.050 A 
ATOM      7  C   UNL     1       1.964   0.830   5.125  0.00  0.00    +0.029 A 
ATOM      8  C   UNL     1       3.325   0.832   5.358  0.00  0.00    +0.040 A 
ATOM      9  C   UNL     1       4.005   2.031   5.487  0.00  0.00    +0.124 A 
ATOM     10  C   UNL     1       3.323   3.231   5.377  0.00  0.00    +0.040 A 
ATOM     11  C   UNL     1       1.962   3.233   5.138  0.00  0.00    +0.029 A 
ATOM     12  F   UNL     1       5.336   2.031   5.720  0.00  0.00    -0.205 F 
ENDBRANCH   5   6
BRANCH   1  14
ATOM     13  C   UNL     1      -0.316  -0.536   2.425  0.00  0.00    -0.005 C 
ATOM     14  C   UNL     1      -0.099   0.979   2.425  0.00  0.00    -0.002 C 
BRANCH  14  20
ATOM     15  C   UNL     1      -0.013   1.086   0.008  0.00  0.00    -0.078 C 
ATOM     16  C   UNL     1      -0.752   1.593  -1.232  0.00  0.00    -0.019 C 
ATOM     17  C   UNL     1      -0.788   3.123  -1.209  0.00  0.00    -0.004 C 
ATOM     18  C   UNL     1      -1.465   3.591   0.082  0.00  0.00    -0.019 C 
ATOM     19  C   UNL     1      -0.705   3.026   1.284  0.00  0.00    -0.078 C 
ATOM     20  N   UNL     1      -0.728   1.550   1.216  0.00  0.00    +0.386 N 
ATOM     21  H   UNL     1      -1.704   1.234   1.167  0.00  0.00    -0.081 HD
ENDBRANCH  14  20
ENDBRANCH   1  14
BRANCH   4  22
ATOM     22  S   UNL     1      -0.865   3.189   7.200  0.00  0.00    -0.068 S 
BRANCH  22  23
ATOM     23  C   UNL     1      -2.589   3.523   7.639  0.00  0.00    +0.170 C 
BRANCH  23  24
ATOM     24  C   UNL     1      -3.338   2.221   7.761  0.00  0.00    -0.025 A 
ATOM     25  C   UNL     1      -2.932   1.274   8.681  0.00  0.00    +0.005 A 
ATOM     26  C   UNL     1      -3.622   0.081   8.796  0.00  0.00    +0.000 A 
ATOM     27  C   UNL     1      -4.712  -0.168   7.983  0.00  0.00    +0.000 A 
ATOM     28  C   UNL     1      -5.115   0.778   7.059  0.00  0.00    +0.000 A 
ATOM     29  C   UNL     1      -4.428   1.972   6.947  0.00  0.00    +0.005 A 
ENDBRANCH  23  24
BRANCH  23  30
ATOM     30  C   UNL     1      -2.639   4.257   8.955  0.00  0.00    +0.231 C 
ATOM     31  O   UNL     1      -1.691   4.214   9.709  0.00  0.00    -0.274 OA
ATOM     32  N   UNL     1      -3.739   4.959   9.293  0.00  0.00    -0.311 N 
ATOM     33  H   UNL     1      -4.497   4.993   8.690  0.00  0.00    +0.149 HD
BRANCH  32  34
ATOM     34  C   UNL     1      -3.788   5.672  10.572  0.00  0.00    +0.073 C 
ATOM     35  C   UNL     1      -5.078   5.570  11.389  0.00  0.00    +0.024 C 
ATOM     36  C   UNL     1      -4.725   6.877  10.674  0.00  0.00    +0.024 C 
ENDBRANCH  32  34
ENDBRANCH  23  30
ENDBRANCH  22  23
ENDBRANCH   4  22
TORSDOF 8
