REMARK  Name = ZINC13038295
REMARK  13 active torsions:
REMARK  status: ('A' for Active; 'I' for Inactive)
REMARK    1  A    between atoms: C_1  and  C_2
REMARK    2  A    between atoms: C_5  and  S_24
REMARK    3  A    between atoms: C_7  and  N_8
REMARK    4  A    between atoms: C_9  and  C_11
REMARK    5  A    between atoms: C_11  and  N_55
REMARK    6  A    between atoms: C_12  and  N_55
REMARK    7  A    between atoms: C_13  and  C_14
REMARK    8  A    between atoms: C_13  and  N_55
REMARK    9  A    between atoms: C_17  and  O_20
REMARK   10  A    between atoms: O_20  and  C_21
REMARK   11  A    between atoms: S_24  and  N_27
REMARK   12  A    between atoms: N_27  and  C_28
REMARK   13  A    between atoms: N_27  and  C_29
REMARK                            x       y       z     vdW  Elec       q    Type
REMARK                         _______ _______ _______ _____ _____    ______ ____
ROOT
ATOM      1  N   UNL     1       0.520  -5.837  -3.176  0.00  0.00    -0.287 N 
ATOM      2  C   UNL     1       0.747  -4.541  -2.885  0.00  0.00    +0.201 C 
ATOM      3  O   UNL     1       0.761  -3.714  -3.772  0.00  0.00    -0.278 OA
ATOM      4  H   UNL     1       0.587  -6.510  -2.480  0.00  0.00    +0.155 HD
ENDROOT
BRANCH   1  11
ATOM      5  C   UNL     1       1.083  -8.505  -3.990  0.00  0.00    +0.045 C 
ATOM      6  C   UNL     1       0.446  -7.506  -4.921  0.00  0.00    -0.029 A 
ATOM      7  C   UNL     1       0.117  -7.874  -6.211  0.00  0.00    +0.007 A 
ATOM      8  C   UNL     1      -0.468  -6.957  -7.065  0.00  0.00    +0.029 A 
ATOM      9  C   UNL     1      -0.726  -5.670  -6.631  0.00  0.00    +0.107 A 
ATOM     10  C   UNL     1      -0.404  -5.297  -5.341  0.00  0.00    +0.052 A 
ATOM     11  C   UNL     1       0.188  -6.213  -4.482  0.00  0.00    +0.038 A 
BRANCH   9  12
ATOM     12  S   UNL     1      -1.472  -4.505  -7.724  0.00  0.00    +0.060 S 
ATOM     13  O   UNL     1      -1.109  -3.215  -7.252  0.00  0.00    -0.153 OA
ATOM     14  O   UNL     1      -1.181  -4.943  -9.044  0.00  0.00    -0.153 OA
BRANCH  12  15
ATOM     15  N   UNL     1      -3.111  -4.636  -7.533  0.00  0.00    -0.183 NA
ATOM     16  C   UNL     1      -3.800  -3.813  -6.535  0.00  0.00    +0.131 C 
ATOM     17  C   UNL     1      -3.873  -5.573  -8.361  0.00  0.00    +0.131 C 
ENDBRANCH  12  15
ENDBRANCH   9  12
ENDBRANCH   1  11
BRANCH   2  18
ATOM     18  C   UNL     1       0.981  -4.119  -1.457  0.00  0.00    +0.019 C 
BRANCH  18  20
ATOM     19  C   UNL     1       2.449  -2.300  -2.088  0.00  0.00    -0.095 C 
ATOM     20  N   UNL     1       1.180  -2.655  -1.419  0.00  0.00    +0.386 N 
ATOM     21  H   UNL     1       0.404  -2.200  -1.914  0.00  0.00    -0.081 HD
BRANCH  20  22
ATOM     22  C   UNL     1       1.198  -2.184  -0.019  0.00  0.00    -0.043 C 
BRANCH  22  23
ATOM     23  C   UNL     1       1.179  -0.677  -0.012  0.00  0.00    -0.064 A 
ATOM     24  C   UNL     1      -0.027  -0.002  -0.007  0.00  0.00    +0.005 A 
ATOM     25  C   UNL     1      -0.047   1.380  -0.001  0.00  0.00    +0.046 A 
ATOM     26  C   UNL     1       1.145   2.089   0.000  0.00  0.00    +0.127 A 
ATOM     27  C   UNL     1       2.355   1.409  -0.004  0.00  0.00    +0.046 A 
ATOM     28  C   UNL     1       2.369   0.028  -0.011  0.00  0.00    +0.005 A 
BRANCH  26  29
ATOM     29  O   UNL     1       1.129   3.448   0.006  0.00  0.00    -0.434 OA
BRANCH  29  30
ATOM     30  C   UNL     1       2.394   4.112   0.007  0.00  0.00    +0.541 C 
ATOM     31  F   UNL     1       3.115   3.741   1.147  0.00  0.00    -0.166 F 
ATOM     32  F   UNL     1       3.112   3.750  -1.138  0.00  0.00    -0.166 F 
ENDBRANCH  29  30
ENDBRANCH  26  29
ENDBRANCH  22  23
ENDBRANCH  20  22
ENDBRANCH  18  20
ENDBRANCH   2  18
TORSDOF 9
