REMARK  Name = ZINC62541452
REMARK  2 active torsions:
REMARK  status: ('A' for Active; 'I' for Inactive)
REMARK    1  A    between atoms: C_1  and  C_2
REMARK    2  A    between atoms: C_7  and  N_16
REMARK                            x       y       z     vdW  Elec       q    Type
REMARK                         _______ _______ _______ _____ _____    ______ ____
ROOT
ATOM      1  C   UNL     1      -0.019   1.526   0.010  0.00  0.00    +0.020 C 
ATOM      2  C   UNL     1       0.002  -0.004   0.002  0.00  0.00    +0.110 C 
ATOM      3  C   UNL     1       0.600  -0.495  -1.315  0.00  0.00    +0.241 C 
ATOM      4  O   UNL     1       2.017  -0.342  -1.306  0.00  0.00    -0.488 OA
ATOM      5  C   UNL     1       2.513   0.827  -0.819  0.00  0.00    +0.162 A 
ATOM      6  C   UNL     1       3.010   1.797  -1.682  0.00  0.00    +0.070 A 
ATOM      7  C   UNL     1       3.509   2.987  -1.170  0.00  0.00    +0.041 A 
ATOM      8  C   UNL     1       3.512   3.210   0.195  0.00  0.00    +0.022 A 
ATOM      9  C   UNL     1       3.019   2.248   1.058  0.00  0.00    +0.042 A 
ATOM     10  C   UNL     1       2.521   1.055   0.554  0.00  0.00    +0.078 A 
ATOM     11  N   UNL     1       2.029   0.066   1.417  0.00  0.00    -0.282 N 
ATOM     12  C   UNL     1       0.830  -0.499   1.159  0.00  0.00    +0.223 C 
ATOM     13  O   UNL     1       0.421  -1.400   1.861  0.00  0.00    -0.275 OA
ATOM     14 BR   UNL     1       4.191   4.834   0.884  0.00  0.00    -0.050 Br
ATOM     15  H   UNL     1       2.545  -0.210   2.191  0.00  0.00    +0.155 HD
ENDROOT
BRANCH   6  16
ATOM     16  N   UNL     1       3.008   1.573  -3.064  0.00  0.00    -0.355 N 
ATOM     17  H   UNL     1       2.659   0.741  -3.420  0.00  0.00    +0.142 HD
ATOM     18  H   UNL     1       3.355   2.251  -3.666  0.00  0.00    +0.142 HD
ENDBRANCH   6  16
TORSDOF 1
