REMARK  Name = ZINC33633538
REMARK  14 active torsions:
REMARK  status: ('A' for Active; 'I' for Inactive)
REMARK    1  A    between atoms: C_1  and  C_2
REMARK    2  A    between atoms: C_2  and  C_3
REMARK    3  A    between atoms: C_3  and  C_4
REMARK    4  A    between atoms: C_4  and  C_5
REMARK    5  A    between atoms: C_6  and  C_20
REMARK    6  A    between atoms: C_7  and  C_17
REMARK    7  A    between atoms: C_8  and  C_16
REMARK    8  A    between atoms: N_9  and  C_10
REMARK    9  A    between atoms: C_10  and  C_11
REMARK   10  A    between atoms: C_11  and  C_12
REMARK   11  A    between atoms: C_12  and  N_13
REMARK   12  A    between atoms: N_13  and  C_14
REMARK   13  A    between atoms: N_13  and  C_15
REMARK   14  A    between atoms: C_23  and  C_26
REMARK                            x       y       z     vdW  Elec       q    Type
REMARK                         _______ _______ _______ _____ _____    ______ ____
ROOT
ATOM      1  C   UNL     1      -0.226  -2.748  -1.820  0.00  0.00    +0.027 A 
ATOM      2  C   UNL     1       0.118  -4.050  -1.642  0.00  0.00    +0.015 A 
ATOM      3  C   UNL     1       1.401  -4.036  -0.917  0.00  0.00    +0.065 A 
ATOM      4  C   UNL     1       1.715  -2.719  -0.730  0.00  0.00    +0.029 A 
ATOM      5  N   UNL     1       0.738  -1.962  -1.265  0.00  0.00    -0.347 N 
ATOM      6  C   UNL     1       2.948  -2.201  -0.036  0.00  0.00    +0.064 C 
ENDROOT
BRANCH   2   7
ATOM      7  C   UNL     1      -0.642  -5.242  -2.088  0.00  0.00    -0.015 A 
ATOM      8  C   UNL     1      -1.894  -5.518  -1.542  0.00  0.00    +0.009 A 
ATOM      9  C   UNL     1      -2.599  -6.626  -1.964  0.00  0.00    +0.013 A 
ATOM     10  C   UNL     1      -2.061  -7.469  -2.920  0.00  0.00    +0.055 A 
ATOM     11  C   UNL     1      -0.816  -7.203  -3.462  0.00  0.00    +0.013 A 
ATOM     12  C   UNL     1      -0.104  -6.095  -3.051  0.00  0.00    +0.009 A 
BRANCH  10  13
ATOM     13  C   UNL     1      -2.833  -8.681  -3.373  0.00  0.00    +0.417 C 
ATOM     14  F   UNL     1      -2.506  -9.773  -2.562  0.00  0.00    -0.166 F 
ATOM     15  F   UNL     1      -4.205  -8.423  -3.276  0.00  0.00    -0.166 F 
ATOM     16  F   UNL     1      -2.507  -8.972  -4.702  0.00  0.00    -0.166 F 
ENDBRANCH  10  13
ENDBRANCH   2   7
BRANCH   3  17
ATOM     17  C   UNL     1       2.188  -5.203  -0.489  0.00  0.00    +0.244 C 
ATOM     18  O   UNL     1       3.031  -5.673  -1.229  0.00  0.00    -0.270 OA
ATOM     19  N   UNL     1       1.974  -5.751   0.724  0.00  0.00    -0.325 N 
ATOM     20  H   UNL     1       2.563  -6.623   1.045  0.00  0.00    +0.145 HD
ATOM     21  H   UNL     1       1.212  -5.326   1.393  0.00  0.00    +0.145 HD
ENDBRANCH   3  17
BRANCH   1  22
ATOM     22  C   UNL     1      -1.469  -2.256  -2.515  0.00  0.00    +0.054 C 
BRANCH  22  23
ATOM     23  C   UNL     1      -1.180  -2.072  -4.006  0.00  0.00    +0.006 C 
BRANCH  23  25
ATOM     24  C   UNL     1      -2.154  -1.389  -6.204  0.00  0.00    +0.004 C 
ATOM     25  C   UNL     1      -2.442  -1.572  -4.712  0.00  0.00    -0.003 C 
ENDBRANCH  23  25
ENDBRANCH  22  23
ENDBRANCH   1  22
BRANCH   5  26
ATOM     26  C   UNL     1       0.718  -0.497  -1.257  0.00  0.00    +0.120 C 
BRANCH  26  27
ATOM     27  C   UNL     1       0.002  -0.004   0.002  0.00  0.00    +0.003 C 
BRANCH  27  28
ATOM     28  C   UNL     1      -0.019   1.526   0.010  0.00  0.00    -0.078 C 
BRANCH  28  29
ATOM     29  N   UNL     1      -0.706   2.000   1.219  0.00  0.00    +0.376 N 
ATOM     30  C   UNL     1      -0.541   3.450   1.384  0.00  0.00    -0.097 C 
ATOM     31  C   UNL     1      -2.128   1.631   1.195  0.00  0.00    -0.097 C 
ATOM     32  H   UNL     1      -0.244   1.506   2.086  0.00  0.00    -0.083 HD
ENDBRANCH  28  29
ENDBRANCH  27  28
ENDBRANCH  26  27
ENDBRANCH   5  26
TORSDOF 10
