REMARK  Name = ZINC66128337
REMARK  8 active torsions:
REMARK  status: ('A' for Active; 'I' for Inactive)
REMARK    1  A    between atoms: C_1  and  C_2
REMARK    2  A    between atoms: C_2  and  C_3
REMARK    3  A    between atoms: C_3  and  C_5
REMARK    4  A    between atoms: C_3  and  O_6
REMARK    5  A    between atoms: O_6  and  C_7
REMARK    6  A    between atoms: C_12  and  C_13
REMARK    7  A    between atoms: C_13  and  C_25
REMARK    8  A    between atoms: N_23  and  C_24
REMARK                            x       y       z     vdW  Elec       q    Type
REMARK                         _______ _______ _______ _____ _____    ______ ____
ROOT
ATOM      1  C   UNL     1      -3.421   0.370  -3.634  0.00  0.00    +0.128 C 
ATOM      2  N   UNL     1      -2.399   1.413  -3.479  0.00  0.00    -0.319 N 
ATOM      3  C   UNL     1      -2.804   2.742  -3.454  0.00  0.00    +0.041 A 
ATOM      4  C   UNL     1      -2.107   3.708  -2.749  0.00  0.00    +0.024 A 
ATOM      5  C   UNL     1      -2.556   5.015  -2.755  0.00  0.00    +0.002 A 
ATOM      6  C   UNL     1      -3.697   5.366  -3.460  0.00  0.00    +0.001 A 
ATOM      7  C   UNL     1      -4.403   4.415  -4.168  0.00  0.00    +0.015 A 
ATOM      8  C   UNL     1      -3.961   3.095  -4.172  0.00  0.00    +0.058 A 
ATOM      9  C   UNL     1      -4.672   2.041  -4.919  0.00  0.00    +0.250 C 
ATOM     10  O   UNL     1      -5.516   2.334  -5.743  0.00  0.00    -0.270 OA
ATOM     11  N   UNL     1      -4.375   0.747  -4.677  0.00  0.00    -0.276 N 
ATOM     12  C   UNL     1      -5.019  -0.300  -5.474  0.00  0.00    +0.135 C 
ATOM     13  C   UNL     1      -2.743  -0.946  -4.019  0.00  0.00    +0.059 C 
ATOM     14  H   UNL     1      -1.461   1.179  -3.395  0.00  0.00    +0.148 HD
ENDROOT
BRANCH   1  20
ATOM     15  C   UNL     1      -3.444  -0.067  -1.165  0.00  0.00    +0.128 A 
ATOM     16  C   UNL     1      -4.121  -0.226   0.035  0.00  0.00    +0.046 A 
ATOM     17  C   UNL     1      -5.499  -0.132   0.068  0.00  0.00    +0.004 A 
ATOM     18  C   UNL     1      -6.204   0.120  -1.095  0.00  0.00    +0.001 A 
ATOM     19  C   UNL     1      -5.532   0.278  -2.293  0.00  0.00    +0.011 A 
ATOM     20  C   UNL     1      -4.153   0.191  -2.329  0.00  0.00    +0.035 A 
BRANCH  15  21
ATOM     21  O   UNL     1      -2.089  -0.158  -1.200  0.00  0.00    -0.489 OA
BRANCH  21  22
ATOM     22  C   UNL     1      -1.419  -0.344   0.049  0.00  0.00    +0.170 C 
ATOM     23  C   UNL     1      -1.411  -1.831   0.406  0.00  0.00    +0.052 C 
BRANCH  22  25
ATOM     24  C   UNL     1       0.014   1.673  -0.299  0.00  0.00    +0.007 C 
ATOM     25  C   UNL     1       0.021   0.161  -0.065  0.00  0.00    +0.041 C 
ENDBRANCH  22  25
ENDBRANCH  21  22
ENDBRANCH  15  21
ENDBRANCH   1  20
TORSDOF 4
