REMARK  Name = ZINC40325291
REMARK  13 active torsions:
REMARK  status: ('A' for Active; 'I' for Inactive)
REMARK    1  A    between atoms: C_1  and  C_2
REMARK    2  A    between atoms: C_2  and  C_3
REMARK    3  A    between atoms: C_3  and  S_4
REMARK    4  A    between atoms: S_4  and  C_7
REMARK    5  A    between atoms: C_10  and  C_13
REMARK    6  A    between atoms: C_15  and  C_18
REMARK    7  A    between atoms: N_20  and  C_21
REMARK    8  A    between atoms: C_21  and  C_22
REMARK    9  A    between atoms: C_22  and  C_24
REMARK   10  A    between atoms: C_22  and  N_31
REMARK   11  A    between atoms: C_27  and  C_30
REMARK   12  A    between atoms: N_31  and  C_32
REMARK   13  A    between atoms: N_31  and  C_33
REMARK                            x       y       z     vdW  Elec       q    Type
REMARK                         _______ _______ _______ _____ _____    ______ ____
ROOT
ATOM      1  C   UNL     1       3.379  -3.734  -6.568  0.00  0.00    +0.168 A 
ATOM      2  C   UNL     1       4.697  -4.064  -6.613  0.00  0.00    +0.086 A 
ATOM      3  C   UNL     1       5.031  -4.335  -7.958  0.00  0.00    +0.168 A 
ATOM      4  N   UNL     1       3.951  -4.173  -8.684  0.00  0.00    -0.073 NA
ATOM      5  O   UNL     1       2.893  -3.797  -7.822  0.00  0.00    -0.354 OA
ENDROOT
BRANCH   1   9
ATOM      6  C   UNL     1       1.177  -2.707  -3.084  0.00  0.00    +0.088 A 
ATOM      7  C   UNL     1       0.547  -2.730  -4.315  0.00  0.00    +0.027 A 
ATOM      8  C   UNL     1       1.256  -3.063  -5.451  0.00  0.00    +0.013 A 
ATOM      9  C   UNL     1       2.612  -3.376  -5.356  0.00  0.00    +0.020 A 
ATOM     10  C   UNL     1       3.243  -3.350  -4.111  0.00  0.00    +0.013 A 
ATOM     11  C   UNL     1       2.523  -3.011  -2.983  0.00  0.00    +0.027 A 
BRANCH   6  12
ATOM     12  S   UNL     1       0.264  -2.281  -1.639  0.00  0.00    -0.003 S 
ATOM     13  O   UNL     1       0.956  -2.916  -0.572  0.00  0.00    -0.169 OA
ATOM     14  O   UNL     1      -1.079  -2.632  -1.941  0.00  0.00    -0.169 OA
BRANCH  12  15
ATOM     15  C   UNL     1       0.423  -0.479  -1.501  0.00  0.00    +0.171 C 
BRANCH  15  17
ATOM     16  C   UNL     1      -0.206   1.527  -0.151  0.00  0.00    +0.005 C 
ATOM     17  C   UNL     1      -0.340   0.007  -0.267  0.00  0.00    +0.020 C 
ENDBRANCH  15  17
ENDBRANCH  12  15
ENDBRANCH   6  12
ENDBRANCH   1   9
BRANCH   3  18
ATOM     18  C   UNL     1       6.368  -4.734  -8.461  0.00  0.00    +0.266 C 
ATOM     19  O   UNL     1       7.298  -4.853  -7.687  0.00  0.00    -0.268 OA
ATOM     20  N   UNL     1       6.553  -4.965  -9.776  0.00  0.00    -0.311 N 
ATOM     21  H   UNL     1       5.811  -4.870 -10.393  0.00  0.00    +0.149 HD
BRANCH  20  22
ATOM     22  C   UNL     1       7.873  -5.358 -10.272  0.00  0.00    +0.094 C 
BRANCH  22  23
ATOM     23  C   UNL     1       7.785  -5.665 -11.768  0.00  0.00    -0.021 C 
BRANCH  23  24
ATOM     24  C   UNL     1       7.421  -4.410 -12.518  0.00  0.00    -0.059 A 
ATOM     25  C   UNL     1       8.394  -3.472 -12.809  0.00  0.00    +0.002 A 
ATOM     26  C   UNL     1       8.060  -2.320 -13.497  0.00  0.00    +0.003 A 
ATOM     27  C   UNL     1       6.754  -2.107 -13.895  0.00  0.00    -0.050 A 
ATOM     28  C   UNL     1       5.781  -3.045 -13.605  0.00  0.00    +0.003 A 
ATOM     29  C   UNL     1       6.116  -4.199 -12.921  0.00  0.00    +0.002 A 
ATOM     30  C   UNL     1       6.390  -0.851 -14.643  0.00  0.00    +0.044 C 
ENDBRANCH  23  24
BRANCH  23  31
ATOM     31  N   UNL     1       9.083  -6.161 -12.244  0.00  0.00    +0.382 N 
ATOM     32  C   UNL     1       9.437  -7.386 -11.514  0.00  0.00    -0.096 C 
ATOM     33  C   UNL     1       8.999  -6.455 -13.681  0.00  0.00    -0.096 C 
ATOM     34  H   UNL     1       9.790  -5.459 -12.085  0.00  0.00    -0.082 HD
ENDBRANCH  23  31
ENDBRANCH  22  23
ENDBRANCH  20  22
ENDBRANCH   3  18
TORSDOF 9
