REMARK  Name = ZINC59160400
REMARK  8 active torsions:
REMARK  status: ('A' for Active; 'I' for Inactive)
REMARK    1  A    between atoms: C_1  and  C_2
REMARK    2  A    between atoms: C_2  and  C_4
REMARK    3  A    between atoms: C_2  and  O_27
REMARK    4  A    between atoms: N_6  and  N_7
REMARK    5  A    between atoms: N_15  and  C_18
REMARK    6  A    between atoms: C_18  and  C_19
REMARK    7  A    between atoms: C_20  and  C_21
REMARK    8  A    between atoms: O_27  and  C_28
REMARK                            x       y       z     vdW  Elec       q    Type
REMARK                         _______ _______ _______ _____ _____    ______ ____
ROOT
ATOM      1  N   UNL     1       0.979  -1.133  -3.559  0.00  0.00    -0.174 NA
ATOM      2  C   UNL     1       0.462  -1.096  -4.763  0.00  0.00    +0.153 C 
ATOM      3  C   UNL     1       1.092  -1.534  -6.030  0.00  0.00    +0.028 A 
ATOM      4  C   UNL     1       2.333  -2.082  -6.337  0.00  0.00    +0.012 A 
ATOM      5  C   UNL     1       2.639  -2.394  -7.646  0.00  0.00    +0.001 A 
ATOM      6  C   UNL     1       1.712  -2.163  -8.649  0.00  0.00    +0.002 A 
ATOM      7  C   UNL     1       0.478  -1.620  -8.355  0.00  0.00    +0.024 A 
ATOM      8  C   UNL     1       0.152  -1.298  -7.042  0.00  0.00    +0.046 A 
ATOM      9  N   UNL     1      -0.998  -0.751  -6.483  0.00  0.00    -0.262 N 
ATOM     10  C   UNL     1      -0.880  -0.615  -5.151  0.00  0.00    +0.272 C 
ATOM     11  O   UNL     1      -1.727  -0.170  -4.399  0.00  0.00    -0.268 OA
ENDROOT
BRANCH   1  14
ATOM     12  C   UNL     1       0.767  -0.717  -1.225  0.00  0.00    +0.273 C 
ATOM     13  O   UNL     1       1.890  -1.143  -1.061  0.00  0.00    -0.270 OA
ATOM     14  N   UNL     1       0.234  -0.679  -2.462  0.00  0.00    -0.203 N 
ATOM     15  H   UNL     1      -0.664  -0.338  -2.594  0.00  0.00    +0.177 HD
BRANCH  12  17
ATOM     16  C   UNL     1      -0.289   1.273  -0.187  0.00  0.00    +0.062 C 
ATOM     17  C   UNL     1      -0.034  -0.229  -0.045  0.00  0.00    +0.257 C 
BRANCH  17  18
ATOM     18  O   UNL     1       0.693  -0.477   1.160  0.00  0.00    -0.478 OA
BRANCH  18  19
ATOM     19  C   UNL     1      -0.031  -0.600   2.304  0.00  0.00    +0.140 A 
ATOM     20  C   UNL     1      -1.399  -0.371   2.288  0.00  0.00    +0.048 A 
ATOM     21  C   UNL     1      -2.133  -0.496   3.451  0.00  0.00    +0.023 A 
ATOM     22  C   UNL     1      -1.505  -0.849   4.633  0.00  0.00    +0.043 A 
ATOM     23  C   UNL     1      -0.141  -1.077   4.652  0.00  0.00    +0.043 A 
ATOM     24  C   UNL     1       0.597  -0.959   3.488  0.00  0.00    +0.084 A 
ATOM     25 CL   UNL     1       2.308  -1.254   3.511  0.00  0.00    -0.080 Cl
ATOM     26 CL   UNL     1      -2.430  -1.004   6.093  0.00  0.00    -0.083 Cl
ENDBRANCH  18  19
ENDBRANCH  17  18
ENDBRANCH  12  17
ENDBRANCH   1  14
BRANCH   9  27
ATOM     27  C   UNL     1      -2.190  -0.378  -7.248  0.00  0.00    +0.141 C 
BRANCH  27  28
ATOM     28  C   UNL     1      -3.128  -1.555  -7.323  0.00  0.00    -0.007 C 
ATOM     29  C   UNL     1      -4.384  -1.429  -6.917  0.00  0.00    +0.005 C 
BRANCH  29  30
ATOM     30  C   UNL     1      -5.304  -2.583  -6.990  0.00  0.00    -0.025 A 
ATOM     31  C   UNL     1      -4.852  -3.809  -7.481  0.00  0.00    +0.008 A 
ATOM     32  C   UNL     1      -5.716  -4.882  -7.546  0.00  0.00    +0.001 A 
ATOM     33  C   UNL     1      -7.028  -4.745  -7.128  0.00  0.00    +0.000 A 
ATOM     34  C   UNL     1      -7.482  -3.533  -6.641  0.00  0.00    +0.001 A 
ATOM     35  C   UNL     1      -6.626  -2.453  -6.564  0.00  0.00    +0.008 A 
ENDBRANCH  29  30
ENDBRANCH  27  28
ENDBRANCH   9  27
TORSDOF 7
