REMARK  Name = ZINC36155027
REMARK  13 active torsions:
REMARK  status: ('A' for Active; 'I' for Inactive)
REMARK    1  A    between atoms: C_1  and  C_2
REMARK    2  A    between atoms: C_2  and  C_3
REMARK    3  A    between atoms: C_2  and  C_4
REMARK    4  A    between atoms: C_4  and  C_6
REMARK    5  A    between atoms: C_4  and  N_18
REMARK    6  A    between atoms: C_8  and  C_11
REMARK    7  A    between atoms: N_18  and  C_19
REMARK    8  A    between atoms: C_19  and  C_20
REMARK    9  A    between atoms: C_20  and  C_22
REMARK   10  A    between atoms: C_20  and  O_31
REMARK   11  A    between atoms: C_22  and  O_23
REMARK   12  A    between atoms: O_23  and  C_24
REMARK   13  A    between atoms: C_24  and  C_25
REMARK                            x       y       z     vdW  Elec       q    Type
REMARK                         _______ _______ _______ _____ _____    ______ ____
ROOT
ATOM      1  C   UNL     1      -1.260  -0.226  -0.002  0.00  0.00    +0.022 C 
ENDROOT
BRANCH   1   2
ATOM      2  C   UNL     1      -2.312   0.222   0.981  0.00  0.00    +0.214 A 
ATOM      3  N   UNL     1      -2.264   1.302   1.707  0.00  0.00    -0.193 NA
ATOM      4  C   UNL     1      -3.368   1.392   2.471  0.00  0.00    +0.202 A 
ATOM      5  N   UNL     1      -4.130   0.354   2.229  0.00  0.00    -0.056 NA
ATOM      6  O   UNL     1      -3.455  -0.421   1.250  0.00  0.00    -0.339 OA
BRANCH   4   7
ATOM      7  C   UNL     1      -3.670   2.484   3.429  0.00  0.00    +0.023 A 
ATOM      8  C   UNL     1      -2.775   3.539   3.592  0.00  0.00    +0.013 A 
ATOM      9  C   UNL     1      -3.061   4.552   4.484  0.00  0.00    +0.016 A 
ATOM     10  C   UNL     1      -4.235   4.521   5.217  0.00  0.00    +0.018 A 
ATOM     11  C   UNL     1      -5.127   3.475   5.059  0.00  0.00    +0.016 A 
ATOM     12  C   UNL     1      -4.854   2.461   4.165  0.00  0.00    +0.013 A 
ATOM     13 BR   UNL     1      -4.620   5.913   6.438  0.00  0.00    -0.050 Br
ENDBRANCH   4   7
ENDBRANCH   1   2
BRANCH   1  15
ATOM     14  C   UNL     1      -2.072   1.523  -1.590  0.00  0.00    +0.006 C 
ATOM     15  C   UNL     1      -1.749   0.037  -1.427  0.00  0.00    -0.022 C 
ATOM     16  C   UNL     1      -0.657  -0.360  -2.423  0.00  0.00    +0.006 C 
ENDBRANCH   1  15
BRANCH   1  17
ATOM     17  N   UNL     1      -1.007  -1.662   0.172  0.00  0.00    +0.389 N 
ATOM     18  H   UNL     1      -1.877  -2.168   0.101  0.00  0.00    -0.085 HD
ATOM     19  H   UNL     1      -0.372  -1.981  -0.544  0.00  0.00    -0.085 HD
BRANCH  17  20
ATOM     20  C   UNL     1      -0.411  -1.898   1.494  0.00  0.00    -0.048 C 
BRANCH  20  21
ATOM     21  C   UNL     1      -0.186  -3.398   1.692  0.00  0.00    +0.123 C 
BRANCH  21  22
ATOM     22  O   UNL     1       0.784  -3.862   0.752  0.00  0.00    -0.391 OA
ATOM     23  H   UNL     1       1.647  -3.432   0.832  0.00  0.00    +0.210 HD
ENDBRANCH  21  22
BRANCH  21  24
ATOM     24  C   UNL     1       0.317  -3.655   3.114  0.00  0.00    +0.189 C 
BRANCH  24  25
ATOM     25  O   UNL     1       0.416  -5.063   3.337  0.00  0.00    -0.373 OA
BRANCH  25  26
ATOM     26  C   UNL     1       0.880  -5.414   4.642  0.00  0.00    +0.195 C 
BRANCH  26  27
ATOM     27  C   UNL     1       0.946  -6.914   4.766  0.00  0.00    -0.022 A 
ATOM     28  C   UNL     1      -0.155  -7.620   5.214  0.00  0.00    +0.006 A 
ATOM     29  C   UNL     1      -0.095  -8.996   5.328  0.00  0.00    +0.000 A 
ATOM     30  C   UNL     1       1.066  -9.667   4.993  0.00  0.00    +0.000 A 
ATOM     31  C   UNL     1       2.167  -8.962   4.543  0.00  0.00    +0.000 A 
ATOM     32  C   UNL     1       2.105  -7.586   4.426  0.00  0.00    +0.006 A 
ENDBRANCH  26  27
ENDBRANCH  25  26
ENDBRANCH  24  25
ENDBRANCH  21  24
ENDBRANCH  20  21
ENDBRANCH  17  20
ENDBRANCH   1  17
TORSDOF 11
