REMARK  Name = ZINC36313550
REMARK  11 active torsions:
REMARK  status: ('A' for Active; 'I' for Inactive)
REMARK    1  A    between atoms: C_1  and  O_2
REMARK    2  A    between atoms: O_2  and  C_3
REMARK    3  A    between atoms: C_6  and  O_9
REMARK    4  A    between atoms: O_9  and  C_10
REMARK    5  A    between atoms: C_10  and  C_11
REMARK    6  A    between atoms: C_11  and  C_13
REMARK    7  A    between atoms: C_11  and  O_38
REMARK    8  A    between atoms: C_13  and  N_14
REMARK    9  A    between atoms: N_14  and  C_15
REMARK   10  A    between atoms: N_14  and  C_32
REMARK   11  A    between atoms: C_15  and  C_16
REMARK                            x       y       z     vdW  Elec       q    Type
REMARK                         _______ _______ _______ _____ _____    ______ ____
ROOT
ATOM      1  N   UNL     1       4.300  -6.419   6.482  0.00  0.00    +0.388 N 
ATOM      2  H   UNL     1       4.007  -6.080   7.386  0.00  0.00    -0.081 HD
ENDROOT
BRANCH   1   3
ATOM      3  C   UNL     1       5.639  -5.901   6.175  0.00  0.00    -0.068 C 
ATOM      4  C   UNL     1       6.104  -6.456   4.827  0.00  0.00    -0.015 C 
ATOM      5  C   UNL     1       7.500  -5.917   4.507  0.00  0.00    -0.002 C 
ATOM      6  C   UNL     1       8.477  -6.350   5.601  0.00  0.00    -0.000 C 
ATOM      7  C   UNL     1       8.012  -5.794   6.949  0.00  0.00    -0.002 C 
ATOM      8  C   UNL     1       6.617  -6.334   7.269  0.00  0.00    -0.015 C 
ENDBRANCH   1   3
BRANCH   1   9
ATOM      9  C   UNL     1       3.351  -5.962   5.457  0.00  0.00    -0.043 C 
BRANCH   9  10
ATOM     10  C   UNL     1       3.210  -4.440   5.535  0.00  0.00    +0.135 C 
BRANCH  10  11
ATOM     11  O   UNL     1       2.637  -4.079   6.793  0.00  0.00    -0.390 OA
ATOM     12  H   UNL     1       1.760  -4.455   6.949  0.00  0.00    +0.210 HD
ENDBRANCH  10  11
BRANCH  10  13
ATOM     13  C   UNL     1       2.304  -3.954   4.403  0.00  0.00    +0.258 C 
BRANCH  13  14
ATOM     14  O   UNL     1       2.265  -2.525   4.404  0.00  0.00    -0.489 OA
BRANCH  14  18
ATOM     15  C   UNL     1      -0.060  -0.710   1.516  0.00  0.00    +0.120 A 
ATOM     16  C   UNL     1       0.639   0.063   2.431  0.00  0.00    +0.049 A 
ATOM     17  C   UNL     1       1.417  -0.544   3.397  0.00  0.00    +0.049 A 
ATOM     18  C   UNL     1       1.499  -1.927   3.453  0.00  0.00    +0.121 A 
ATOM     19  C   UNL     1       0.799  -2.701   2.539  0.00  0.00    +0.049 A 
ATOM     20  C   UNL     1       0.018  -2.094   1.575  0.00  0.00    +0.049 A 
BRANCH  15  22
ATOM     21  C   UNL     1      -0.860   1.316   0.562  0.00  0.00    +0.277 C 
ATOM     22  O   UNL     1      -0.826  -0.113   0.565  0.00  0.00    -0.495 OA
ENDBRANCH  15  22
ENDBRANCH  14  18
ENDBRANCH  13  14
ENDBRANCH  10  13
ENDBRANCH   9  10
ENDBRANCH   1   9
BRANCH   1  23
ATOM     23  C   UNL     1       4.334  -7.888   6.497  0.00  0.00    -0.003 C 
BRANCH  23  24
ATOM     24  C   UNL     1       4.862  -8.364   7.826  0.00  0.00    +0.094 A 
ATOM     25  N   UNL     1       5.128  -9.684   8.003  0.00  0.00    -0.312 N 
ATOM     26  H   UNL     1       4.975 -10.302   7.271  0.00  0.00    +0.170 HD
ATOM     27  C   UNL     1       5.601 -10.152   9.173  0.00  0.00    +0.260 A 
ATOM     28  O   UNL     1       5.835 -11.339   9.317  0.00  0.00    -0.267 OA
ATOM     29  C   UNL     1       5.824  -9.229  10.248  0.00  0.00    +0.075 A 
ATOM     30  C   UNL     1       6.328  -9.513  11.595  0.00  0.00    -0.023 A 
ATOM     31  C   UNL     1       6.445  -8.462  12.432  0.00  0.00    -0.004 A 
ATOM     32  S   UNL     1       5.911  -7.057  11.488  0.00  0.00    -0.073 S 
ATOM     33  C   UNL     1       5.521  -7.888   9.970  0.00  0.00    +0.116 A 
ATOM     34  N   UNL     1       5.061  -7.499   8.784  0.00  0.00    -0.229 NA
ATOM     35  C   UNL     1       6.910  -8.468  13.855  0.00  0.00    +0.043 C 
ATOM     36  C   UNL     1       8.222  -9.257  13.955  0.00  0.00    +0.005 C 
ATOM     37  C   UNL     1       7.885 -10.721  14.215  0.00  0.00    +0.001 C 
ATOM     38  C   UNL     1       6.575 -11.087  13.520  0.00  0.00    +0.005 C 
ATOM     39  C   UNL     1       6.709 -10.931  12.010  0.00  0.00    +0.037 C 
ENDBRANCH  23  24
ENDBRANCH   1  23
TORSDOF 10
