REMARK  Name = ZINC63339707
REMARK  6 active torsions:
REMARK  status: ('A' for Active; 'I' for Inactive)
REMARK    1  A    between atoms: C_1  and  C_2
REMARK    2  A    between atoms: C_2  and  C_3
REMARK    3  A    between atoms: C_2  and  C_4
REMARK    4  A    between atoms: C_7  and  C_10
REMARK    5  A    between atoms: N_28  and  C_31
REMARK    6  A    between atoms: C_34  and  C_37
REMARK                            x       y       z     vdW  Elec       q    Type
REMARK                         _______ _______ _______ _____ _____    ______ ____
ROOT
ATOM      1  C   UNL     1       2.831  -1.928   4.691  0.00  0.00    +0.135 C 
ATOM      2  C   UNL     1       2.421  -1.084   5.906  0.00  0.00    +0.131 C 
ATOM      3  C   UNL     1       1.017  -1.519   6.303  0.00  0.00    -0.034 C 
ATOM      4  C   UNL     1       0.261  -0.427   6.263  0.00  0.00    -0.001 A 
ATOM      5  C   UNL     1      -1.155  -0.205   6.598  0.00  0.00    +0.010 A 
ATOM      6  C   UNL     1      -1.620   1.061   6.426  0.00  0.00    +0.001 A 
ATOM      7  C   UNL     1      -0.827   2.115   5.963  0.00  0.00    +0.002 A 
ATOM      8  C   UNL     1       0.485   2.003   5.637  0.00  0.00    +0.026 A 
ATOM      9  C   UNL     1       1.089   0.719   5.779  0.00  0.00    +0.043 A 
ATOM     10  N   UNL     1       2.322   0.336   5.557  0.00  0.00    -0.375 N 
ATOM     11  C   UNL     1       0.649  -2.955   6.596  0.00  0.00    +0.065 C 
ATOM     12  C   UNL     1       1.884  -3.803   6.248  0.00  0.00    +0.169 C 
ATOM     13  N   UNL     1       2.430  -3.314   4.963  0.00  0.00    -0.264 N 
ATOM     14  C   UNL     1       2.455  -4.360   4.128  0.00  0.00    +0.317 C 
ATOM     15  O   UNL     1       2.951  -4.331   3.019  0.00  0.00    -0.252 OA
ATOM     16  N   UNL     1       1.871  -5.444   4.657  0.00  0.00    -0.193 N 
ATOM     17  C   UNL     1       1.464  -5.226   5.951  0.00  0.00    +0.248 C 
ATOM     18  O   UNL     1       0.892  -5.991   6.697  0.00  0.00    -0.273 OA
ATOM     19  H   UNL     1       3.044   0.888   5.218  0.00  0.00    +0.160 HD
ENDROOT
BRANCH   1  23
ATOM     20  C   UNL     1       0.838  -0.501   1.192  0.00  0.00    -0.045 A 
ATOM     21  C   UNL     1       2.157  -0.158   1.425  0.00  0.00    +0.004 A 
ATOM     22  C   UNL     1       2.801  -0.619   2.558  0.00  0.00    +0.006 A 
ATOM     23  C   UNL     1       2.127  -1.424   3.457  0.00  0.00    -0.025 A 
ATOM     24  C   UNL     1       0.808  -1.766   3.225  0.00  0.00    +0.006 A 
ATOM     25  C   UNL     1       0.163  -1.301   2.095  0.00  0.00    +0.004 A 
BRANCH  20  27
ATOM     26  C   UNL     1       0.129   1.532  -0.038  0.00  0.00    +0.012 C 
ATOM     27  C   UNL     1       0.135   0.002  -0.042  0.00  0.00    +0.013 C 
ATOM     28  C   UNL     1       0.868  -0.501  -1.287  0.00  0.00    +0.012 C 
ENDBRANCH  20  27
ENDBRANCH   1  23
BRANCH  16  29
ATOM     29  C   UNL     1       1.703  -6.655   3.980  0.00  0.00    +0.045 A 
ATOM     30  C   UNL     1       1.195  -7.761   4.653  0.00  0.00    +0.025 A 
ATOM     31  C   UNL     1       1.028  -8.956   3.989  0.00  0.00    +0.017 A 
ATOM     32  C   UNL     1       1.370  -9.056   2.636  0.00  0.00    +0.063 A 
ATOM     33  C   UNL     1       1.880  -7.940   1.964  0.00  0.00    +0.017 A 
ATOM     34  C   UNL     1       2.039  -6.748   2.633  0.00  0.00    +0.025 A 
BRANCH  32  35
ATOM     35  C   UNL     1       1.194 -10.332   1.923  0.00  0.00    +0.387 C 
ATOM     36  O   UNL     1       0.748 -11.306   2.513  0.00  0.00    -0.241 OA
ATOM     37  O   UNL     1       1.493 -10.417   0.740  0.00  0.00    -0.241 OA
ENDBRANCH  32  35
ENDBRANCH  16  29
TORSDOF 4
