REMARK  Name = ZINC43746752
REMARK  5 active torsions:
REMARK  status: ('A' for Active; 'I' for Inactive)
REMARK    1  A    between atoms: C_1  and  C_2
REMARK    2  A    between atoms: C_6  and  O_38
REMARK    3  A    between atoms: C_7  and  C_37
REMARK    4  A    between atoms: C_12  and  C_13
REMARK    5  A    between atoms: C_13  and  C_14
REMARK                            x       y       z     vdW  Elec       q    Type
REMARK                         _______ _______ _______ _____ _____    ______ ____
ROOT
ATOM      1  C   UNL     1       3.164   0.094   1.101  0.00  0.00    +0.221 C 
ATOM      2  O   UNL     1       2.862  -0.804   1.859  0.00  0.00    -0.275 OA
ATOM      3  N   UNL     1       4.354   0.714   1.232  0.00  0.00    -0.294 N 
ATOM      4  C   UNL     1       4.941   1.467   0.114  0.00  0.00    +0.109 C 
ATOM      5  C   UNL     1       5.224   2.904   0.558  0.00  0.00    +0.023 C 
ATOM      6  C   UNL     1       6.158   2.897   1.774  0.00  0.00    +0.034 C 
ATOM      7  C   UNL     1       5.512   2.057   2.862  0.00  0.00    -0.053 C 
ATOM      8  C   UNL     1       5.344   2.574   4.042  0.00  0.00    -0.024 C 
ATOM      9  C   UNL     1       4.682   1.836   5.173  0.00  0.00    -0.002 C 
ATOM     10  C   UNL     1       4.882   0.330   4.973  0.00  0.00    +0.010 C 
ATOM     11  C   UNL     1       4.325  -0.034   3.593  0.00  0.00    -0.002 C 
ATOM     12  C   UNL     1       5.097   0.664   2.498  0.00  0.00    +0.103 C 
ATOM     13  C   UNL     1       2.862   0.405   3.517  0.00  0.00    -0.073 C 
ATOM     14  N   UNL     1       2.430   0.927   4.821  0.00  0.00    +0.382 N 
ATOM     15  C   UNL     1       3.183   2.165   5.168  0.00  0.00    -0.062 C 
ATOM     16  C   UNL     1       2.786   2.663   6.560  0.00  0.00    -0.015 C 
ATOM     17  C   UNL     1       1.290   2.985   6.580  0.00  0.00    -0.003 C 
ATOM     18  C   UNL     1       0.507   1.734   6.170  0.00  0.00    -0.019 C 
ATOM     19  C   UNL     1       0.992   1.224   4.760  0.00  0.00    -0.078 C 
ATOM     20  H   UNL     1       2.599   0.233   5.533  0.00  0.00    -0.081 HD
ENDROOT
BRANCH   1  21
ATOM     21  C   UNL     1       2.210   0.515   0.014  0.00  0.00    +0.138 C 
BRANCH  21  33
ATOM     22  C   UNL     1      -0.116   1.466   1.437  0.00  0.00    +0.045 C 
ATOM     23  C   UNL     1      -0.128   0.122   0.755  0.00  0.00    -0.029 A 
ATOM     24  C   UNL     1      -1.319  -0.730   0.791  0.00  0.00    +0.021 A 
ATOM     25  C   UNL     1      -2.478  -0.320   1.460  0.00  0.00    +0.015 A 
ATOM     26  C   UNL     1      -3.573  -1.133   1.479  0.00  0.00    +0.046 A 
ATOM     27  C   UNL     1      -3.546  -2.369   0.836  0.00  0.00    +0.123 A 
ATOM     28  C   UNL     1      -2.407  -2.790   0.169  0.00  0.00    +0.034 A 
ATOM     29  C   UNL     1      -1.285  -1.976   0.140  0.00  0.00    +0.146 A 
ATOM     30  O   UNL     1      -0.165  -2.368  -0.505  0.00  0.00    -0.422 OA
ATOM     31  C   UNL     1       0.929  -1.592  -0.542  0.00  0.00    +0.341 A 
ATOM     32  O   UNL     1       1.917  -1.987  -1.136  0.00  0.00    -0.245 OA
ATOM     33  C   UNL     1       0.964  -0.329   0.084  0.00  0.00    +0.049 A 
ATOM     34  C   UNL     1      -2.389  -4.129  -0.523  0.00  0.00    +0.051 C 
BRANCH  27  35
ATOM     35  O   UNL     1      -4.644  -3.167   0.863  0.00  0.00    -0.506 OA
ATOM     36  H   UNL     1      -5.256  -3.018   0.130  0.00  0.00    +0.292 HD
ENDBRANCH  27  35
ENDBRANCH  21  33
ENDBRANCH   1  21
TORSDOF 3
