REMARK  Name = ZINC39482920
REMARK  9 active torsions:
REMARK  status: ('A' for Active; 'I' for Inactive)
REMARK    1  A    between atoms: C_1  and  C_2
REMARK    2  A    between atoms: C_2  and  C_3
REMARK    3  A    between atoms: C_2  and  S_4
REMARK    4  A    between atoms: S_4  and  C_7
REMARK    5  A    between atoms: C_10  and  N_21
REMARK    6  A    between atoms: C_11  and  N_13
REMARK    7  A    between atoms: N_21  and  S_22
REMARK    8  A    between atoms: S_22  and  S_25
REMARK    9  A    between atoms: S_25  and  C_26
REMARK                            x       y       z     vdW  Elec       q    Type
REMARK                         _______ _______ _______ _____ _____    ______ ____
ROOT
ATOM      1  C   UNL     1       2.476   0.084  -1.381  0.00  0.00    +0.090 A 
ATOM      2  C   UNL     1       2.745   1.327  -1.923  0.00  0.00    +0.029 A 
ATOM      3  C   UNL     1       4.018   1.861  -1.840  0.00  0.00    +0.030 A 
ATOM      4  C   UNL     1       5.028   1.150  -1.211  0.00  0.00    +0.096 A 
ATOM      5  C   UNL     1       4.757  -0.104  -0.663  0.00  0.00    +0.056 A 
ATOM      6  C   UNL     1       3.476  -0.629  -0.747  0.00  0.00    +0.052 A 
ENDROOT
BRANCH   5   7
ATOM      7  N   UNL     1       5.773  -0.827  -0.027  0.00  0.00    -0.329 N 
ATOM      8  C   UNL     1       6.018  -0.678   1.415  0.00  0.00    +0.086 C 
ATOM      9  C   UNL     1       6.067  -2.073   2.047  0.00  0.00    -0.060 C 
ATOM     10  N   UNL     1       7.063  -2.892   1.344  0.00  0.00    +0.400 N 
ATOM     11  C   UNL     1       6.646  -3.103  -0.048  0.00  0.00    +0.119 C 
ATOM     12  C   UNL     1       6.621  -1.762  -0.782  0.00  0.00    +0.120 C 
ATOM     13  O   UNL     1       7.566  -3.985  -0.693  0.00  0.00    -0.250 OA
ATOM     14  H   UNL     1       7.955  -2.421   1.359  0.00  0.00    -0.082 HD
ATOM     15  H   UNL     1       7.150  -3.785   1.807  0.00  0.00    -0.082 HD
ENDBRANCH   5   7
BRANCH   1  16
ATOM     16  S   UNL     1       0.851  -0.589  -1.490  0.00  0.00    -0.001 S 
ATOM     17  O   UNL     1       1.037  -1.996  -1.428  0.00  0.00    -0.169 OA
ATOM     18  O   UNL     1       0.285   0.016  -2.645  0.00  0.00    -0.169 OA
BRANCH  16  20
ATOM     19  C   UNL     1      -0.019   1.526   0.010  0.00  0.00    +0.032 C 
ATOM     20  C   UNL     1       0.002  -0.004   0.002  0.00  0.00    +0.130 C 
ATOM     21  C   UNL     1      -1.433  -0.534   0.013  0.00  0.00    +0.032 C 
ENDBRANCH  16  20
ENDBRANCH   1  16
BRANCH   4  22
ATOM     22  N   UNL     1       6.318   1.689  -1.127  0.00  0.00    -0.090 NA
BRANCH  22  23
ATOM     23  S   UNL     1       6.638   3.177  -1.778  0.00  0.00    +0.116 S 
ATOM     24  O   UNL     1       6.488   3.045  -3.185  0.00  0.00    -0.142 OA
ATOM     25  O   UNL     1       5.896   4.121  -1.018  0.00  0.00    -0.142 OA
BRANCH  23  26
ATOM     26  S   UNL     1       8.619   3.576  -1.435  0.00  0.00    +0.016 S 
ATOM     27  C   UNL     1       9.492   2.525  -2.629  0.00  0.00    +0.112 C 
ENDBRANCH  23  26
ENDBRANCH  22  23
ENDBRANCH   4  22
TORSDOF 6
