REMARK  Name = ZINC36032812
REMARK  10 active torsions:
REMARK  status: ('A' for Active; 'I' for Inactive)
REMARK    1  A    between atoms: C_1  and  C_2
REMARK    2  A    between atoms: C_5  and  S_8
REMARK    3  A    between atoms: S_8  and  N_11
REMARK    4  A    between atoms: C_18  and  C_31
REMARK    5  A    between atoms: N_22  and  C_23
REMARK    6  A    between atoms: C_23  and  C_24
REMARK    7  A    between atoms: C_24  and  C_25
REMARK    8  A    between atoms: C_31  and  C_32
REMARK    9  A    between atoms: C_32  and  C_33
REMARK   10  A    between atoms: C_32  and  C_34
REMARK                            x       y       z     vdW  Elec       q    Type
REMARK                         _______ _______ _______ _____ _____    ______ ____
ROOT
ATOM      1  N   UNL     1       1.268  -6.040  -0.435  0.00  0.00    -0.177 NA
ATOM      2  C   UNL     1       2.151  -6.099  -1.609  0.00  0.00    +0.109 C 
ATOM      3  C   UNL     1       3.152  -4.941  -1.530  0.00  0.00    +0.023 C 
ATOM      4  C   UNL     1       3.876  -4.987  -0.186  0.00  0.00    +0.006 C 
ATOM      5  C   UNL     1       2.876  -4.848   0.961  0.00  0.00    +0.023 C 
ATOM      6  C   UNL     1       1.873  -5.999   0.903  0.00  0.00    +0.109 C 
ATOM      7  N   UNL     1       4.870  -3.896  -0.117  0.00  0.00    +0.401 N 
ATOM      8  C   UNL     1       6.111  -4.540  -0.610  0.00  0.00    +0.019 C 
ATOM      9  C   UNL     1       5.932  -6.011  -0.302  0.00  0.00    +0.200 C 
ATOM     10  O   UNL     1       6.814  -6.843  -0.279  0.00  0.00    -0.277 OA
ATOM     11  N   UNL     1       4.625  -6.240  -0.056  0.00  0.00    -0.313 N 
ATOM     12  H   UNL     1       4.602  -3.131  -0.719  0.00  0.00    -0.082 HD
ATOM     13  H   UNL     1       4.987  -3.579   0.834  0.00  0.00    -0.082 HD
ENDROOT
BRANCH   1  14
ATOM     14  S   UNL     1      -0.378  -6.012  -0.619  0.00  0.00    +0.061 S 
ATOM     15  O   UNL     1      -0.930  -6.504   0.595  0.00  0.00    -0.153 OA
ATOM     16  O   UNL     1      -0.656  -6.608  -1.878  0.00  0.00    -0.153 OA
BRANCH  14  21
ATOM     17  C   UNL     1      -2.033  -0.226  -1.046  0.00  0.00    +0.044 C 
ATOM     18  C   UNL     1      -1.619  -1.671  -0.939  0.00  0.00    -0.050 A 
ATOM     19  C   UNL     1      -1.297  -2.384  -2.079  0.00  0.00    +0.005 A 
ATOM     20  C   UNL     1      -0.918  -3.710  -1.981  0.00  0.00    +0.029 A 
ATOM     21  C   UNL     1      -0.860  -4.322  -0.743  0.00  0.00    +0.105 A 
ATOM     22  C   UNL     1      -1.181  -3.609   0.397  0.00  0.00    +0.029 A 
ATOM     23  C   UNL     1      -1.557  -2.282   0.299  0.00  0.00    +0.005 A 
ENDBRANCH  14  21
ENDBRANCH   1  14
BRANCH  11  24
ATOM     24  C   UNL     1       4.045  -7.541   0.287  0.00  0.00    +0.112 C 
BRANCH  24  25
ATOM     25  C   UNL     1       4.086  -7.733   1.804  0.00  0.00    +0.074 C 
BRANCH  25  26
ATOM     26  C   UNL     1       3.400  -9.025   2.166  0.00  0.00    +0.043 A 
ATOM     27  C   UNL     1       4.075  -9.970   2.917  0.00  0.00    +0.023 A 
ATOM     28  C   UNL     1       3.435 -11.155   3.244  0.00  0.00    +0.003 A 
ATOM     29  C   UNL     1       2.135 -11.348   2.801  0.00  0.00    +0.020 A 
ATOM     30  C   UNL     1       1.525 -10.359   2.054  0.00  0.00    +0.111 A 
ATOM     31  N   UNL     1       2.162  -9.241   1.766  0.00  0.00    -0.260 NA
ENDBRANCH  25  26
ENDBRANCH  24  25
ENDBRANCH  11  24
BRANCH   8  32
ATOM     32  C   UNL     1       6.261  -4.324  -2.118  0.00  0.00    -0.004 C 
BRANCH  32  33
ATOM     33  C   UNL     1       6.450  -2.832  -2.402  0.00  0.00    -0.018 C 
ATOM     34  C   UNL     1       7.771  -2.360  -1.792  0.00  0.00    +0.007 C 
ATOM     35  C   UNL     1       6.475  -2.601  -3.915  0.00  0.00    +0.007 C 
ENDBRANCH  32  33
ENDBRANCH   8  32
TORSDOF 7
