REMARK  Name = ZINC15970136
REMARK  6 active torsions:
REMARK  status: ('A' for Active; 'I' for Inactive)
REMARK    1  A    between atoms: C_1  and  C_2
REMARK    2  A    between atoms: C_2  and  C_4
REMARK    3  A    between atoms: C_2  and  N_15
REMARK    4  A    between atoms: N_6  and  C_7
REMARK    5  A    between atoms: C_7  and  C_8
REMARK    6  A    between atoms: C_16  and  C_18
REMARK                            x       y       z     vdW  Elec       q    Type
REMARK                         _______ _______ _______ _____ _____    ______ ____
ROOT
ATOM      1  C   UNL     1       7.650   6.819  -4.162  0.00  0.00    +0.167 C 
ATOM      2  C   UNL     1       8.796   5.917  -3.683  0.00  0.00    +0.069 C 
ATOM      3  C   UNL     1      10.121   6.463  -4.151  0.00  0.00    -0.015 A 
ATOM      4  C   UNL     1      11.441   6.091  -3.675  0.00  0.00    +0.003 A 
ATOM      5  C   UNL     1      11.871   5.187  -2.698  0.00  0.00    +0.010 A 
ATOM      6  C   UNL     1      13.226   5.084  -2.503  0.00  0.00    +0.001 A 
ATOM      7  C   UNL     1      14.133   5.836  -3.232  0.00  0.00    +0.002 A 
ATOM      8  C   UNL     1      13.735   6.738  -4.203  0.00  0.00    +0.026 A 
ATOM      9  C   UNL     1      12.365   6.863  -4.423  0.00  0.00    +0.047 A 
ATOM     10  N   UNL     1      11.642   7.638  -5.284  0.00  0.00    -0.356 N 
ATOM     11  H   UNL     1      12.019   8.263  -5.922  0.00  0.00    +0.166 HD
ATOM     12  C   UNL     1      10.306   7.399  -5.110  0.00  0.00    +0.046 A 
ATOM     13  C   UNL     1       9.165   8.056  -5.846  0.00  0.00    +0.155 C 
ATOM     14  N   UNL     1       7.961   7.253  -5.528  0.00  0.00    -0.273 N 
ATOM     15  C   UNL     1       7.306   6.997  -6.668  0.00  0.00    +0.248 C 
ATOM     16  O   UNL     1       6.183   6.538  -6.742  0.00  0.00    -0.270 OA
ATOM     17  C   UNL     1       8.149   7.356  -7.812  0.00  0.00    +0.042 A 
ATOM     18  C   UNL     1       9.316   7.981  -7.327  0.00  0.00    -0.009 A 
ATOM     19  C   UNL     1      10.319   8.392  -8.176  0.00  0.00    +0.006 A 
ATOM     20  C   UNL     1      10.124   8.176  -9.537  0.00  0.00    +0.000 A 
ATOM     21  C   UNL     1       8.979   7.576 -10.023  0.00  0.00    +0.001 A 
ATOM     22  C   UNL     1       7.963   7.150  -9.181  0.00  0.00    +0.013 A 
ENDROOT
BRANCH   1  24
ATOM     23  N   UNL     1       5.394   6.354  -3.262  0.00  0.00    -0.303 N 
ATOM     24  C   UNL     1       6.356   6.047  -4.154  0.00  0.00    +0.235 C 
ATOM     25  O   UNL     1       6.180   5.150  -4.951  0.00  0.00    -0.274 OA
ATOM     26  H   UNL     1       5.534   7.071  -2.624  0.00  0.00    +0.149 HD
BRANCH  23  28
ATOM     27  C   UNL     1       4.304   4.334  -2.416  0.00  0.00    +0.038 C 
ATOM     28  C   UNL     1       4.135   5.603  -3.254  0.00  0.00    +0.156 C 
BRANCH  28  29
ATOM     29  C   UNL     1       3.045   6.457  -2.660  0.00  0.00    +0.233 C 
ATOM     30  O   UNL     1       3.294   7.581  -2.280  0.00  0.00    -0.274 OA
ATOM     31  N   UNL     1       1.793   5.970  -2.550  0.00  0.00    -0.310 N 
ATOM     32  H   UNL     1       1.593   5.071  -2.854  0.00  0.00    +0.149 HD
BRANCH  31  33
ATOM     33  C   UNL     1       0.733   6.800  -1.972  0.00  0.00    +0.141 C 
BRANCH  33  34
ATOM     34  C   UNL     1      -0.562   6.028  -1.964  0.00  0.00    -0.012 A 
ATOM     35  C   UNL     1      -1.508   6.255  -2.946  0.00  0.00    +0.006 A 
ATOM     36  C   UNL     1      -2.695   5.547  -2.939  0.00  0.00    +0.000 A 
ATOM     37  C   UNL     1      -2.935   4.608  -1.953  0.00  0.00    +0.001 A 
ATOM     38  C   UNL     1      -1.992   4.383  -0.969  0.00  0.00    +0.020 A 
ATOM     39  C   UNL     1      -0.803   5.091  -0.975  0.00  0.00    +0.046 A 
ATOM     40 CL   UNL     1       0.385   4.805   0.258  0.00  0.00    -0.083 Cl
ENDBRANCH  33  34
ENDBRANCH  31  33
ENDBRANCH  28  29
ENDBRANCH  23  28
ENDBRANCH   1  24
TORSDOF 5
