REMARK  Name = ZINC09679239
REMARK  7 active torsions:
REMARK  status: ('A' for Active; 'I' for Inactive)
REMARK    1  A    between atoms: C_1  and  C_2
REMARK    2  A    between atoms: C_2  and  O_3
REMARK    3  A    between atoms: O_3  and  C_4
REMARK    4  A    between atoms: C_4  and  C_6
REMARK    5  A    between atoms: C_9  and  N_12
REMARK    6  A    between atoms: C_13  and  C_29
REMARK    7  A    between atoms: C_16  and  C_23
REMARK                            x       y       z     vdW  Elec       q    Type
REMARK                         _______ _______ _______ _____ _____    ______ ____
ROOT
ATOM      1  N   UNL     1       3.444  -4.001   5.840  0.00  0.00    -0.258 N 
ATOM      2  C   UNL     1       3.569  -5.433   6.198  0.00  0.00    +0.144 C 
ATOM      3  C   UNL     1       4.836  -5.490   7.011  0.00  0.00    +0.018 C 
ATOM      4  C   UNL     1       5.983  -5.947   7.479  0.00  0.00    +0.097 C 
ATOM      5  N   UNL     1       6.705  -4.924   8.025  0.00  0.00    -0.153 NA
ATOM      6  N   UNL     1       6.046  -3.888   8.203  0.00  0.00    -0.170 NA
ATOM      7  C   UNL     1       4.675  -4.170   7.796  0.00  0.00    +0.244 C 
ATOM      8  C   UNL     1       4.121  -3.248   6.744  0.00  0.00    +0.251 C 
ATOM      9  O   UNL     1       4.254  -2.043   6.711  0.00  0.00    -0.272 OA
ENDROOT
BRANCH   2  10
ATOM     10  C   UNL     1       3.693  -6.280   4.958  0.00  0.00    -0.004 A 
ATOM     11  C   UNL     1       4.266  -5.752   3.816  0.00  0.00    +0.008 A 
ATOM     12  C   UNL     1       4.380  -6.528   2.678  0.00  0.00    +0.020 A 
ATOM     13  C   UNL     1       3.921  -7.833   2.681  0.00  0.00    +0.042 A 
ATOM     14  C   UNL     1       3.348  -8.362   3.823  0.00  0.00    +0.040 A 
ATOM     15  C   UNL     1       3.238  -7.586   4.964  0.00  0.00    +0.048 A 
ATOM     16 CL   UNL     1       2.525  -8.250   6.400  0.00  0.00    -0.083 Cl
ATOM     17 CL   UNL     1       4.064  -8.808   1.251  0.00  0.00    -0.083 Cl
ENDBRANCH   2  10
BRANCH   1  21
ATOM     18  C   UNL     1       1.351  -2.517   2.559  0.00  0.00    +0.059 A 
ATOM     19  C   UNL     1       0.704  -3.331   3.493  0.00  0.00    +0.017 A 
ATOM     20  C   UNL     1       1.398  -3.820   4.576  0.00  0.00    +0.024 A 
ATOM     21  C   UNL     1       2.743  -3.505   4.742  0.00  0.00    +0.037 A 
ATOM     22  C   UNL     1       3.391  -2.694   3.815  0.00  0.00    +0.024 A 
ATOM     23  C   UNL     1       2.704  -2.207   2.726  0.00  0.00    +0.017 A 
BRANCH  18  24
ATOM     24  C   UNL     1       0.611  -1.991   1.397  0.00  0.00    +0.339 C 
ATOM     25  O   UNL     1       1.176  -1.288   0.584  0.00  0.00    -0.245 OA
BRANCH  24  26
ATOM     26  O   UNL     1      -0.693  -2.291   1.238  0.00  0.00    -0.461 OA
BRANCH  26  28
ATOM     27  C   UNL     1      -2.812  -2.194   0.079  0.00  0.00    +0.048 C 
ATOM     28  C   UNL     1      -1.348  -1.748   0.090  0.00  0.00    +0.229 C 
ENDBRANCH  26  28
ENDBRANCH  24  26
ENDBRANCH  18  24
ENDBRANCH   1  21
BRANCH   4  29
ATOM     29  C   UNL     1       6.422  -7.363   7.423  0.00  0.00    +0.002 A 
ATOM     30  C   UNL     1       6.314  -8.082   6.233  0.00  0.00    +0.010 A 
ATOM     31  C   UNL     1       6.725  -9.399   6.186  0.00  0.00    +0.001 A 
ATOM     32  C   UNL     1       7.243 -10.005   7.316  0.00  0.00    +0.000 A 
ATOM     33  C   UNL     1       7.353  -9.297   8.499  0.00  0.00    +0.001 A 
ATOM     34  C   UNL     1       6.950  -7.978   8.556  0.00  0.00    +0.010 A 
ENDBRANCH   4  29
TORSDOF 6
