REMARK  Name = ZINC47844183
REMARK  3 active torsions:
REMARK  status: ('A' for Active; 'I' for Inactive)
REMARK    1  A    between atoms: C_1  and  O_2
REMARK    2  A    between atoms: O_2  and  C_3
REMARK    3  A    between atoms: C_3  and  C_5
REMARK                            x       y       z     vdW  Elec       q    Type
REMARK                         _______ _______ _______ _____ _____    ______ ____
ROOT
ATOM      1  C   UNL     1      -1.244  -2.135   0.003  0.00  0.00    +0.270 C 
ATOM      2  N   UNL     1      -0.787  -2.650   1.291  0.00  0.00    -0.317 N 
ATOM      3  C   UNL     1      -1.510  -2.505   2.472  0.00  0.00    +0.055 A 
ATOM      4  C   UNL     1      -0.836  -2.599   3.689  0.00  0.00    +0.025 A 
ATOM      5  C   UNL     1      -1.526  -2.476   4.877  0.00  0.00    +0.002 A 
ATOM      6  C   UNL     1      -2.892  -2.261   4.870  0.00  0.00    +0.002 A 
ATOM      7  C   UNL     1      -3.568  -2.162   3.667  0.00  0.00    +0.030 A 
ATOM      8  C   UNL     1      -2.879  -2.275   2.478  0.00  0.00    +0.126 A 
ATOM      9  S   UNL     1      -3.740  -2.107   0.943  0.00  0.00    +0.062 S 
ATOM     10  O   UNL     1      -3.979  -0.719   0.751  0.00  0.00    -0.153 OA
ATOM     11  O   UNL     1      -4.781  -3.074   0.943  0.00  0.00    -0.153 OA
ATOM     12  N   UNL     1      -2.636  -2.576  -0.221  0.00  0.00    -0.159 NA
ATOM     13  H   UNL     1       0.062  -3.117   1.326  0.00  0.00    +0.148 HD
ATOM     14  H   UNL     1      -2.891  -3.106  -0.992  0.00  0.00    +0.151 HD
ENDROOT
BRANCH   1  15
ATOM     15  C   UNL     1      -1.185  -0.630   0.010  0.00  0.00    +0.344 C 
ATOM     16  O   UNL     1      -1.035  -0.036   1.052  0.00  0.00    -0.247 OA
BRANCH  15  18
ATOM     17  C   UNL     1      -1.236   1.477  -1.059  0.00  0.00    +0.280 C 
ATOM     18  O   UNL     1      -1.300   0.052  -1.141  0.00  0.00    -0.466 OA
ENDBRANCH  15  18
ENDBRANCH   1  15
TORSDOF 2
