REMARK  Name = ZINC66057728
REMARK  6 active torsions:
REMARK  status: ('A' for Active; 'I' for Inactive)
REMARK    1  A    between atoms: C_1  and  C_2
REMARK    2  A    between atoms: C_2  and  C_3
REMARK    3  A    between atoms: C_2  and  C_4
REMARK    4  A    between atoms: C_4  and  N_5
REMARK    5  A    between atoms: C_9  and  C_11
REMARK    6  A    between atoms: C_11  and  N_12
REMARK                            x       y       z     vdW  Elec       q    Type
REMARK                         _______ _______ _______ _____ _____    ______ ____
ROOT
ATOM      1  N   UNL     1      -5.075  -6.721  -0.384  0.00  0.00    -0.215 N 
ATOM      2  C   UNL     1      -5.744  -7.076   0.733  0.00  0.00    +0.247 C 
ATOM      3  O   UNL     1      -5.339  -7.036   1.876  0.00  0.00    -0.273 OA
ATOM      4  C   UNL     1      -7.104  -7.532   0.260  0.00  0.00    +0.117 C 
ATOM      5  C   UNL     1      -7.331  -8.998   0.625  0.00  0.00    +0.040 C 
ATOM      6  C   UNL     1      -7.105  -9.166   2.126  0.00  0.00    +0.038 C 
ATOM      7  C   UNL     1      -7.893  -8.142   2.900  0.00  0.00    -0.044 A 
ATOM      8  C   UNL     1      -8.116  -8.385   4.250  0.00  0.00    +0.004 A 
ATOM      9  C   UNL     1      -8.825  -7.484   5.017  0.00  0.00    +0.000 A 
ATOM     10  C   UNL     1      -9.318  -6.329   4.440  0.00  0.00    +0.000 A 
ATOM     11  C   UNL     1      -9.099  -6.086   3.100  0.00  0.00    +0.004 A 
ATOM     12  C   UNL     1      -8.389  -6.994   2.325  0.00  0.00    -0.042 A 
ATOM     13  C   UNL     1      -8.204  -6.674   0.864  0.00  0.00    +0.070 C 
ATOM     14  N   UNL     1      -7.050  -7.368  -1.197  0.00  0.00    -0.285 N 
ATOM     15  C   UNL     1      -5.825  -6.885  -1.480  0.00  0.00    +0.310 C 
ATOM     16  O   UNL     1      -5.442  -6.629  -2.605  0.00  0.00    -0.252 OA
ATOM     17  H   UNL     1      -7.758  -7.565  -1.831  0.00  0.00    +0.151 HD
ENDROOT
BRANCH   1  18
ATOM     18  C   UNL     1      -3.700  -6.214  -0.394  0.00  0.00    +0.214 C 
BRANCH  18  23
ATOM     19  N   UNL     1      -1.416  -1.993  -0.116  0.00  0.00    -0.299 N 
ATOM     20  C   UNL     1      -2.575  -2.682  -0.130  0.00  0.00    +0.306 C 
ATOM     21  O   UNL     1      -3.634  -2.092  -0.036  0.00  0.00    -0.252 OA
ATOM     22  N   UNL     1      -2.559  -4.024  -0.248  0.00  0.00    -0.239 N 
ATOM     23  C   UNL     1      -3.718  -4.713  -0.262  0.00  0.00    +0.238 C 
ATOM     24  O   UNL     1      -4.774  -4.125  -0.168  0.00  0.00    -0.274 OA
ATOM     25  H   UNL     1      -0.572  -2.463  -0.190  0.00  0.00    +0.150 HD
ATOM     26  H   UNL     1      -1.714  -4.495  -0.323  0.00  0.00    +0.159 HD
BRANCH  19  27
ATOM     27  C   UNL     1      -1.433  -0.534   0.013  0.00  0.00    +0.108 C 
BRANCH  27  29
ATOM     28  C   UNL     1      -0.019   1.526   0.010  0.00  0.00    +0.009 C 
ATOM     29  C   UNL     1       0.002  -0.004   0.002  0.00  0.00    -0.000 C 
ATOM     30  C   UNL     1       0.742  -0.511   1.242  0.00  0.00    +0.009 C 
ENDBRANCH  27  29
ENDBRANCH  19  27
ENDBRANCH  18  23
ENDBRANCH   1  18
TORSDOF 4
