REMARK  Name = ZINC02094253
REMARK  5 active torsions:
REMARK  status: ('A' for Active; 'I' for Inactive)
REMARK    1  A    between atoms: C_5  and  C_7
REMARK    2  A    between atoms: C_7  and  O_8
REMARK    3  A    between atoms: O_8  and  C_9
REMARK    4  A    between atoms: C_14  and  C_15
REMARK    5  A    between atoms: N_21  and  C_22
REMARK                            x       y       z     vdW  Elec       q    Type
REMARK                         _______ _______ _______ _____ _____    ______ ____
ROOT
ATOM      1  C   UNL     1      -2.743  -3.716   0.009  0.00  0.00    +0.032 C 
ATOM      2  C   UNL     1      -3.865  -4.082  -0.660  0.00  0.00    +0.078 C 
ATOM      3  C   UNL     1      -5.117  -3.331  -0.870  0.00  0.00    +0.256 C 
ATOM      4  O   UNL     1      -5.270  -2.211  -0.419  0.00  0.00    -0.269 OA
ATOM      5  N   UNL     1      -6.066  -3.929  -1.571  0.00  0.00    -0.260 N 
ATOM      6  C   UNL     1      -5.873  -5.198  -2.073  0.00  0.00    +0.166 C 
ATOM      7  N   UNL     1      -6.702  -5.931  -2.782  0.00  0.00    -0.226 NA
ATOM      8  S   UNL     1      -4.220  -5.601  -1.532  0.00  0.00    -0.049 S 
ATOM      9  H   UNL     1      -6.905  -3.471  -1.732  0.00  0.00    +0.157 HD
ENDROOT
BRANCH   7  10
ATOM     10  C   UNL     1      -6.329  -7.181  -3.195  0.00  0.00    +0.067 A 
ATOM     11  C   UNL     1      -5.059  -7.391  -3.736  0.00  0.00    +0.029 A 
ATOM     12  C   UNL     1      -4.689  -8.653  -4.151  0.00  0.00    +0.022 A 
ATOM     13  C   UNL     1      -5.574  -9.712  -4.031  0.00  0.00    +0.041 A 
ATOM     14  C   UNL     1      -6.835  -9.510  -3.495  0.00  0.00    +0.022 A 
ATOM     15  C   UNL     1      -7.215  -8.254  -3.071  0.00  0.00    +0.029 A 
ATOM     16 CL   UNL     1      -5.101 -11.297  -4.555  0.00  0.00    -0.084 Cl
ENDBRANCH   7  10
BRANCH   1  22
ATOM     17  C   UNL     1      -0.372  -4.252   0.554  0.00  0.00    +0.128 A 
ATOM     18  C   UNL     1       0.635  -5.181   0.760  0.00  0.00    +0.046 A 
ATOM     19  C   UNL     1       0.368  -6.531   0.638  0.00  0.00    +0.004 A 
ATOM     20  C   UNL     1      -0.905  -6.968   0.308  0.00  0.00    +0.001 A 
ATOM     21  C   UNL     1      -1.920  -6.060   0.099  0.00  0.00    +0.011 A 
ATOM     22  C   UNL     1      -1.665  -4.689   0.225  0.00  0.00    +0.018 A 
BRANCH  17  23
ATOM     23  O   UNL     1      -0.111  -2.925   0.674  0.00  0.00    -0.487 OA
BRANCH  23  24
ATOM     24  C   UNL     1       1.228  -2.555   1.010  0.00  0.00    +0.266 C 
BRANCH  24  29
ATOM     25  C   UNL     1       0.301   1.104   0.947  0.00  0.00    +0.000 A 
ATOM     26  C   UNL     1       1.508   1.701   1.262  0.00  0.00    +0.001 A 
ATOM     27  C   UNL     1       2.625   0.920   1.496  0.00  0.00    +0.020 A 
ATOM     28  C   UNL     1       2.534  -0.458   1.415  0.00  0.00    +0.047 A 
ATOM     29  C   UNL     1       1.327  -1.054   1.100  0.00  0.00    +0.008 A 
ATOM     30  C   UNL     1       0.210  -0.273   0.866  0.00  0.00    +0.008 A 
ATOM     31 CL   UNL     1       3.937  -1.439   1.708  0.00  0.00    -0.083 Cl
ENDBRANCH  24  29
ENDBRANCH  23  24
ENDBRANCH  17  23
ENDBRANCH   1  22
TORSDOF 5
