REMARK  Name = ZINC16049324
REMARK  7 active torsions:
REMARK  status: ('A' for Active; 'I' for Inactive)
REMARK    1  A    between atoms: C_1  and  C_2
REMARK    2  A    between atoms: C_2  and  N_3
REMARK    3  A    between atoms: C_12  and  S_13
REMARK    4  A    between atoms: S_13  and  C_14
REMARK    5  A    between atoms: C_14  and  C_15
REMARK    6  A    between atoms: C_15  and  C_17
REMARK    7  A    between atoms: C_24  and  C_28
REMARK                            x       y       z     vdW  Elec       q    Type
REMARK                         _______ _______ _______ _____ _____    ______ ____
ROOT
ATOM      1  N   UNL     1      -2.103   1.072   1.277  0.00  0.00    -0.288 N 
ATOM      2  C   UNL     1      -3.080   1.802   0.709  0.00  0.00    +0.263 A 
ATOM      3  O   UNL     1      -2.828   2.876   0.190  0.00  0.00    -0.267 OA
ATOM      4  C   UNL     1      -4.420   1.299   0.718  0.00  0.00    +0.076 A 
ATOM      5  C   UNL     1      -5.625   1.916   0.161  0.00  0.00    -0.023 A 
ATOM      6  C   UNL     1      -6.782   1.238   0.303  0.00  0.00    -0.004 A 
ATOM      7  S   UNL     1      -6.344  -0.241   1.177  0.00  0.00    -0.073 S 
ATOM      8  C   UNL     1      -4.602   0.056   1.347  0.00  0.00    +0.117 A 
ATOM      9  N   UNL     1      -3.595  -0.613   1.895  0.00  0.00    -0.216 NA
ATOM     10  C   UNL     1      -2.369  -0.129   1.868  0.00  0.00    +0.173 A 
ATOM     11  C   UNL     1      -8.140   1.651  -0.174  0.00  0.00    +0.046 C 
ATOM     12  C   UNL     1      -8.095   3.143  -0.532  0.00  0.00    -0.009 C 
ATOM     13  C   UNL     1      -6.860   3.404  -1.399  0.00  0.00    +0.008 C 
ATOM     14  C   UNL     1      -5.594   3.264  -0.553  0.00  0.00    +0.037 C 
ATOM     15  C   UNL     1      -9.359   3.524  -1.306  0.00  0.00    +0.008 C 
ENDROOT
BRANCH   1  17
ATOM     16  C   UNL     1      -0.013   1.086   0.008  0.00  0.00    +0.027 C 
ATOM     17  C   UNL     1      -0.729   1.579   1.267  0.00  0.00    +0.124 C 
ENDBRANCH   1  17
BRANCH  10  18
ATOM     18  S   UNL     1      -1.056  -1.044   2.605  0.00  0.00    -0.080 S 
BRANCH  18  19
ATOM     19  C   UNL     1      -1.974  -2.486   3.201  0.00  0.00    +0.158 C 
BRANCH  19  20
ATOM     20  C   UNL     1      -1.027  -3.436   3.887  0.00  0.00    +0.189 C 
ATOM     21  O   UNL     1       0.154  -3.165   3.966  0.00  0.00    -0.290 OA
BRANCH  20  22
ATOM     22  C   UNL     1      -1.514  -4.643   4.439  0.00  0.00    +0.083 A 
ATOM     23  C   UNL     1      -2.828  -5.078   4.430  0.00  0.00    +0.030 A 
ATOM     24  C   UNL     1      -2.852  -6.314   5.078  0.00  0.00    +0.020 A 
ATOM     25  C   UNL     1      -1.587  -6.603   5.472  0.00  0.00    +0.083 A 
ATOM     26  N   UNL     1      -0.767  -5.601   5.092  0.00  0.00    -0.358 N 
ATOM     27  H   UNL     1       0.189  -5.562   5.252  0.00  0.00    +0.165 HD
ENDBRANCH  20  22
ENDBRANCH  19  20
ENDBRANCH  18  19
ENDBRANCH  10  18
TORSDOF 5
