REMARK  Name = ZINC38931735
REMARK  9 active torsions:
REMARK  status: ('A' for Active; 'I' for Inactive)
REMARK    1  A    between atoms: C_1  and  C_2
REMARK    2  A    between atoms: C_2  and  O_3
REMARK    3  A    between atoms: O_3  and  C_4
REMARK    4  A    between atoms: C_4  and  C_6
REMARK    5  A    between atoms: C_6  and  N_7
REMARK    6  A    between atoms: C_11  and  S_27
REMARK    7  A    between atoms: N_16  and  C_17
REMARK    8  A    between atoms: C_17  and  C_19
REMARK    9  A    between atoms: S_27  and  N_30
REMARK                            x       y       z     vdW  Elec       q    Type
REMARK                         _______ _______ _______ _____ _____    ______ ____
ROOT
ATOM      1  N   UNL     1      -2.784  -3.888   0.008  0.00  0.00    -0.310 N 
ATOM      2  C   UNL     1      -2.745  -4.573  -1.192  0.00  0.00    +0.058 A 
ATOM      3  C   UNL     1      -2.785  -4.071  -2.500  0.00  0.00    +0.029 A 
ATOM      4  C   UNL     1      -2.736  -4.922  -3.579  0.00  0.00    +0.030 A 
ATOM      5  C   UNL     1      -2.644  -6.293  -3.408  0.00  0.00    +0.106 A 
ATOM      6  C   UNL     1      -2.602  -6.815  -2.126  0.00  0.00    +0.045 A 
ATOM      7  C   UNL     1      -2.652  -5.965  -1.047  0.00  0.00    +0.041 A 
ATOM      8  S   UNL     1      -2.628  -6.186   0.713  0.00  0.00    -0.052 S 
ATOM      9  C   UNL     1      -2.728  -4.574   1.179  0.00  0.00    +0.167 A 
ATOM     10  N   UNL     1      -2.748  -4.083   2.413  0.00  0.00    -0.152 NA
ENDROOT
BRANCH   5  11
ATOM     11  S   UNL     1      -2.582  -7.363  -4.806  0.00  0.00    +0.056 S 
ATOM     12  O   UNL     1      -3.047  -8.632  -4.368  0.00  0.00    -0.153 OA
ATOM     13  O   UNL     1      -3.187  -6.660  -5.882  0.00  0.00    -0.153 OA
BRANCH  11  14
ATOM     14  N   UNL     1      -0.986  -7.556  -5.205  0.00  0.00    -0.204 NA
ATOM     15  H   UNL     1      -0.299  -7.109  -4.686  0.00  0.00    +0.144 HD
ATOM     16  H   UNL     1      -0.738  -8.116  -5.957  0.00  0.00    +0.144 HD
ENDBRANCH  11  14
ENDBRANCH   5  11
BRANCH  10  17
ATOM     17  C   UNL     1      -2.684  -4.909   3.463  0.00  0.00    +0.271 C 
ATOM     18  O   UNL     1      -2.606  -6.113   3.287  0.00  0.00    -0.268 OA
BRANCH  17  19
ATOM     19  C   UNL     1      -2.707  -4.362   4.837  0.00  0.00    +0.057 A 
ATOM     20  C   UNL     1      -2.802  -2.984   5.041  0.00  0.00    +0.017 A 
ATOM     21  C   UNL     1      -2.823  -2.479   6.323  0.00  0.00    +0.039 A 
ATOM     22  C   UNL     1      -2.750  -3.336   7.411  0.00  0.00    +0.125 A 
ATOM     23  C   UNL     1      -2.655  -4.705   7.215  0.00  0.00    +0.059 A 
ATOM     24  C   UNL     1      -2.639  -5.222   5.935  0.00  0.00    +0.056 A 
ATOM     25 CL   UNL     1      -2.528  -6.937   5.691  0.00  0.00    -0.083 Cl
ATOM     26  F   UNL     1      -2.770  -2.836   8.665  0.00  0.00    -0.205 F 
ENDBRANCH  17  19
ENDBRANCH  10  17
BRANCH   1  27
ATOM     27  C   UNL     1      -2.881  -2.427   0.017  0.00  0.00    +0.244 C 
BRANCH  27  28
ATOM     28  C   UNL     1      -1.496  -1.832   0.006  0.00  0.00    +0.327 C 
ATOM     29  O   UNL     1      -0.528  -2.555  -0.007  0.00  0.00    -0.249 OA
BRANCH  28  30
ATOM     30  O   UNL     1      -1.339  -0.499   0.012  0.00  0.00    -0.464 OA
BRANCH  30  32
ATOM     31  C   UNL     1      -0.019   1.526   0.010  0.00  0.00    +0.048 C 
ATOM     32  C   UNL     1       0.002  -0.004   0.002  0.00  0.00    +0.229 C 
ENDBRANCH  30  32
ENDBRANCH  28  30
ENDBRANCH  27  28
ENDBRANCH   1  27
TORSDOF 8
