REMARK  Name = ZINC09777364
REMARK  9 active torsions:
REMARK  status: ('A' for Active; 'I' for Inactive)
REMARK    1  A    between atoms: C_1  and  C_2
REMARK    2  A    between atoms: C_6  and  N_8
REMARK    3  A    between atoms: C_9  and  C_11
REMARK    4  A    between atoms: N_22  and  C_37
REMARK    5  A    between atoms: C_23  and  C_25
REMARK    6  A    between atoms: N_27  and  C_28
REMARK    7  A    between atoms: C_34  and  C_36
REMARK    8  A    between atoms: C_42  and  C_47
REMARK    9  A    between atoms: C_44  and  C_46
REMARK                            x       y       z     vdW  Elec       q    Type
REMARK                         _______ _______ _______ _____ _____    ______ ____
ROOT
ATOM      1  C   UNL     1      -1.975   4.429  -3.008  0.00  0.00    +0.123 C 
ATOM      2  C   UNL     1      -2.268   5.842  -2.408  0.00  0.00    +0.155 C 
ATOM      3  C   UNL     1      -3.791   5.969  -2.291  0.00  0.00    +0.004 C 
ATOM      4  C   UNL     1      -4.179   5.185  -1.277  0.00  0.00    +0.009 C 
ATOM      5  C   UNL     1      -2.914   4.560  -0.811  0.00  0.00    +0.127 C 
ATOM      6  C   UNL     1      -2.490   3.500  -1.894  0.00  0.00    +0.128 C 
ATOM      7  C   UNL     1      -1.422   2.747  -1.153  0.00  0.00    +0.224 C 
ATOM      8  O   UNL     1      -0.508   2.138  -1.667  0.00  0.00    -0.275 OA
ATOM      9  N   UNL     1      -1.642   2.854   0.182  0.00  0.00    -0.283 N 
ATOM     10  C   UNL     1      -2.771   3.775   0.458  0.00  0.00    +0.199 C 
ATOM     11  O   UNL     1      -1.914   5.598  -0.998  0.00  0.00    -0.358 OA
ENDROOT
BRANCH   9  12
ATOM     12  C   UNL     1      -0.872   2.151   1.211  0.00  0.00    +0.080 C 
ATOM     13  C   UNL     1      -1.487   2.425   2.584  0.00  0.00    +0.023 C 
ATOM     14  C   UNL     1      -0.683   1.690   3.659  0.00  0.00    +0.002 C 
ATOM     15  C   UNL     1       0.765   2.185   3.640  0.00  0.00    +0.003 C 
ATOM     16  C   UNL     1       1.380   1.911   2.266  0.00  0.00    -0.009 C 
ATOM     17  C   UNL     1       0.576   2.646   1.192  0.00  0.00    +0.009 C 
ATOM     18  C   UNL     1       0.604   4.150   1.473  0.00  0.00    +0.009 C 
ATOM     19  C   UNL     1       2.828   2.406   2.248  0.00  0.00    +0.008 C 
ENDBRANCH   9  12
BRANCH   1  21
ATOM     20  N   UNL     1      -0.065   3.355  -4.156  0.00  0.00    -0.285 N 
ATOM     21  C   UNL     1      -0.497   4.234  -3.231  0.00  0.00    +0.224 C 
ATOM     22  O   UNL     1       0.304   4.869  -2.577  0.00  0.00    -0.275 OA
ATOM     23  H   UNL     1      -0.702   2.794  -4.627  0.00  0.00    +0.155 HD
BRANCH  20  29
ATOM     24  C   UNL     1       4.347   5.486  -4.561  0.00  0.00    +0.044 C 
ATOM     25  C   UNL     1       3.463   4.268  -4.643  0.00  0.00    -0.049 A 
ATOM     26  C   UNL     1       4.003   3.045  -4.997  0.00  0.00    +0.003 A 
ATOM     27  C   UNL     1       3.196   1.925  -5.074  0.00  0.00    +0.002 A 
ATOM     28  C   UNL     1       1.847   2.025  -4.795  0.00  0.00    +0.023 A 
ATOM     29  C   UNL     1       1.301   3.251  -4.439  0.00  0.00    +0.034 A 
ATOM     30  C   UNL     1       2.114   4.375  -4.369  0.00  0.00    +0.026 A 
ENDBRANCH  20  29
ENDBRANCH   1  21
BRANCH  10  31
ATOM     31  C   UNL     1      -4.029   2.997   0.747  0.00  0.00    +0.237 C 
ATOM     32  O   UNL     1      -4.113   1.835   0.412  0.00  0.00    -0.274 OA
ATOM     33  N   UNL     1      -5.059   3.593   1.378  0.00  0.00    -0.311 N 
ATOM     34  H   UNL     1      -4.992   4.523   1.646  0.00  0.00    +0.149 HD
BRANCH  33  35
ATOM     35  C   UNL     1      -6.282   2.837   1.659  0.00  0.00    +0.076 C 
ATOM     36  C   UNL     1      -7.199   2.877   0.435  0.00  0.00    +0.022 C 
ATOM     37  C   UNL     1      -7.560   4.329   0.115  0.00  0.00    +0.002 C 
ATOM     38  C   UNL     1      -8.280   4.952   1.313  0.00  0.00    +0.000 C 
ATOM     39  C   UNL     1      -7.363   4.912   2.537  0.00  0.00    +0.005 C 
ATOM     40  C   UNL     1      -7.003   3.459   2.857  0.00  0.00    +0.006 C 
ATOM     41  C   UNL     1      -6.086   3.419   4.081  0.00  0.00    +0.009 C 
ENDBRANCH  33  35
ENDBRANCH  10  31
TORSDOF 5
