REMARK  Name = ZINC39467132
REMARK  7 active torsions:
REMARK  status: ('A' for Active; 'I' for Inactive)
REMARK    1  A    between atoms: C_1  and  C_2
REMARK    2  A    between atoms: C_2  and  O_3
REMARK    3  A    between atoms: O_3  and  C_4
REMARK    4  A    between atoms: C_16  and  C_17
REMARK    5  A    between atoms: C_22  and  O_23
REMARK    6  A    between atoms: P_26  and  C_29
REMARK    7  A    between atoms: C_34  and  O_35
REMARK                            x       y       z     vdW  Elec       q    Type
REMARK                         _______ _______ _______ _____ _____    ______ ____
ROOT
ATOM      1  C   UNL     1       0.777  -1.810  -1.336  0.00  0.00    +0.124 C 
ATOM      2  C   UNL     1       0.263  -2.640  -0.423  0.00  0.00    +0.021 C 
ATOM      3  C   UNL     1       0.387  -4.123  -0.639  0.00  0.00    +0.008 C 
ATOM      4  C   UNL     1      -0.673  -4.894   0.138  0.00  0.00    -0.046 C 
ATOM      5  N   UNL     1      -0.487  -6.342  -0.066  0.00  0.00    +0.398 N 
ATOM      6  C   UNL     1      -0.604  -6.702  -1.479  0.00  0.00    -0.020 C 
ATOM      7  C   UNL     1       0.408  -5.925  -2.333  0.00  0.00    -0.003 C 
ATOM      8  C   UNL     1       0.195  -4.428  -2.130  0.00  0.00    +0.016 C 
ATOM      9  C   UNL     1       1.187  -3.622  -2.923  0.00  0.00    -0.011 C 
ATOM     10  C   UNL     1       1.457  -2.366  -2.530  0.00  0.00    +0.023 C 
ATOM     11  C   UNL     1      -0.313  -8.191  -1.704  0.00  0.00    +0.157 C 
ATOM     12  O   UNL     1      -1.280  -8.980  -0.987  0.00  0.00    -0.316 OA
ATOM     13  P   UNL     1      -1.530  -8.629   0.582  0.00  0.00    +0.291 P 
ATOM     14  O   UNL     1      -0.471  -9.237   1.418  0.00  0.00    -0.269 OA
ATOM     15  N   UNL     1      -1.470  -6.966   0.672  0.00  0.00    -0.288 NA
ATOM     16  H   UNL     1      -2.083  -6.456   1.226  0.00  0.00    +0.111 HD
ATOM     17  H   UNL     1       0.420  -6.617   0.280  0.00  0.00    -0.055 HD
ENDROOT
BRANCH  10  18
ATOM     18  C   UNL     1       2.434  -1.543  -3.284  0.00  0.00    +0.027 A 
ATOM     19  C   UNL     1       2.080  -0.986  -4.511  0.00  0.00    +0.012 A 
ATOM     20  C   UNL     1       2.993  -0.222  -5.209  0.00  0.00    +0.001 A 
ATOM     21  C   UNL     1       4.259  -0.006  -4.694  0.00  0.00    +0.004 A 
ATOM     22  C   UNL     1       4.621  -0.554  -3.478  0.00  0.00    +0.046 A 
ATOM     23  C   UNL     1       3.712  -1.319  -2.764  0.00  0.00    +0.125 A 
BRANCH  23  24
ATOM     24  O   UNL     1       4.065  -1.854  -1.566  0.00  0.00    -0.506 OA
ATOM     25  H   UNL     1       4.461  -2.733  -1.629  0.00  0.00    +0.292 HD
ENDBRANCH  23  24
ENDBRANCH  10  18
BRANCH  13  26
ATOM     26  C   UNL     1      -3.162  -9.221   1.107  0.00  0.00    +0.091 A 
ATOM     27  C   UNL     1      -4.266  -8.399   0.990  0.00  0.00    +0.018 A 
ATOM     28  C   UNL     1      -5.511  -8.849   1.390  0.00  0.00    +0.001 A 
ATOM     29  C   UNL     1      -5.653 -10.123   1.908  0.00  0.00    +0.004 A 
ATOM     30  C   UNL     1      -4.553 -10.949   2.026  0.00  0.00    +0.046 A 
ATOM     31  C   UNL     1      -3.304 -10.501   1.620  0.00  0.00    +0.131 A 
BRANCH  31  32
ATOM     32  O   UNL     1      -2.220 -11.314   1.730  0.00  0.00    -0.506 OA
ATOM     33  H   UNL     1      -1.757 -11.240   2.576  0.00  0.00    +0.292 HD
ENDBRANCH  31  32
ENDBRANCH  13  26
BRANCH   1  34
ATOM     34  O   UNL     1       0.671  -0.465  -1.174  0.00  0.00    -0.492 OA
BRANCH  34  36
ATOM     35  C   UNL     1      -0.019   1.526   0.010  0.00  0.00    +0.048 C 
ATOM     36  C   UNL     1       0.002  -0.004   0.002  0.00  0.00    +0.225 C 
ENDBRANCH  34  36
ENDBRANCH   1  34
TORSDOF 6
