REMARK  Name = ZINC03146797
REMARK  13 active torsions:
REMARK  status: ('A' for Active; 'I' for Inactive)
REMARK    1  A    between atoms: C_1  and  C_2
REMARK    2  A    between atoms: C_5  and  N_8
REMARK    3  A    between atoms: C_13  and  C_14
REMARK    4  A    between atoms: C_13  and  C_15
REMARK    5  A    between atoms: N_16  and  C_17
REMARK    6  A    between atoms: C_17  and  C_19
REMARK    7  A    between atoms: C_17  and  C_34
REMARK    8  A    between atoms: C_19  and  N_21
REMARK    9  A    between atoms: C_19  and  O_26
REMARK   10  A    between atoms: O_26  and  C_27
REMARK   11  A    between atoms: C_34  and  C_35
REMARK   12  A    between atoms: C_34  and  C_36
REMARK   13  A    between atoms: C_34  and  C_37
REMARK                            x       y       z     vdW  Elec       q    Type
REMARK                         _______ _______ _______ _____ _____    ______ ____
ROOT
ATOM      1  C   UNL     1       0.148  -8.663   0.393  0.00  0.00    +0.140 C 
ENDROOT
BRANCH   1  10
ATOM      2  N   UNL     1       1.229  -4.043   0.448  0.00  0.00    -0.270 N 
ATOM      3  C   UNL     1       1.113  -4.720  -0.712  0.00  0.00    +0.143 C 
ATOM      4  S   UNL     1       1.336  -4.014  -2.255  0.00  0.00    -0.018 S 
ATOM      5  N   UNL     1       0.804  -6.005  -0.516  0.00  0.00    -0.287 N 
ATOM      6  C   UNL     1       0.688  -6.305   0.752  0.00  0.00    +0.089 C 
ATOM      7  C   UNL     1       0.966  -5.026   1.515  0.00  0.00    +0.087 C 
ATOM      8  C   UNL     1      -0.257  -4.614   2.337  0.00  0.00    +0.039 C 
ATOM      9  C   UNL     1       2.193  -5.187   2.414  0.00  0.00    +0.039 C 
ATOM     10  N   UNL     1       0.384  -7.519   1.278  0.00  0.00    -0.325 N 
ATOM     11  H   UNL     1       0.322  -7.630   2.240  0.00  0.00    +0.147 HD
ATOM     12  H   UNL     1       0.680  -6.644  -1.235  0.00  0.00    +0.155 HD
BRANCH   2  17
ATOM     13  C   UNL     1       2.496   1.448   1.091  0.00  0.00    +0.044 C 
ATOM     14  C   UNL     1       2.159  -0.011   0.921  0.00  0.00    -0.050 A 
ATOM     15  C   UNL     1       0.949  -0.379   0.361  0.00  0.00    +0.005 A 
ATOM     16  C   UNL     1       0.638  -1.715   0.202  0.00  0.00    +0.024 A 
ATOM     17  C   UNL     1       1.542  -2.690   0.606  0.00  0.00    +0.036 A 
ATOM     18  C   UNL     1       2.756  -2.317   1.168  0.00  0.00    +0.024 A 
ATOM     19  C   UNL     1       3.063  -0.979   1.319  0.00  0.00    +0.005 A 
ENDBRANCH   2  17
ENDBRANCH   1  10
BRANCH   1  20
ATOM     20  C   UNL     1       1.485  -9.316   0.037  0.00  0.00    -0.014 C 
ATOM     21  C   UNL     1       2.250  -9.646   1.320  0.00  0.00    +0.012 C 
ATOM     22  C   UNL     1       1.231 -10.602  -0.751  0.00  0.00    +0.012 C 
ATOM     23  C   UNL     1       2.313  -8.351  -0.816  0.00  0.00    +0.012 C 
ENDBRANCH   1  20
BRANCH   1  24
ATOM     24  C   UNL     1      -0.744  -9.683   1.104  0.00  0.00    +0.315 C 
BRANCH  24  25
ATOM     25  N   UNL     1      -2.038  -9.069   1.413  0.00  0.00    -0.211 N 
ATOM     26  C   UNL     1      -3.251  -9.531   1.066  0.00  0.00    +0.223 A 
ATOM     27  N   UNL     1      -4.149  -8.700   1.529  0.00  0.00    -0.223 NA
ATOM     28  C   UNL     1      -3.550  -7.700   2.174  0.00  0.00    +0.245 A 
ATOM     29  N   UNL     1      -2.256  -7.884   2.134  0.00  0.00    -0.155 NA
ENDBRANCH  24  25
BRANCH  24  30
ATOM     30  O   UNL     1      -0.114 -10.102   2.317  0.00  0.00    -0.465 OA
BRANCH  30  31
ATOM     31  C   UNL     1      -0.461 -11.324   2.801  0.00  0.00    +0.124 A 
ATOM     32  C   UNL     1       0.074 -11.774   3.999  0.00  0.00    +0.047 A 
ATOM     33  C   UNL     1      -0.279 -13.016   4.490  0.00  0.00    +0.023 A 
ATOM     34  C   UNL     1      -1.166 -13.812   3.787  0.00  0.00    +0.041 A 
ATOM     35  C   UNL     1      -1.701 -13.365   2.591  0.00  0.00    +0.023 A 
ATOM     36  C   UNL     1      -1.355 -12.121   2.101  0.00  0.00    +0.047 A 
ATOM     37 CL   UNL     1      -1.608 -15.372   4.405  0.00  0.00    -0.084 Cl
ENDBRANCH  30  31
ENDBRANCH  24  30
ENDBRANCH   1  24
TORSDOF 7
