REMARK  Name = ZINC07702000
REMARK  5 active torsions:
REMARK  status: ('A' for Active; 'I' for Inactive)
REMARK    1  A    between atoms: C_4  and  C_7
REMARK    2  A    between atoms: C_7  and  C_9
REMARK    3  A    between atoms: C_7  and  N_14
REMARK    4  A    between atoms: N_14  and  S_15
REMARK    5  A    between atoms: S_15  and  C_18
REMARK                            x       y       z     vdW  Elec       q    Type
REMARK                         _______ _______ _______ _____ _____    ______ ____
ROOT
ATOM      1  N   UNL     1       4.338  -1.074  -1.639  0.00  0.00    -0.178 NA
ATOM      2  H   UNL     1       4.380  -1.972  -2.003  0.00  0.00    +0.149 HD
ENDROOT
BRANCH   1   3
ATOM      3  S   UNL     1       3.931  -0.843  -0.050  0.00  0.00    +0.059 S 
ATOM      4  O   UNL     1       4.904   0.039   0.494  0.00  0.00    -0.153 OA
ATOM      5  O   UNL     1       3.679  -2.130   0.496  0.00  0.00    -0.153 OA
BRANCH   3   6
ATOM      6  C   UNL     1       2.397   0.024  -0.026  0.00  0.00    +0.109 A 
ATOM      7  C   UNL     1       1.207  -0.680  -0.016  0.00  0.00    +0.032 A 
ATOM      8  C   UNL     1       0.002  -0.004   0.002  0.00  0.00    +0.051 A 
ATOM      9  C   UNL     1      -0.017   1.383   0.010  0.00  0.00    +0.162 A 
ATOM     10  C   UNL     1       1.179   2.090   0.002  0.00  0.00    +0.164 A 
ATOM     11  C   UNL     1       2.386   1.406  -0.017  0.00  0.00    +0.078 A 
ATOM     12  O   UNL     1       1.184   3.451   0.018  0.00  0.00    -0.485 OA
ATOM     13  C   UNL     1      -0.040   4.103  -0.340  0.00  0.00    +0.270 C 
ATOM     14  C   UNL     1      -1.189   3.413   0.408  0.00  0.00    +0.270 C 
ATOM     15  O   UNL     1      -1.212   2.035   0.019  0.00  0.00    -0.485 OA
ENDBRANCH   3   6
ENDBRANCH   1   3
BRANCH   1  16
ATOM     16  C   UNL     1       4.636   0.078  -2.493  0.00  0.00    +0.143 C 
BRANCH  16  20
ATOM     17  C   UNL     1       3.247  -0.694  -6.458  0.00  0.00    +0.000 A 
ATOM     18  C   UNL     1       3.093   0.563  -5.904  0.00  0.00    +0.000 A 
ATOM     19  C   UNL     1       3.542   0.813  -4.621  0.00  0.00    +0.005 A 
ATOM     20  C   UNL     1       4.146  -0.194  -3.892  0.00  0.00    -0.024 A 
ATOM     21  C   UNL     1       4.305  -1.450  -4.448  0.00  0.00    +0.005 A 
ATOM     22  C   UNL     1       3.851  -1.701  -5.729  0.00  0.00    +0.000 A 
ENDBRANCH  16  20
BRANCH  16  23
ATOM     23  C   UNL     1       6.125   0.313  -2.520  0.00  0.00    +0.013 A 
ATOM     24  C   UNL     1       6.804   1.485  -2.494  0.00  0.00    +0.013 A 
ATOM     25  C   UNL     1       8.186   1.460  -2.526  0.00  0.00    +0.008 A 
ATOM     26  C   UNL     1       8.820   0.263  -2.582  0.00  0.00    +0.045 A 
ATOM     27  S   UNL     1       7.450  -0.881  -2.585  0.00  0.00    -0.100 S 
ENDBRANCH  16  23
ENDBRANCH   1  16
TORSDOF 5
