REMARK  Name = ZINC35747294
REMARK  16 active torsions:
REMARK  status: ('A' for Active; 'I' for Inactive)
REMARK    1  A    between atoms: C_1  and  O_2
REMARK    2  A    between atoms: O_2  and  C_3
REMARK    3  A    between atoms: C_6  and  C_11
REMARK    4  A    between atoms: C_8  and  O_9
REMARK    5  A    between atoms: O_9  and  C_10
REMARK    6  A    between atoms: C_20  and  C_22
REMARK    7  A    between atoms: C_22  and  N_23
REMARK    8  A    between atoms: N_23  and  C_24
REMARK    9  A    between atoms: N_23  and  C_31
REMARK   10  A    between atoms: C_24  and  C_25
REMARK   11  A    between atoms: C_31  and  C_32
REMARK   12  A    between atoms: C_32  and  C_34
REMARK   13  A    between atoms: C_32  and  O_39
REMARK   14  A    between atoms: C_34  and  O_35
REMARK   15  A    between atoms: O_35  and  C_36
REMARK   16  A    between atoms: C_36  and  C_37
REMARK                            x       y       z     vdW  Elec       q    Type
REMARK                         _______ _______ _______ _____ _____    ______ ____
ROOT
ATOM      1  C   UNL     1       4.277  -1.502  -4.652  0.00  0.00    +0.004 A 
ATOM      2  C   UNL     1       4.987  -2.640  -4.461  0.00  0.00    +0.056 A 
ATOM      3  S   UNL     1       4.957  -3.419  -6.064  0.00  0.00    -0.076 S 
ATOM      4  C   UNL     1       4.001  -2.212  -6.945  0.00  0.00    +0.116 A 
ATOM      5  C   UNL     1       3.722  -1.236  -5.974  0.00  0.00    +0.080 A 
ATOM      6  C   UNL     1       2.942  -0.122  -6.422  0.00  0.00    +0.260 A 
ATOM      7  O   UNL     1       2.653   0.779  -5.653  0.00  0.00    -0.267 OA
ATOM      8  N   UNL     1       2.533  -0.085  -7.703  0.00  0.00    -0.312 N 
ATOM      9  H   UNL     1       2.005   0.668  -8.012  0.00  0.00    +0.170 HD
ATOM     10  C   UNL     1       2.847  -1.079  -8.573  0.00  0.00    +0.094 A 
ATOM     11  N   UNL     1       3.565  -2.103  -8.197  0.00  0.00    -0.229 NA
ENDROOT
BRANCH   1  15
ATOM     12  C   UNL     1       3.659   1.237  -1.454  0.00  0.00    +0.162 A 
ATOM     13  C   UNL     1       4.123   1.694  -2.678  0.00  0.00    +0.050 A 
ATOM     14  C   UNL     1       4.324   0.807  -3.717  0.00  0.00    +0.012 A 
ATOM     15  C   UNL     1       4.061  -0.550  -3.537  0.00  0.00    -0.013 A 
ATOM     16  C   UNL     1       3.595  -1.010  -2.306  0.00  0.00    +0.058 A 
ATOM     17  C   UNL     1       3.400  -0.118  -1.267  0.00  0.00    +0.162 A 
BRANCH  12  19
ATOM     18  C   UNL     1       3.748   3.489  -0.694  0.00  0.00    +0.277 C 
ATOM     19  O   UNL     1       3.462   2.114  -0.433  0.00  0.00    -0.491 OA
ENDBRANCH  12  19
BRANCH  17  20
ATOM     20  O   UNL     1       2.950  -0.564  -0.063  0.00  0.00    -0.491 OA
ATOM     21  C   UNL     1       2.705  -1.967   0.058  0.00  0.00    +0.277 C 
ENDBRANCH  17  20
ENDBRANCH   1  15
BRANCH  10  22
ATOM     22  C   UNL     1       2.368  -0.994  -9.999  0.00  0.00    -0.003 C 
BRANCH  22  23
ATOM     23  N   UNL     1       2.828  -2.175 -10.742  0.00  0.00    +0.389 N 
ATOM     24  H   UNL     1       3.830  -2.255 -10.658  0.00  0.00    -0.081 HD
BRANCH  23  25
ATOM     25  C   UNL     1       2.193  -3.379 -10.189  0.00  0.00    -0.042 C 
BRANCH  25  26
ATOM     26  C   UNL     1       0.696  -3.203 -10.192  0.00  0.00    -0.064 A 
ATOM     27  C   UNL     1       0.062  -2.663  -9.089  0.00  0.00    +0.002 A 
ATOM     28  C   UNL     1      -1.311  -2.502  -9.091  0.00  0.00    +0.000 A 
ATOM     29  C   UNL     1      -2.050  -2.881 -10.197  0.00  0.00    +0.000 A 
ATOM     30  C   UNL     1      -1.415  -3.420 -11.300  0.00  0.00    +0.000 A 
ATOM     31  C   UNL     1      -0.042  -3.577 -11.299  0.00  0.00    +0.002 A 
ENDBRANCH  25  26
ENDBRANCH  23  25
BRANCH  23  32
ATOM     32  C   UNL     1       2.464  -2.036 -12.158  0.00  0.00    -0.044 C 
BRANCH  32  33
ATOM     33  C   UNL     1       3.246  -3.056 -12.988  0.00  0.00    +0.124 C 
BRANCH  33  34
ATOM     34  O   UNL     1       2.803  -4.375 -12.662  0.00  0.00    -0.391 OA
ATOM     35  H   UNL     1       1.898  -4.567 -12.944  0.00  0.00    +0.210 HD
ENDBRANCH  33  34
BRANCH  33  36
ATOM     36  C   UNL     1       3.008  -2.792 -14.476  0.00  0.00    +0.189 C 
BRANCH  36  37
ATOM     37  O   UNL     1       3.828  -3.668 -15.252  0.00  0.00    -0.373 OA
BRANCH  37  38
ATOM     38  C   UNL     1       3.681  -3.502 -16.664  0.00  0.00    +0.186 C 
BRANCH  38  39
ATOM     39  C   UNL     1       4.587  -4.472 -17.380  0.00  0.00    -0.007 C 
ATOM     40  C   UNL     1       4.135  -5.158 -18.401  0.00  0.00    +0.006 C 
ENDBRANCH  38  39
ENDBRANCH  37  38
ENDBRANCH  36  37
ENDBRANCH  33  36
ENDBRANCH  32  33
ENDBRANCH  23  32
ENDBRANCH  22  23
ENDBRANCH  10  22
TORSDOF 14
