REMARK  Name = ZINC19755759
REMARK  7 active torsions:
REMARK  status: ('A' for Active; 'I' for Inactive)
REMARK    1  A    between atoms: C_1  and  C_2
REMARK    2  A    between atoms: C_5  and  N_9
REMARK    3  A    between atoms: C_6  and  C_8
REMARK    4  A    between atoms: C_10  and  C_12
REMARK    5  A    between atoms: C_12  and  N_13
REMARK    6  A    between atoms: C_15  and  C_25
REMARK    7  A    between atoms: C_21  and  N_24
REMARK                            x       y       z     vdW  Elec       q    Type
REMARK                         _______ _______ _______ _____ _____    ______ ____
ROOT
ATOM      1  N   UNL     1      -3.437  -2.505  -0.187  0.00  0.00    -0.315 N 
ATOM      2  C   UNL     1      -2.873  -2.921   1.102  0.00  0.00    +0.150 C 
ATOM      3  C   UNL     1      -2.724  -4.447   1.102  0.00  0.00    +0.188 C 
ATOM      4  O   UNL     1      -4.032  -5.017   0.990  0.00  0.00    -0.486 OA
ATOM      5  C   UNL     1      -4.861  -4.468   0.057  0.00  0.00    +0.142 A 
ATOM      6  C   UNL     1      -4.580  -3.236  -0.523  0.00  0.00    +0.074 A 
ATOM      7  C   UNL     1      -5.454  -2.707  -1.467  0.00  0.00    +0.049 A 
ATOM      8  C   UNL     1      -6.596  -3.405  -1.830  0.00  0.00    +0.027 A 
ATOM      9  C   UNL     1      -6.869  -4.636  -1.249  0.00  0.00    +0.026 A 
ATOM     10  C   UNL     1      -6.004  -5.163  -0.310  0.00  0.00    +0.049 A 
ATOM     11  C   UNL     1      -2.071  -4.904   2.408  0.00  0.00    +0.053 C 
ENDROOT
BRANCH   8  12
ATOM     12  N   UNL     1      -7.472  -2.868  -2.779  0.00  0.00    -0.358 N 
ATOM     13  H   UNL     1      -8.378  -3.422  -3.066  0.00  0.00    +0.142 HD
ATOM     14  H   UNL     1      -7.256  -1.893  -3.238  0.00  0.00    +0.142 HD
ENDBRANCH   8  12
BRANCH   1  15
ATOM     15  C   UNL     1      -3.712  -1.062  -0.201  0.00  0.00    +0.201 C 
BRANCH  15  17
ATOM     16  N   UNL     1      -2.425   1.040   0.010  0.00  0.00    -0.284 N 
ATOM     17  C   UNL     1      -2.413  -0.302  -0.111  0.00  0.00    +0.235 C 
ATOM     18  O   UNL     1      -1.358  -0.899  -0.146  0.00  0.00    -0.274 OA
ATOM     19  H   UNL     1      -3.381   1.575   0.111  0.00  0.00    +0.155 HD
BRANCH  16  24
ATOM     20  C   UNL     1       2.459   3.926  -0.016  0.00  0.00    +0.044 C 
ATOM     21  C   UNL     1       1.161   3.161  -0.006  0.00  0.00    -0.050 A 
ATOM     22  C   UNL     1       1.105   1.904   0.569  0.00  0.00    +0.005 A 
ATOM     23  C   UNL     1      -0.083   1.200   0.579  0.00  0.00    +0.024 A 
ATOM     24  C   UNL     1      -1.221   1.753   0.006  0.00  0.00    +0.036 A 
ATOM     25  C   UNL     1      -1.163   3.017  -0.566  0.00  0.00    -0.029 A 
ATOM     26  C   UNL     1       0.029   3.716  -0.573  0.00  0.00    +0.008 A 
ATOM     27  C   UNL     1      -2.396   3.623  -1.184  0.00  0.00    +0.045 C 
ENDBRANCH  16  24
ENDBRANCH  15  17
ENDBRANCH   1  15
TORSDOF 4
