REMARK  Name = ZINC22304024
REMARK  6 active torsions:
REMARK  status: ('A' for Active; 'I' for Inactive)
REMARK    1  A    between atoms: C_1  and  C_2
REMARK    2  A    between atoms: C_2  and  O_3
REMARK    3  A    between atoms: O_3  and  C_4
REMARK    4  A    between atoms: C_4  and  C_6
REMARK    5  A    between atoms: C_7  and  C_22
REMARK    6  A    between atoms: C_12  and  C_14
REMARK                            x       y       z     vdW  Elec       q    Type
REMARK                         _______ _______ _______ _____ _____    ______ ____
ROOT
ATOM      1  C   UNL     1      -1.791  -0.837   1.439  0.00  0.00    +0.078 C 
ATOM      2  C   UNL     1      -1.998  -2.055   1.982  0.00  0.00    +0.021 C 
ATOM      3  N   UNL     1      -1.753  -3.194   1.269  0.00  0.00    -0.273 N 
ATOM      4  C   UNL     1      -1.301  -3.199   0.009  0.00  0.00    +0.304 C 
ATOM      5  O   UNL     1      -1.112  -4.265  -0.544  0.00  0.00    -0.252 OA
ATOM      6  N   UNL     1      -1.047  -2.061  -0.666  0.00  0.00    -0.288 N 
ATOM      7  C   UNL     1      -1.279  -0.775   0.015  0.00  0.00    +0.146 C 
ATOM      8  C   UNL     1      -2.507  -2.160   3.396  0.00  0.00    +0.061 C 
ATOM      9  H   UNL     1      -1.927  -4.178   1.729  0.00  0.00    +0.156 HD
ATOM     10  H   UNL     1      -0.675  -2.076  -1.701  0.00  0.00    +0.151 HD
ENDROOT
BRANCH   7  11
ATOM     11  C   UNL     1       0.020  -0.011   0.020  0.00  0.00    +0.014 A 
ATOM     12  C   UNL     1       0.784   0.044   1.170  0.00  0.00    +0.024 A 
ATOM     13  C   UNL     1       1.976   0.745   1.176  0.00  0.00    +0.018 A 
ATOM     14  C   UNL     1       2.405   1.391   0.029  0.00  0.00    +0.018 A 
ATOM     15  C   UNL     1       1.642   1.336  -1.121  0.00  0.00    +0.040 A 
ATOM     16  C   UNL     1       0.448   0.634  -1.127  0.00  0.00    +0.129 A 
ATOM     17  F   UNL     1      -0.295   0.576  -2.253  0.00  0.00    -0.205 F 
ATOM     18 BR   UNL     1       3.021   0.821   2.750  0.00  0.00    -0.050 Br
ENDBRANCH   7  11
BRANCH   1  19
ATOM     19  C   UNL     1      -2.044   0.344   2.177  0.00  0.00    +0.339 C 
ATOM     20  O   UNL     1      -2.357   0.273   3.350  0.00  0.00    -0.245 OA
BRANCH  19  21
ATOM     21  O   UNL     1      -1.940   1.549   1.578  0.00  0.00    -0.462 OA
BRANCH  21  23
ATOM     22  C   UNL     1      -2.041   3.963   1.538  0.00  0.00    +0.048 C 
ATOM     23  C   UNL     1      -2.209   2.698   2.383  0.00  0.00    +0.229 C 
ENDBRANCH  21  23
ENDBRANCH  19  21
ENDBRANCH   1  19
TORSDOF 4
