REMARK  Name = ZINC21254981
REMARK  7 active torsions:
REMARK  status: ('A' for Active; 'I' for Inactive)
REMARK    1  A    between atoms: C_1  and  C_2
REMARK    2  A    between atoms: C_2  and  O_3
REMARK    3  A    between atoms: O_3  and  C_4
REMARK    4  A    between atoms: C_7  and  C_10
REMARK    5  A    between atoms: C_15  and  C_21
REMARK    6  A    between atoms: C_26  and  O_27
REMARK    7  A    between atoms: O_27  and  C_28
REMARK                            x       y       z     vdW  Elec       q    Type
REMARK                         _______ _______ _______ _____ _____    ______ ____
ROOT
ATOM      1  C   UNL     1      -2.513   0.977   0.019  0.00  0.00    +0.032 C 
ATOM      2  C   UNL     1      -3.330   1.339  -1.223  0.00  0.00    +0.059 C 
ATOM      3  C   UNL     1      -4.646   0.603  -1.196  0.00  0.00    +0.018 C 
ATOM      4  C   UNL     1      -5.241   0.292  -0.025  0.00  0.00    +0.020 C 
ATOM      5  C   UNL     1      -6.562  -0.441  -0.023  0.00  0.00    +0.066 C 
ATOM      6  C   UNL     1      -7.397   0.014  -1.220  0.00  0.00    +0.109 C 
ATOM      7  C   UNL     1      -6.543  -0.026  -2.462  0.00  0.00    +0.218 C 
ATOM      8  O   UNL     1      -7.042  -0.311  -3.530  0.00  0.00    -0.275 OA
ATOM      9  N   UNL     1      -5.231   0.253  -2.387  0.00  0.00    -0.289 N 
ATOM     10  C   UNL     1      -4.655   0.632   1.206  0.00  0.00    +0.162 C 
ATOM     11  O   UNL     1      -5.227   0.348   2.239  0.00  0.00    -0.292 OA
ATOM     12  C   UNL     1      -3.329   1.343   1.264  0.00  0.00    +0.088 C 
ATOM     13  H   UNL     1      -4.623   0.198  -3.302  0.00  0.00    +0.155 HD
ENDROOT
BRANCH   5  14
ATOM     14  C   UNL     1      -6.314  -1.924  -0.117  0.00  0.00    +0.003 A 
ATOM     15  C   UNL     1      -5.646  -2.446  -1.208  0.00  0.00    +0.023 A 
ATOM     16  C   UNL     1      -5.419  -3.807  -1.295  0.00  0.00    +0.018 A 
ATOM     17  C   UNL     1      -5.860  -4.650  -0.289  0.00  0.00    +0.019 A 
ATOM     18  C   UNL     1      -6.528  -4.132   0.803  0.00  0.00    +0.047 A 
ATOM     19  C   UNL     1      -6.752  -2.766   0.895  0.00  0.00    +0.124 A 
ATOM     20 BR   UNL     1      -4.503  -4.518  -2.789  0.00  0.00    -0.050 Br
BRANCH  19  21
ATOM     21  O   UNL     1      -7.404  -2.254   1.972  0.00  0.00    -0.495 OA
ATOM     22  C   UNL     1      -7.826  -3.180   2.975  0.00  0.00    +0.277 C 
ENDBRANCH  19  21
ENDBRANCH   5  14
BRANCH   1  26
ATOM     23  C   UNL     1       1.155   3.169   0.008  0.00  0.00    +0.121 A 
ATOM     24  C   UNL     1       1.175   1.782   0.000  0.00  0.00    +0.046 A 
ATOM     25  C   UNL     1      -0.013   1.076   0.008  0.00  0.00    +0.007 A 
ATOM     26  C   UNL     1      -1.220   1.750   0.017  0.00  0.00    -0.043 A 
ATOM     27  C   UNL     1      -1.242   3.133   0.031  0.00  0.00    +0.007 A 
ATOM     28  C   UNL     1      -0.057   3.844   0.023  0.00  0.00    +0.046 A 
BRANCH  23  29
ATOM     29  O   UNL     1       2.322   3.866   0.001  0.00  0.00    -0.492 OA
BRANCH  29  31
ATOM     30  C   UNL     1       3.630   5.898   0.000  0.00  0.00    +0.048 C 
ATOM     31  C   UNL     1       2.225   5.292   0.010  0.00  0.00    +0.225 C 
ENDBRANCH  29  31
ENDBRANCH  23  29
ENDBRANCH   1  26
TORSDOF 5
