REMARK  Name = ZINC42909388
REMARK  9 active torsions:
REMARK  status: ('A' for Active; 'I' for Inactive)
REMARK    1  A    between atoms: C_1  and  C_2
REMARK    2  A    between atoms: C_5  and  C_8
REMARK    3  A    between atoms: C_8  and  C_10
REMARK    4  A    between atoms: C_8  and  N_14
REMARK    5  A    between atoms: C_10  and  C_12
REMARK    6  A    between atoms: C_10  and  N_13
REMARK    7  A    between atoms: N_14  and  C_15
REMARK    8  A    between atoms: N_14  and  C_16
REMARK    9  A    between atoms: C_16  and  C_17
REMARK                            x       y       z     vdW  Elec       q    Type
REMARK                         _______ _______ _______ _____ _____    ______ ____
ROOT
ATOM      1  C   UNL     1       0.005  -3.984  -0.698  0.00  0.00    +0.072 C 
ENDROOT
BRANCH   1   6
ATOM      2  C   UNL     1       1.221   1.664  -0.574  0.00  0.00    +0.044 C 
ATOM      3  C   UNL     1       0.904   0.191  -0.607  0.00  0.00    -0.050 A 
ATOM      4  C   UNL     1       0.484  -0.400  -1.783  0.00  0.00    +0.003 A 
ATOM      5  C   UNL     1       0.194  -1.751  -1.813  0.00  0.00    +0.005 A 
ATOM      6  C   UNL     1       0.323  -2.511  -0.666  0.00  0.00    -0.032 A 
ATOM      7  C   UNL     1       0.744  -1.920   0.511  0.00  0.00    +0.005 A 
ATOM      8  C   UNL     1       1.039  -0.570   0.540  0.00  0.00    +0.003 A 
ENDBRANCH   1   6
BRANCH   1   9
ATOM      9  C   UNL     1      -1.451  -4.201  -0.282  0.00  0.00    -0.056 C 
ATOM     10  C   UNL     1      -1.812  -5.679  -0.441  0.00  0.00    -0.012 C 
BRANCH   9  11
ATOM     11  N   UNL     1      -2.329  -3.387  -1.133  0.00  0.00    +0.381 N 
ATOM     12  H   UNL     1      -2.211  -3.661  -2.097  0.00  0.00    -0.090 HD
ATOM     13  H   UNL     1      -3.290  -3.530  -0.859  0.00  0.00    -0.090 HD
ATOM     14  H   UNL     1      -2.091  -2.413  -1.028  0.00  0.00    -0.090 HD
ENDBRANCH   9  11
ENDBRANCH   1   9
BRANCH   1  15
ATOM     15  N   UNL     1       0.891  -4.697   0.233  0.00  0.00    -0.296 NA
ATOM     16  C   UNL     1       0.301  -4.762   1.576  0.00  0.00    +0.105 C 
BRANCH  15  17
ATOM     17  C   UNL     1       1.210  -6.040  -0.268  0.00  0.00    +0.120 C 
BRANCH  17  18
ATOM     18  C   UNL     1       2.396  -6.588   0.483  0.00  0.00    -0.025 A 
ATOM     19  C   UNL     1       3.681  -6.363   0.025  0.00  0.00    +0.028 A 
ATOM     20  C   UNL     1       4.726  -6.871   0.725  0.00  0.00    +0.055 A 
ATOM     21  S   UNL     1       3.900  -7.696   2.076  0.00  0.00    -0.090 S 
ATOM     22  C   UNL     1       2.219  -7.304   1.619  0.00  0.00    +0.051 A 
ATOM     23 BR   UNL     1       6.578  -6.739   0.364  0.00  0.00    -0.043 Br
ENDBRANCH  17  18
ENDBRANCH  15  17
ENDBRANCH   1  15
TORSDOF 6
