REMARK  Name = ZINC01035341
REMARK  6 active torsions:
REMARK  status: ('A' for Active; 'I' for Inactive)
REMARK    1  A    between atoms: C_1  and  C_2
REMARK    2  A    between atoms: C_4  and  C_26
REMARK    3  A    between atoms: C_8  and  N_25
REMARK    4  A    between atoms: C_9  and  C_11
REMARK    5  A    between atoms: N_17  and  C_18
REMARK    6  A    between atoms: C_18  and  C_19
REMARK                            x       y       z     vdW  Elec       q    Type
REMARK                         _______ _______ _______ _____ _____    ______ ____
ROOT
ATOM      1  C   UNL     1      -3.861   2.136   2.084  0.00  0.00    +0.044 C 
ATOM      2  C   UNL     1      -2.393   2.474   2.117  0.00  0.00    -0.037 A 
ATOM      3  C   UNL     1      -1.613   2.309   0.996  0.00  0.00    +0.027 A 
ATOM      4  C   UNL     1      -0.261   2.615   1.030  0.00  0.00    +0.040 A 
ATOM      5  N   UNL     1       0.291   3.079   2.135  0.00  0.00    -0.245 NA
ATOM      6  C   UNL     1      -0.413   3.259   3.230  0.00  0.00    +0.111 A 
ATOM      7  C   UNL     1      -1.796   2.972   3.300  0.00  0.00    +0.032 A 
ATOM      8  C   UNL     1      -2.412   3.233   4.592  0.00  0.00    +0.052 A 
ATOM      9  C   UNL     1      -1.637   3.717   5.601  0.00  0.00    +0.080 A 
ATOM     10  S   UNL     1      -0.023   3.849   4.859  0.00  0.00    -0.064 S 
ATOM     11  C   UNL     1       0.581   2.423  -0.205  0.00  0.00    +0.065 C 
ENDROOT
BRANCH   9  12
ATOM     12  C   UNL     1      -2.037   4.051   6.976  0.00  0.00    +0.171 A 
ATOM     13  N   UNL     1      -3.261   4.056   7.436  0.00  0.00    -0.153 NA
ATOM     14  N   UNL     1      -3.214   4.427   8.787  0.00  0.00    -0.254 N 
ATOM     15  H   UNL     1      -3.973   4.515   9.384  0.00  0.00    +0.191 HD
ATOM     16  C   UNL     1      -1.921   4.640   9.106  0.00  0.00    +0.176 A 
ATOM     17  S   UNL     1      -1.323   5.114  10.639  0.00  0.00    -0.011 S 
ATOM     18  N   UNL     1      -1.182   4.408   8.002  0.00  0.00    -0.298 N 
BRANCH  18  19
ATOM     19  C   UNL     1       0.276   4.517   7.906  0.00  0.00    +0.161 C 
BRANCH  19  20
ATOM     20  C   UNL     1       0.906   3.216   8.329  0.00  0.00    -0.028 A 
ATOM     21  C   UNL     1       1.371   3.060   9.622  0.00  0.00    +0.005 A 
ATOM     22  C   UNL     1       1.945   1.865  10.011  0.00  0.00    +0.000 A 
ATOM     23  C   UNL     1       2.064   0.828   9.104  0.00  0.00    +0.000 A 
ATOM     24  C   UNL     1       1.604   0.985   7.810  0.00  0.00    +0.000 A 
ATOM     25  C   UNL     1       1.025   2.179   7.423  0.00  0.00    +0.005 A 
ENDBRANCH  19  20
ENDBRANCH  18  19
ENDBRANCH   9  12
BRANCH   8  26
ATOM     26  N   UNL     1      -3.776   2.991   4.793  0.00  0.00    -0.356 N 
ATOM     27  H   UNL     1      -4.099   2.735   5.672  0.00  0.00    +0.142 HD
ATOM     28  H   UNL     1      -4.398   3.079   4.055  0.00  0.00    +0.142 HD
ENDBRANCH   8  26
TORSDOF 4
