REMARK  Name = ZINC62244026
REMARK  5 active torsions:
REMARK  status: ('A' for Active; 'I' for Inactive)
REMARK    1  A    between atoms: C_1  and  C_2
REMARK    2  A    between atoms: C_6  and  N_8
REMARK    3  A    between atoms: C_9  and  C_15
REMARK    4  A    between atoms: C_10  and  C_13
REMARK    5  A    between atoms: C_13  and  N_14
REMARK                            x       y       z     vdW  Elec       q    Type
REMARK                         _______ _______ _______ _____ _____    ______ ____
ROOT
ATOM      1  N   UNL     1       0.163  -2.791   2.384  0.00  0.00    -0.212 N 
ATOM      2  C   UNL     1      -0.596  -3.915   2.577  0.00  0.00    +0.096 A 
ATOM      3  C   UNL     1      -0.396  -4.299   3.870  0.00  0.00    +0.074 A 
ATOM      4  N   UNL     1       0.449  -3.447   4.445  0.00  0.00    -0.135 NA
ATOM      5  N   UNL     1       0.810  -2.542   3.604  0.00  0.00    -0.060 NA
ENDROOT
BRANCH   2   6
ATOM      6  C   UNL     1      -1.462  -4.581   1.579  0.00  0.00    +0.005 A 
ATOM      7  C   UNL     1      -1.287  -5.935   1.292  0.00  0.00    +0.013 A 
ATOM      8  C   UNL     1      -2.096  -6.552   0.361  0.00  0.00    +0.042 A 
ATOM      9  C   UNL     1      -3.083  -5.830  -0.290  0.00  0.00    +0.158 A 
ATOM     10  C   UNL     1      -3.262  -4.482  -0.010  0.00  0.00    +0.159 A 
ATOM     11  C   UNL     1      -2.460  -3.858   0.925  0.00  0.00    +0.051 A 
ATOM     12  F   UNL     1      -4.225  -3.783  -0.649  0.00  0.00    -0.202 F 
ATOM     13  F   UNL     1      -3.872  -6.439  -1.202  0.00  0.00    -0.202 F 
ENDBRANCH   2   6
BRANCH   1  19
ATOM     14  C   UNL     1       0.706   1.566   0.168  0.00  0.00    +0.044 C 
ATOM     15  C   UNL     1       0.540   0.070   0.102  0.00  0.00    -0.048 A 
ATOM     16  C   UNL     1       0.498  -0.567  -1.125  0.00  0.00    +0.003 A 
ATOM     17  C   UNL     1       0.345  -1.939  -1.190  0.00  0.00    +0.002 A 
ATOM     18  C   UNL     1       0.234  -2.679  -0.029  0.00  0.00    +0.028 A 
ATOM     19  C   UNL     1       0.276  -2.043   1.204  0.00  0.00    +0.068 A 
ATOM     20  C   UNL     1       0.435  -0.665   1.266  0.00  0.00    +0.031 A 
ENDBRANCH   1  19
BRANCH   3  21
ATOM     21  C   UNL     1      -1.030  -5.492   4.538  0.00  0.00    -0.026 C 
BRANCH  21  22
ATOM     22  N   UNL     1      -0.102  -6.630   4.488  0.00  0.00    +0.382 N 
ATOM     23  H   UNL     1       0.712  -6.425   5.048  0.00  0.00    -0.090 HD
ATOM     24  H   UNL     1      -0.560  -7.453   4.850  0.00  0.00    -0.090 HD
ATOM     25  H   UNL     1       0.178  -6.794   3.533  0.00  0.00    -0.090 HD
ENDBRANCH  21  22
ENDBRANCH   3  21
TORSDOF 4
