REMARK  Name = ZINC19639243
REMARK  6 active torsions:
REMARK  status: ('A' for Active; 'I' for Inactive)
REMARK    1  A    between atoms: C_1  and  C_2
REMARK    2  A    between atoms: C_3  and  C_21
REMARK    3  A    between atoms: C_4  and  C_14
REMARK    4  A    between atoms: C_17  and  O_20
REMARK    5  A    between atoms: C_21  and  O_23
REMARK    6  A    between atoms: O_23  and  C_24
REMARK                            x       y       z     vdW  Elec       q    Type
REMARK                         _______ _______ _______ _____ _____    ______ ____
ROOT
ATOM      1  C   UNL     1       4.708  -2.698  -1.615  0.00  0.00    +0.061 C 
ATOM      2  C   UNL     1       3.358  -2.075  -1.365  0.00  0.00    +0.016 C 
ATOM      3  C   UNL     1       2.381  -2.805  -0.799  0.00  0.00    +0.065 C 
ATOM      4  C   UNL     1       1.023  -2.222  -0.541  0.00  0.00    +0.092 C 
ATOM      5  C   UNL     1       1.066  -0.715  -0.581  0.00  0.00    +0.024 C 
ATOM      6  C   UNL     1       2.098  -0.069  -1.164  0.00  0.00    +0.015 C 
ATOM      7  N   UNL     1       3.136  -0.773  -1.714  0.00  0.00    -0.321 N 
ATOM      8  C   UNL     1       2.139   1.438  -1.222  0.00  0.00    +0.051 C 
ATOM      9  C   UNL     1       1.424   2.018  -0.001  0.00  0.00    +0.014 C 
ATOM     10  C   UNL     1      -0.018   1.500   0.010  0.00  0.00    +0.080 C 
ATOM     11  C   UNL     1       0.002  -0.004   0.002  0.00  0.00    +0.162 C 
ATOM     12  O   UNL     1      -0.917  -0.616   0.509  0.00  0.00    -0.292 OA
ATOM     13  H   UNL     1       3.793  -0.280  -2.445  0.00  0.00    +0.152 HD
ENDROOT
BRANCH   4  14
ATOM     14  C   UNL     1       0.064  -2.717  -1.593  0.00  0.00    -0.035 A 
ATOM     15  C   UNL     1       0.282  -2.414  -2.924  0.00  0.00    +0.008 A 
ATOM     16  C   UNL     1      -0.593  -2.872  -3.890  0.00  0.00    +0.046 A 
ATOM     17  C   UNL     1      -1.697  -3.627  -3.523  0.00  0.00    +0.117 A 
ATOM     18  C   UNL     1      -1.917  -3.925  -2.186  0.00  0.00    +0.046 A 
ATOM     19  C   UNL     1      -1.036  -3.469  -1.224  0.00  0.00    +0.008 A 
BRANCH  17  20
ATOM     20  O   UNL     1      -2.562  -4.074  -4.471  0.00  0.00    -0.507 OA
ATOM     21  H   UNL     1      -3.437  -4.673  -4.178  0.00  0.00    +0.292 HD
ENDBRANCH  17  20
ENDBRANCH   4  14
BRANCH   3  22
ATOM     22  C   UNL     1       2.639  -4.149  -0.440  0.00  0.00    +0.337 C 
ATOM     23  O   UNL     1       3.736  -4.634  -0.643  0.00  0.00    -0.245 OA
BRANCH  22  24
ATOM     24  O   UNL     1       1.667  -4.893   0.129  0.00  0.00    -0.465 OA
ATOM     25  C   UNL     1       1.997  -6.242   0.466  0.00  0.00    +0.280 C 
ENDBRANCH  22  24
ENDBRANCH   3  22
TORSDOF 4
