REMARK  Name = ZINC39636404
REMARK  9 active torsions:
REMARK  status: ('A' for Active; 'I' for Inactive)
REMARK    1  A    between atoms: C_1  and  O_2
REMARK    2  A    between atoms: O_2  and  C_3
REMARK    3  A    between atoms: C_8  and  C_9
REMARK    4  A    between atoms: C_9  and  C_10
REMARK    5  A    between atoms: C_10  and  N_11
REMARK    6  A    between atoms: C_12  and  C_14
REMARK    7  A    between atoms: C_25  and  C_27
REMARK    8  A    between atoms: C_30  and  O_34
REMARK    9  A    between atoms: O_34  and  C_35
REMARK                            x       y       z     vdW  Elec       q    Type
REMARK                         _______ _______ _______ _____ _____    ______ ____
ROOT
ATOM      1  C   UNL     1       0.015  -5.260  -4.744  0.00  0.00    +0.100 C 
ATOM      2  C   UNL     1      -1.155  -4.309  -5.079  0.00  0.00    +0.121 C 
ATOM      3  N   UNL     1      -0.667  -3.503  -6.223  0.00  0.00    -0.296 N 
ATOM      4  C   UNL     1       0.083  -4.470  -7.061  0.00  0.00    +0.115 C 
ATOM      5  C   UNL     1       0.824  -5.367  -6.048  0.00  0.00    -0.004 C 
ATOM      6  C   UNL     1       0.846  -6.811  -6.540  0.00  0.00    -0.010 C 
ATOM      7  C   UNL     1       1.704  -6.901  -7.806  0.00  0.00    -0.082 C 
ATOM      8  N   UNL     1       3.066  -6.442  -7.509  0.00  0.00    +0.379 N 
ATOM      9  C   UNL     1       3.046  -5.025  -7.127  0.00  0.00    -0.082 C 
ATOM     10  C   UNL     1       2.245  -4.856  -5.833  0.00  0.00    -0.010 C 
ATOM     11  C   UNL     1      -0.862  -2.189  -6.451  0.00  0.00    +0.247 C 
ATOM     12  O   UNL     1      -1.395  -1.498  -5.606  0.00  0.00    -0.270 OA
ATOM     13  H   UNL     1       3.446  -6.989  -6.751  0.00  0.00    -0.086 HD
ATOM     14  H   UNL     1       3.645  -6.560  -8.328  0.00  0.00    -0.086 HD
ENDROOT
BRANCH  11  15
ATOM     15  C   UNL     1      -0.427  -1.590  -7.728  0.00  0.00    +0.040 A 
ATOM     16  C   UNL     1      -0.230  -2.399  -8.851  0.00  0.00    +0.036 A 
ATOM     17  C   UNL     1       0.176  -1.835 -10.041  0.00  0.00    +0.085 A 
ATOM     18  C   UNL     1       0.389  -0.464 -10.126  0.00  0.00    +0.157 A 
ATOM     19  C   UNL     1       0.193   0.344  -9.012  0.00  0.00    +0.085 A 
ATOM     20  C   UNL     1      -0.219  -0.211  -7.820  0.00  0.00    +0.036 A 
ATOM     21 CL   UNL     1       0.461   2.056  -9.124  0.00  0.00    -0.080 Cl
ATOM     22 CL   UNL     1       0.422  -2.839 -11.436  0.00  0.00    -0.080 Cl
BRANCH  18  23
ATOM     23  O   UNL     1       0.789   0.087 -11.301  0.00  0.00    -0.492 OA
ATOM     24  C   UNL     1      -0.236   0.519 -12.198  0.00  0.00    +0.277 C 
ENDBRANCH  18  23
ENDBRANCH  11  15
BRANCH   1  26
ATOM     25  N   UNL     1       1.620  -5.490  -2.876  0.00  0.00    -0.315 N 
ATOM     26  C   UNL     1       0.867  -4.679  -3.645  0.00  0.00    +0.218 C 
ATOM     27  O   UNL     1       0.875  -3.482  -3.453  0.00  0.00    -0.275 OA
ATOM     28  H   UNL     1       1.614  -6.448  -3.030  0.00  0.00    +0.149 HD
BRANCH  25  29
ATOM     29  C   UNL     1       2.448  -4.925  -1.808  0.00  0.00    +0.109 C 
BRANCH  29  30
ATOM     30  C   UNL     1       3.196  -6.051  -1.092  0.00  0.00    +0.057 C 
BRANCH  30  36
ATOM     31  C   UNL     1       3.497  -5.223   1.256  0.00  0.00    +0.123 A 
ATOM     32  C   UNL     1       4.285  -4.693   2.267  0.00  0.00    +0.046 A 
ATOM     33  C   UNL     1       5.614  -4.407   2.027  0.00  0.00    +0.004 A 
ATOM     34  C   UNL     1       6.160  -4.649   0.779  0.00  0.00    +0.000 A 
ATOM     35  C   UNL     1       5.377  -5.177  -0.230  0.00  0.00    +0.007 A 
ATOM     36  C   UNL     1       4.048  -5.470   0.007  0.00  0.00    -0.004 A 
BRANCH  31  38
ATOM     37  C   UNL     1       1.688  -5.226   2.799  0.00  0.00    +0.277 C 
ATOM     38  O   UNL     1       2.188  -5.506   1.490  0.00  0.00    -0.495 OA
ENDBRANCH  31  38
ENDBRANCH  30  36
ENDBRANCH  29  30
ENDBRANCH  25  29
ENDBRANCH   1  26
TORSDOF 7
