REMARK  Name = ZINC35066228
REMARK  14 active torsions:
REMARK  status: ('A' for Active; 'I' for Inactive)
REMARK    1  A    between atoms: C_1  and  C_2
REMARK    2  A    between atoms: C_2  and  C_3
REMARK    3  A    between atoms: C_3  and  C_5
REMARK    4  A    between atoms: C_3  and  N_23
REMARK    5  A    between atoms: N_15  and  C_16
REMARK    6  A    between atoms: C_20  and  C_22
REMARK    7  A    between atoms: N_23  and  C_24
REMARK    8  A    between atoms: C_24  and  C_25
REMARK    9  A    between atoms: C_25  and  N_26
REMARK   10  A    between atoms: N_26  and  C_27
REMARK   11  A    between atoms: N_26  and  C_28
REMARK   12  A    between atoms: C_29  and  C_31
REMARK   13  A    between atoms: C_31  and  C_32
REMARK   14  A    between atoms: C_32  and  C_33
REMARK                            x       y       z     vdW  Elec       q    Type
REMARK                         _______ _______ _______ _____ _____    ______ ____
ROOT
ATOM      1  C   UNL     1       1.507  -0.720   1.743  0.00  0.00    +0.142 C 
ENDROOT
BRANCH   1   2
ATOM      2  C   UNL     1       0.921  -2.101   1.606  0.00  0.00    +0.138 A 
ATOM      3  N   UNL     1       1.362  -2.866   0.654  0.00  0.00    -0.231 NA
ATOM      4  C   UNL     1       0.882  -4.121   0.470  0.00  0.00    +0.078 A 
ATOM      5  C   UNL     1       1.357  -4.944  -0.554  0.00  0.00    +0.028 A 
ATOM      6  C   UNL     1       0.841  -6.212  -0.704  0.00  0.00    +0.002 A 
ATOM      7  C   UNL     1      -0.147  -6.684   0.150  0.00  0.00    +0.001 A 
ATOM      8  C   UNL     1      -0.632  -5.891   1.166  0.00  0.00    +0.015 A 
ATOM      9  C   UNL     1      -0.123  -4.605   1.337  0.00  0.00    +0.065 A 
ATOM     10  C   UNL     1      -0.602  -3.714   2.404  0.00  0.00    +0.266 A 
ATOM     11  O   UNL     1      -1.466  -4.070   3.184  0.00  0.00    -0.267 OA
ATOM     12  N   UNL     1      -0.040  -2.486   2.489  0.00  0.00    -0.263 N 
BRANCH  12  13
ATOM     13  C   UNL     1      -0.456  -1.600   3.491  0.00  0.00    +0.051 A 
ATOM     14  C   UNL     1      -1.473  -0.689   3.237  0.00  0.00    +0.026 A 
ATOM     15  C   UNL     1      -1.881   0.182   4.227  0.00  0.00    +0.002 A 
ATOM     16  C   UNL     1      -1.278   0.148   5.472  0.00  0.00    +0.003 A 
ATOM     17  C   UNL     1      -0.266  -0.758   5.728  0.00  0.00    -0.048 A 
ATOM     18  C   UNL     1       0.143  -1.636   4.744  0.00  0.00    +0.029 A 
ATOM     19  C   UNL     1       0.388  -0.791   7.085  0.00  0.00    +0.044 C 
ENDBRANCH  12  13
ENDBRANCH   1   2
BRANCH   1  20
ATOM     20  N   UNL     1       2.919  -0.823   2.118  0.00  0.00    -0.293 N 
ATOM     21  C   UNL     1       3.353  -0.277   3.271  0.00  0.00    +0.216 C 
ATOM     22  O   UNL     1       2.573   0.301   3.998  0.00  0.00    -0.276 OA
BRANCH  20  23
ATOM     23  C   UNL     1       3.861  -1.521   1.239  0.00  0.00    +0.090 C 
BRANCH  23  24
ATOM     24  C   UNL     1       4.462  -0.527   0.243  0.00  0.00    -0.060 C 
BRANCH  24  25
ATOM     25  N   UNL     1       5.406  -1.227  -0.638  0.00  0.00    +0.377 N 
ATOM     26  C   UNL     1       5.893  -0.300  -1.669  0.00  0.00    -0.097 C 
ATOM     27  C   UNL     1       6.542  -1.720   0.153  0.00  0.00    -0.097 C 
ATOM     28  H   UNL     1       4.941  -2.006  -1.079  0.00  0.00    -0.083 HD
ENDBRANCH  24  25
ENDBRANCH  23  24
ENDBRANCH  20  23
BRANCH  21  29
ATOM     29  C   UNL     1       4.806  -0.383   3.656  0.00  0.00    +0.100 C 
BRANCH  29  30
ATOM     30  C   UNL     1       5.030   0.316   4.999  0.00  0.00    +0.044 C 
BRANCH  30  31
ATOM     31  C   UNL     1       6.483   0.209   5.384  0.00  0.00    -0.047 A 
ATOM     32  C   UNL     1       6.923  -0.870   6.128  0.00  0.00    +0.003 A 
ATOM     33  C   UNL     1       8.256  -0.968   6.482  0.00  0.00    +0.000 A 
ATOM     34  C   UNL     1       9.148   0.013   6.091  0.00  0.00    +0.000 A 
ATOM     35  C   UNL     1       8.708   1.091   5.346  0.00  0.00    +0.000 A 
ATOM     36  C   UNL     1       7.376   1.187   4.989  0.00  0.00    +0.003 A 
ENDBRANCH  30  31
ENDBRANCH  29  30
ENDBRANCH  21  29
ENDBRANCH   1  20
BRANCH   1  38
ATOM     37  C   UNL     1       1.882   1.458   0.577  0.00  0.00    +0.006 C 
ATOM     38  C   UNL     1       1.386   0.021   0.410  0.00  0.00    +0.027 C 
ENDBRANCH   1  38
TORSDOF 10
