REMARK  Name = ZINC61592626
REMARK  7 active torsions:
REMARK  status: ('A' for Active; 'I' for Inactive)
REMARK    1  A    between atoms: C_1  and  C_2
REMARK    2  A    between atoms: C_2  and  C_4
REMARK    3  A    between atoms: C_2  and  N_22
REMARK    4  A    between atoms: C_4  and  C_6
REMARK    5  A    between atoms: C_4  and  S_13
REMARK    6  A    between atoms: S_13  and  C_14
REMARK    7  A    between atoms: N_20  and  C_21
REMARK                            x       y       z     vdW  Elec       q    Type
REMARK                         _______ _______ _______ _____ _____    ______ ____
ROOT
ATOM      1  C   UNL     1       0.845  -0.517   1.173  0.00  0.00    +0.069 C 
ENDROOT
BRANCH   1   2
ATOM      2  C   UNL     1       1.111  -1.996   1.057  0.00  0.00    -0.036 A 
ATOM      3  C   UNL     1       0.057  -2.889   1.048  0.00  0.00    +0.006 A 
ATOM      4  C   UNL     1       0.301  -4.246   0.941  0.00  0.00    +0.015 A 
ATOM      5  C   UNL     1       1.600  -4.709   0.842  0.00  0.00    +0.018 A 
ATOM      6  C   UNL     1       2.655  -3.814   0.851  0.00  0.00    +0.015 A 
ATOM      7  C   UNL     1       2.410  -2.458   0.953  0.00  0.00    +0.006 A 
ATOM      8 BR   UNL     1       1.935  -6.564   0.696  0.00  0.00    -0.050 Br
ENDBRANCH   1   2
BRANCH   1  10
ATOM      9  C   UNL     1      -0.247   1.450   0.086  0.00  0.00    -0.013 C 
ATOM     10  C   UNL     1      -0.024  -0.061  -0.001  0.00  0.00    -0.060 C 
BRANCH  10  11
ATOM     11  N   UNL     1       0.653  -0.384  -1.265  0.00  0.00    +0.381 N 
ATOM     12  H   UNL     1       0.080  -0.083  -2.039  0.00  0.00    -0.090 HD
ATOM     13  H   UNL     1       1.543   0.091  -1.300  0.00  0.00    -0.090 HD
ATOM     14  H   UNL     1       0.801  -1.380  -1.322  0.00  0.00    -0.090 HD
ENDBRANCH  10  11
ENDBRANCH   1  10
BRANCH   1  15
ATOM     15  S   UNL     1      -0.020  -0.179   2.732  0.00  0.00    -0.080 S 
BRANCH  15  16
ATOM     16  C   UNL     1       1.181  -0.535   3.971  0.00  0.00    +0.192 A 
ATOM     17  N   UNL     1       2.370  -1.021   3.759  0.00  0.00    -0.145 NA
ATOM     18  N   UNL     1       3.010  -1.157   4.999  0.00  0.00    -0.226 N 
ATOM     19  H   UNL     1       3.907  -1.494   5.147  0.00  0.00    +0.194 HD
ATOM     20  C   UNL     1       2.150  -0.731   5.947  0.00  0.00    +0.345 A 
ATOM     21  O   UNL     1       2.358  -0.701   7.146  0.00  0.00    -0.245 OA
ATOM     22  N   UNL     1       1.020  -0.340   5.324  0.00  0.00    -0.274 N 
ATOM     23  C   UNL     1      -0.176   0.198   5.977  0.00  0.00    +0.156 C 
ENDBRANCH  15  16
ENDBRANCH   1  15
TORSDOF 5
