REMARK  Name = ZINC04453458
REMARK  6 active torsions:
REMARK  status: ('A' for Active; 'I' for Inactive)
REMARK    1  A    between atoms: C_1  and  C_2
REMARK    2  A    between atoms: C_2  and  C_3
REMARK    3  A    between atoms: C_3  and  C_4
REMARK    4  A    between atoms: C_11  and  N_24
REMARK    5  A    between atoms: C_12  and  C_22
REMARK    6  A    between atoms: C_13  and  C_15
REMARK                            x       y       z     vdW  Elec       q    Type
REMARK                         _______ _______ _______ _____ _____    ______ ____
ROOT
ATOM      1  C   UNL     1      -1.413  -2.041   0.005  0.00  0.00    +0.071 A 
ATOM      2  C   UNL     1      -1.407  -2.849  -1.124  0.00  0.00    +0.050 A 
ATOM      3  C   UNL     1      -1.388  -4.152  -0.711  0.00  0.00    +0.222 A 
ATOM      4  N   UNL     1      -1.381  -4.152   0.632  0.00  0.00    -0.246 N 
ATOM      5  H   UNL     1      -1.367  -4.936   1.203  0.00  0.00    +0.192 HD
ATOM      6  N   UNL     1      -1.392  -2.816   1.062  0.00  0.00    -0.176 NA
ATOM      7  O   UNL     1      -1.381  -5.196  -1.577  0.00  0.00    -0.423 OA
ATOM      8  C   UNL     1      -1.670  -4.936  -2.869  0.00  0.00    +0.200 C 
ATOM      9  C   UNL     1      -1.706  -3.692  -3.396  0.00  0.00    +0.098 C 
ATOM     10  C   UNL     1      -1.417  -2.458  -2.579  0.00  0.00    +0.104 C 
ENDROOT
BRANCH  10  11
ATOM     11  C   UNL     1      -0.073  -1.895  -2.963  0.00  0.00    +0.001 A 
ATOM     12  C   UNL     1       1.062  -2.673  -2.844  0.00  0.00    +0.007 A 
ATOM     13  C   UNL     1       2.295  -2.157  -3.196  0.00  0.00    +0.000 A 
ATOM     14  C   UNL     1       2.394  -0.861  -3.669  0.00  0.00    +0.003 A 
ATOM     15  C   UNL     1       1.259  -0.081  -3.789  0.00  0.00    +0.038 A 
ATOM     16  C   UNL     1       0.023  -0.599  -3.442  0.00  0.00    +0.127 A 
ATOM     17  F   UNL     1      -1.087   0.161  -3.563  0.00  0.00    -0.205 F 
ENDBRANCH  10  11
BRANCH   8  18
ATOM     18  N   UNL     1      -1.942  -5.997  -3.696  0.00  0.00    -0.328 N 
ATOM     19  H   UNL     1      -1.924  -6.902  -3.347  0.00  0.00    +0.145 HD
ATOM     20  H   UNL     1      -2.153  -5.842  -4.630  0.00  0.00    +0.145 HD
ENDBRANCH   8  18
BRANCH   9  21
ATOM     21  C   UNL     1      -2.030  -3.541  -4.783  0.00  0.00    +0.101 C 
ATOM     22  N   UNL     1      -2.287  -3.420  -5.883  0.00  0.00    -0.191 NA
ENDBRANCH   9  21
BRANCH   1  23
ATOM     23  C   UNL     1      -1.433  -0.534   0.013  0.00  0.00    +0.057 C 
BRANCH  23  25
ATOM     24  C   UNL     1      -0.019   1.526   0.010  0.00  0.00    +0.004 C 
ATOM     25  C   UNL     1       0.002  -0.004   0.002  0.00  0.00    +0.003 C 
ENDBRANCH  23  25
ENDBRANCH   1  23
TORSDOF 5
