REMARK  Name = ZINC37514693
REMARK  6 active torsions:
REMARK  status: ('A' for Active; 'I' for Inactive)
REMARK    1  A    between atoms: C_1  and  C_2
REMARK    2  A    between atoms: C_2  and  C_3
REMARK    3  A    between atoms: C_2  and  C_13
REMARK    4  A    between atoms: C_2  and  N_17
REMARK    5  A    between atoms: C_13  and  O_15
REMARK    6  A    between atoms: O_15  and  C_16
REMARK                            x       y       z     vdW  Elec       q    Type
REMARK                         _______ _______ _______ _____ _____    ______ ____
ROOT
ATOM      1  C   UNL     1      -0.019   1.526   0.010  0.00  0.00    +0.009 C 
ATOM      2  C   UNL     1       0.002  -0.004   0.002  0.00  0.00    +0.085 C 
ENDROOT
BRANCH   2   3
ATOM      3  C   UNL     1       0.731  -0.503   1.223  0.00  0.00    +0.105 A 
ATOM      4  C   UNL     1       0.483  -1.665   1.842  0.00  0.00    +0.052 A 
ATOM      5  C   UNL     1       1.422  -1.736   2.969  0.00  0.00    +0.021 A 
ATOM      6  C   UNL     1       1.667  -2.670   3.975  0.00  0.00    +0.027 A 
ATOM      7  C   UNL     1       2.652  -2.423   4.907  0.00  0.00    +0.019 A 
ATOM      8  C   UNL     1       3.394  -1.251   4.846  0.00  0.00    +0.019 A 
ATOM      9  C   UNL     1       3.160  -0.321   3.857  0.00  0.00    +0.048 A 
ATOM     10  C   UNL     1       2.173  -0.551   2.907  0.00  0.00    +0.135 A 
ATOM     11  O   UNL     1       1.728   0.150   1.845  0.00  0.00    -0.461 OA
ATOM     12 BR   UNL     1       2.992  -3.684   6.274  0.00  0.00    -0.050 Br
ENDBRANCH   2   3
BRANCH   2  13
ATOM     13  N   UNL     1      -1.376  -0.512   0.012  0.00  0.00    +0.393 N 
ATOM     14  H   UNL     1      -1.864  -0.178  -0.805  0.00  0.00    -0.088 HD
ATOM     15  H   UNL     1      -1.362  -1.521   0.007  0.00  0.00    -0.088 HD
ATOM     16  H   UNL     1      -1.848  -0.187   0.843  0.00  0.00    -0.088 HD
ENDBRANCH   2  13
BRANCH   2  17
ATOM     17  C   UNL     1       0.707  -0.490  -1.238  0.00  0.00    +0.302 C 
ATOM     18  O   UNL     1       1.884  -0.762  -1.196  0.00  0.00    -0.252 OA
BRANCH  17  19
ATOM     19  O   UNL     1       0.029  -0.621  -2.388  0.00  0.00    -0.469 OA
ATOM     20  C   UNL     1       0.760  -1.087  -3.524  0.00  0.00    +0.280 C 
ENDBRANCH  17  19
ENDBRANCH   2  17
TORSDOF 4
