REMARK  Name = ZINC11730239
REMARK  6 active torsions:
REMARK  status: ('A' for Active; 'I' for Inactive)
REMARK    1  A    between atoms: C_1  and  C_2
REMARK    2  A    between atoms: C_2  and  C_20
REMARK    3  A    between atoms: C_12  and  O_18
REMARK    4  A    between atoms: C_13  and  O_16
REMARK    5  A    between atoms: O_16  and  C_17
REMARK    6  A    between atoms: O_18  and  C_19
REMARK                            x       y       z     vdW  Elec       q    Type
REMARK                         _______ _______ _______ _____ _____    ______ ____
ROOT
ATOM      1  C   UNL     1       2.240   5.617  -0.052  0.00  0.00    +0.061 C 
ATOM      2  C   UNL     1       2.199   4.213   0.554  0.00  0.00    +0.138 C 
ATOM      3  C   UNL     1       3.499   3.531   0.318  0.00  0.00    +0.062 A 
ATOM      4  C   UNL     1       3.650   2.184   0.068  0.00  0.00    +0.091 A 
ATOM      5  N   UNL     1       4.894   1.736  -0.106  0.00  0.00    -0.225 NA
ATOM      6  C   UNL     1       5.940   2.543  -0.057  0.00  0.00    +0.156 A 
ATOM      7  S   UNL     1       5.162   4.122   0.275  0.00  0.00    -0.053 S 
ATOM      8  N   UNL     1       7.284   2.246  -0.219  0.00  0.00    -0.337 N 
ATOM      9  C   UNL     1       2.384   1.385   0.016  0.00  0.00    +0.047 A 
ATOM     10  C   UNL     1       2.400   0.002  -0.006  0.00  0.00    +0.017 A 
ATOM     11  C   UNL     1       1.205  -0.695  -0.013  0.00  0.00    +0.050 A 
ATOM     12  C   UNL     1       0.002  -0.004   0.002  0.00  0.00    +0.165 A 
ATOM     13  C   UNL     1      -0.017   1.385   0.010  0.00  0.00    +0.204 A 
ATOM     14  C   UNL     1       1.178   2.097   0.002  0.00  0.00    +0.176 A 
ATOM     15  O   UNL     1       1.154   3.453  -0.065  0.00  0.00    -0.477 OA
ATOM     16  C   UNL     1       1.938   4.311   2.059  0.00  0.00    +0.061 C 
ATOM     17  H   UNL     1       7.947   2.951  -0.155  0.00  0.00    +0.144 HD
ATOM     18  H   UNL     1       7.561   1.334  -0.396  0.00  0.00    +0.144 HD
ENDROOT
BRANCH  13  19
ATOM     19  O   UNL     1      -1.204   2.050   0.019  0.00  0.00    -0.488 OA
ATOM     20  C   UNL     1      -1.765   2.360   1.296  0.00  0.00    +0.277 C 
ENDBRANCH  13  19
BRANCH  12  21
ATOM     21  O   UNL     1      -1.170  -0.693   0.010  0.00  0.00    -0.491 OA
ATOM     22  C   UNL     1      -1.084  -2.120   0.002  0.00  0.00    +0.277 C 
ENDBRANCH  12  21
TORSDOF 2
