REMARK  Name = ZINC50700161
REMARK  3 active torsions:
REMARK  status: ('A' for Active; 'I' for Inactive)
REMARK    1  A    between atoms: C_3  and  N_16
REMARK    2  A    between atoms: C_4  and  C_8
REMARK    3  A    between atoms: C_6  and  N_7
REMARK                            x       y       z     vdW  Elec       q    Type
REMARK                         _______ _______ _______ _____ _____    ______ ____
ROOT
ATOM      1  C   UNL     1       0.016   1.475   0.158  0.00  0.00    +0.025 A 
ATOM      2  C   UNL     1       0.968   1.447   1.159  0.00  0.00    +0.035 A 
ATOM      3  C   UNL     1       2.133   0.727   0.991  0.00  0.00    +0.138 A 
ATOM      4  C   UNL     1       2.354   0.024  -0.195  0.00  0.00    +0.069 A 
ATOM      5  C   UNL     1       1.393   0.051  -1.206  0.00  0.00    +0.038 A 
ATOM      6  C   UNL     1       0.226   0.778  -1.026  0.00  0.00    +0.025 A 
ENDROOT
BRANCH   4   7
ATOM      7  C   UNL     1       3.602  -0.748  -0.379  0.00  0.00    +0.249 C 
ATOM      8  O   UNL     1       4.677  -0.185  -0.330  0.00  0.00    -0.270 OA
ATOM      9  N   UNL     1       3.546  -2.076  -0.600  0.00  0.00    -0.296 N 
ATOM     10  C   UNL     1       2.246  -2.728  -0.763  0.00  0.00    +0.119 C 
ATOM     11  C   UNL     1       2.117  -3.263  -2.194  0.00  0.00    +0.088 C 
ATOM     12  S   UNL     1       3.501  -4.396  -2.518  0.00  0.00    -0.158 S 
ATOM     13  C   UNL     1       4.961  -3.398  -2.096  0.00  0.00    +0.088 C 
ATOM     14  C   UNL     1       4.787  -2.848  -0.681  0.00  0.00    +0.119 C 
ENDBRANCH   4   7
BRANCH   6  15
ATOM     15  N   UNL     1      -0.740   0.809  -2.035  0.00  0.00    -0.358 N 
ATOM     16  H   UNL     1      -1.557   1.317  -1.910  0.00  0.00    +0.142 HD
ATOM     17  H   UNL     1      -0.594   0.322  -2.862  0.00  0.00    +0.142 HD
ENDBRANCH   6  15
BRANCH   3  18
ATOM     18  N   UNL     1       3.150   0.701   2.066  0.00  0.00    +0.057 N 
ATOM     19  O   UNL     1       3.018   1.407   3.039  0.00  0.00    -0.126 OA
ATOM     20  O   UNL     1       4.111  -0.026   1.972  0.00  0.00    -0.126 OA
ENDBRANCH   3  18
TORSDOF 3
