REMARK  Name = ZINC07139293
REMARK  9 active torsions:
REMARK  status: ('A' for Active; 'I' for Inactive)
REMARK    1  A    between atoms: C_1  and  C_2
REMARK    2  A    between atoms: C_2  and  N_3
REMARK    3  A    between atoms: N_3  and  C_4
REMARK    4  A    between atoms: C_4  and  C_5
REMARK    5  A    between atoms: C_6  and  C_8
REMARK    6  A    between atoms: C_8  and  O_9
REMARK    7  A    between atoms: O_9  and  C_10
REMARK    8  A    between atoms: C_10  and  C_12
REMARK    9  A    between atoms: C_14  and  C_18
REMARK                            x       y       z     vdW  Elec       q    Type
REMARK                         _______ _______ _______ _____ _____    ______ ____
ROOT
ATOM      1  C   UNL     1      -3.935  -0.927  -5.151  0.00  0.00    +0.143 A 
ATOM      2  C   UNL     1      -5.268  -0.814  -5.499  0.00  0.00    +0.064 A 
ATOM      3  C   UNL     1      -5.334  -1.211  -6.847  0.00  0.00    +0.093 A 
ATOM      4  N   UNL     1      -4.115  -1.527  -7.229  0.00  0.00    -0.173 NA
ATOM      5  N   UNL     1      -3.280  -1.368  -6.267  0.00  0.00    -0.270 N 
ATOM      6  H   UNL     1      -2.326  -1.537  -6.323  0.00  0.00    +0.189 HD
ENDROOT
BRANCH   3   7
ATOM      7  C   UNL     1      -6.558  -1.264  -7.686  0.00  0.00    +0.002 A 
ATOM      8  C   UNL     1      -7.790  -0.894  -7.150  0.00  0.00    +0.011 A 
ATOM      9  C   UNL     1      -8.924  -0.946  -7.934  0.00  0.00    +0.016 A 
ATOM     10  C   UNL     1      -8.840  -1.365  -9.251  0.00  0.00    +0.018 A 
ATOM     11  C   UNL     1      -7.618  -1.733  -9.788  0.00  0.00    +0.016 A 
ATOM     12  C   UNL     1      -6.477  -1.679  -9.014  0.00  0.00    +0.011 A 
ATOM     13 BR   UNL     1     -10.398  -1.434 -10.319  0.00  0.00    -0.050 Br
ENDBRANCH   3   7
BRANCH   1  14
ATOM     14  C   UNL     1      -3.339  -0.628  -3.840  0.00  0.00    +0.358 C 
ATOM     15  O   UNL     1      -4.042  -0.241  -2.927  0.00  0.00    -0.243 OA
BRANCH  14  16
ATOM     16  O   UNL     1      -2.013  -0.783  -3.652  0.00  0.00    -0.451 OA
BRANCH  16  17
ATOM     17  C   UNL     1      -1.502  -0.473  -2.354  0.00  0.00    +0.328 C 
BRANCH  17  19
ATOM     18  N   UNL     1       0.688  -0.476  -1.203  0.00  0.00    -0.299 N 
ATOM     19  C   UNL     1      -0.013  -0.705  -2.332  0.00  0.00    +0.253 C 
ATOM     20  O   UNL     1       0.555  -1.096  -3.330  0.00  0.00    -0.272 OA
BRANCH  18  22
ATOM     21  C   UNL     1      -0.019   1.526   0.010  0.00  0.00    +0.024 C 
ATOM     22  C   UNL     1       0.002  -0.004   0.002  0.00  0.00    +0.104 C 
ENDBRANCH  18  22
BRANCH  18  23
ATOM     23  C   UNL     1       2.135  -0.701  -1.182  0.00  0.00    +0.104 C 
ATOM     24  C   UNL     1       2.421  -2.145  -0.763  0.00  0.00    +0.024 C 
ENDBRANCH  18  23
ENDBRANCH  17  19
ENDBRANCH  16  17
ENDBRANCH  14  16
ENDBRANCH   1  14
TORSDOF 7
