REMARK  Name = ZINC20722913
REMARK  9 active torsions:
REMARK  status: ('A' for Active; 'I' for Inactive)
REMARK    1  A    between atoms: C_1  and  C_2
REMARK    2  A    between atoms: C_2  and  C_3
REMARK    3  A    between atoms: C_2  and  C_4
REMARK    4  A    between atoms: C_7  and  N_10
REMARK    5  A    between atoms: C_11  and  C_13
REMARK    6  A    between atoms: N_15  and  C_16
REMARK    7  A    between atoms: C_16  and  C_17
REMARK    8  A    between atoms: C_17  and  N_18
REMARK    9  A    between atoms: C_19  and  C_21
REMARK                            x       y       z     vdW  Elec       q    Type
REMARK                         _______ _______ _______ _____ _____    ______ ____
ROOT
ATOM      1  C   UNL     1       2.448   1.019   0.104  0.00  0.00    +0.299 C 
ATOM      2  O   UNL     1       2.507  -0.191   0.185  0.00  0.00    -0.265 OA
ATOM      3  N   UNL     1       3.580   1.750   0.103  0.00  0.00    -0.306 N 
ATOM      4  H   UNL     1       3.527   2.846   0.030  0.00  0.00    +0.149 HD
ENDROOT
BRANCH   1   6
ATOM      5  N   UNL     1      -0.011   0.966   0.007  0.00  0.00    -0.278 N 
ATOM      6  C   UNL     1       1.121   1.697   0.006  0.00  0.00    +0.303 C 
ATOM      7  O   UNL     1       1.062   2.907  -0.075  0.00  0.00    -0.265 OA
ATOM      8  H   UNL     1       0.044  -0.133   0.009  0.00  0.00    +0.155 HD
BRANCH   5  12
ATOM      9  C   UNL     1      -3.717   2.865   0.006  0.00  0.00    -0.045 A 
ATOM     10  C   UNL     1      -2.656   3.423  -0.684  0.00  0.00    +0.006 A 
ATOM     11  C   UNL     1      -1.425   2.796  -0.685  0.00  0.00    +0.023 A 
ATOM     12  C   UNL     1      -1.254   1.603   0.007  0.00  0.00    +0.034 A 
ATOM     13  C   UNL     1      -2.324   1.044   0.694  0.00  0.00    +0.023 A 
ATOM     14  C   UNL     1      -3.550   1.679   0.696  0.00  0.00    +0.006 A 
BRANCH   9  16
ATOM     15  C   UNL     1      -6.109   2.621  -0.602  0.00  0.00    +0.012 C 
ATOM     16  C   UNL     1      -5.058   3.553   0.005  0.00  0.00    +0.013 C 
ATOM     17  C   UNL     1      -5.453   3.901   1.442  0.00  0.00    +0.012 C 
ENDBRANCH   9  16
ENDBRANCH   5  12
ENDBRANCH   1   6
BRANCH   3  18
ATOM     18  C   UNL     1       4.882   1.085   0.200  0.00  0.00    +0.123 C 
BRANCH  18  19
ATOM     19  C   UNL     1       5.994   2.135   0.177  0.00  0.00    +0.123 C 
BRANCH  19  20
ATOM     20  N   UNL     1       7.296   1.470   0.273  0.00  0.00    -0.309 N 
ATOM     21  C   UNL     1       8.428   2.201   0.272  0.00  0.00    +0.260 C 
ATOM     22  O   UNL     1       8.369   3.413   0.191  0.00  0.00    -0.269 OA
ATOM     23  H   UNL     1       7.349   0.373   0.347  0.00  0.00    +0.149 HD
BRANCH  21  24
ATOM     24  C   UNL     1       9.735   1.533   0.369  0.00  0.00    +0.103 A 
ATOM     25  C   UNL     1      10.941   2.159   0.372  0.00  0.00    +0.040 A 
ATOM     26  C   UNL     1      11.942   1.164   0.483  0.00  0.00    +0.000 A 
ATOM     27  C   UNL     1      13.342   1.209   0.538  0.00  0.00    +0.010 A 
ATOM     28  C   UNL     1      14.055   0.050   0.642  0.00  0.00    +0.001 A 
ATOM     29  C   UNL     1      13.406  -1.177   0.695  0.00  0.00    +0.002 A 
ATOM     30  C   UNL     1      12.032  -1.248   0.644  0.00  0.00    +0.026 A 
ATOM     31  C   UNL     1      11.282  -0.079   0.537  0.00  0.00    +0.047 A 
ATOM     32  N   UNL     1       9.932   0.169   0.466  0.00  0.00    -0.351 N 
ATOM     33  H   UNL     1       9.069  -0.512   0.475  0.00  0.00    +0.166 HD
ENDBRANCH  21  24
ENDBRANCH  19  20
ENDBRANCH  18  19
ENDBRANCH   3  18
TORSDOF 7
