REMARK  Name = ZINC39409728
REMARK  5 active torsions:
REMARK  status: ('A' for Active; 'I' for Inactive)
REMARK    1  A    between atoms: C_1  and  C_2
REMARK    2  A    between atoms: C_12  and  S_14
REMARK    3  A    between atoms: S_14  and  C_15
REMARK    4  A    between atoms: C_18  and  C_28
REMARK    5  A    between atoms: N_20  and  C_21
REMARK                            x       y       z     vdW  Elec       q    Type
REMARK                         _______ _______ _______ _____ _____    ______ ____
ROOT
ATOM      1  C   UNL     1      -1.216  -1.166   3.797  0.00  0.00    +0.181 C 
ATOM      2  N   UNL     1      -0.216  -1.937   4.063  0.00  0.00    -0.162 NA
ATOM      3  N   UNL     1      -0.342  -2.521   5.329  0.00  0.00    -0.241 N 
ATOM      4  C   UNL     1      -1.607  -2.017   5.890  0.00  0.00    +0.219 C 
ATOM      5  N   UNL     1      -2.131  -1.128   4.839  0.00  0.00    -0.254 N 
ATOM      6  H   UNL     1       0.279  -3.135   5.752  0.00  0.00    +0.171 HD
ENDROOT
BRANCH   5   7
ATOM      7  C   UNL     1      -3.319  -0.392   4.882  0.00  0.00    +0.038 A 
ATOM      8  C   UNL     1      -3.280   0.996   4.836  0.00  0.00    +0.026 A 
ATOM      9  C   UNL     1      -4.454   1.721   4.878  0.00  0.00    +0.040 A 
ATOM     10  C   UNL     1      -5.671   1.065   4.966  0.00  0.00    +0.124 A 
ATOM     11  C   UNL     1      -5.713  -0.318   5.013  0.00  0.00    +0.040 A 
ATOM     12  C   UNL     1      -4.541  -1.047   4.965  0.00  0.00    +0.026 A 
ATOM     13  F   UNL     1      -6.819   1.777   5.008  0.00  0.00    -0.205 F 
ENDBRANCH   5   7
BRANCH   4  14
ATOM     14  C   UNL     1      -1.353  -1.242   7.157  0.00  0.00    +0.030 A 
ATOM     15  C   UNL     1      -0.379  -1.416   8.083  0.00  0.00    +0.015 A 
ATOM     16  C   UNL     1      -0.338  -0.575   9.179  0.00  0.00    +0.008 A 
ATOM     17  C   UNL     1      -1.274   0.398   9.296  0.00  0.00    +0.045 A 
ATOM     18  S   UNL     1      -2.252   0.149   7.824  0.00  0.00    -0.098 S 
ENDBRANCH   4  14
BRANCH   1  19
ATOM     19  S   UNL     1      -1.394  -0.265   2.293  0.00  0.00    -0.071 S 
BRANCH  19  31
ATOM     20  C   UNL     1       0.062   1.627   0.116  0.00  0.00    +0.041 C 
ATOM     21  C   UNL     1       0.082   0.120   0.069  0.00  0.00    -0.042 C 
ATOM     22  C   UNL     1       0.104  -0.549  -1.115  0.00  0.00    +0.000 A 
ATOM     23  C   UNL     1       0.110   0.177  -2.386  0.00  0.00    +0.059 A 
ATOM     24  C   UNL     1       0.131  -0.521  -3.551  0.00  0.00    +0.167 A 
ATOM     25  C   UNL     1       0.150  -1.933  -3.556  0.00  0.00    +0.168 A 
ATOM     26  C   UNL     1       0.146  -2.663  -2.386  0.00  0.00    +0.073 A 
ATOM     27  C   UNL     1       0.124  -2.024  -1.141  0.00  0.00    +0.044 A 
ATOM     28  N   UNL     1       0.120  -2.750  -0.020  0.00  0.00    -0.284 N 
ATOM     29  C   UNL     1       0.098  -2.212   1.187  0.00  0.00    +0.235 C 
ATOM     30  O   UNL     1       0.095  -2.925   2.173  0.00  0.00    -0.274 OA
ATOM     31  C   UNL     1       0.083  -0.708   1.338  0.00  0.00    +0.166 C 
ATOM     32  O   UNL     1       0.170  -2.353  -4.854  0.00  0.00    -0.453 OA
ATOM     33  C   UNL     1      -0.257  -1.223  -5.635  0.00  0.00    +0.466 C 
ATOM     34  O   UNL     1       0.139  -0.086  -4.847  0.00  0.00    -0.453 OA
ATOM     35  H   UNL     1       0.133  -3.717  -0.095  0.00  0.00    +0.155 HD
ENDBRANCH  19  31
ENDBRANCH   1  19
TORSDOF 4
