REMARK  Name = ZINC48366046
REMARK  9 active torsions:
REMARK  status: ('A' for Active; 'I' for Inactive)
REMARK    1  A    between atoms: C_1  and  C_2
REMARK    2  A    between atoms: C_2  and  C_3
REMARK    3  A    between atoms: C_3  and  C_5
REMARK    4  A    between atoms: C_3  and  N_15
REMARK    5  A    between atoms: N_15  and  C_16
REMARK    6  A    between atoms: C_16  and  C_17
REMARK    7  A    between atoms: N_19  and  C_20
REMARK    8  A    between atoms: C_24  and  S_26
REMARK    9  A    between atoms: S_26  and  N_29
REMARK                            x       y       z     vdW  Elec       q    Type
REMARK                         _______ _______ _______ _____ _____    ______ ____
ROOT
ATOM      1  C   UNL     1      -2.875   1.477  -2.649  0.00  0.00    +0.200 C 
ATOM      2  O   UNL     1      -3.279   0.559  -3.330  0.00  0.00    -0.278 OA
ATOM      3  N   UNL     1      -3.011   2.747  -3.080  0.00  0.00    -0.287 N 
ATOM      4  H   UNL     1      -2.621   3.476  -2.572  0.00  0.00    +0.155 HD
ENDROOT
BRANCH   3   5
ATOM      5  C   UNL     1      -3.713   3.014  -4.260  0.00  0.00    +0.035 A 
ATOM      6  C   UNL     1      -3.311   4.052  -5.090  0.00  0.00    +0.023 A 
ATOM      7  C   UNL     1      -4.006   4.313  -6.254  0.00  0.00    +0.004 A 
ATOM      8  C   UNL     1      -5.103   3.542  -6.593  0.00  0.00    +0.029 A 
ATOM      9  C   UNL     1      -5.507   2.508  -5.769  0.00  0.00    +0.114 A 
ATOM     10  C   UNL     1      -4.811   2.238  -4.606  0.00  0.00    +0.052 A 
BRANCH   9  11
ATOM     11  S   UNL     1      -6.906   1.530  -6.205  0.00  0.00    +0.100 S 
ATOM     12  O   UNL     1      -7.406   0.975  -4.997  0.00  0.00    -0.146 OA
ATOM     13  O   UNL     1      -7.707   2.327  -7.067  0.00  0.00    -0.146 OA
BRANCH  11  14
ATOM     14  N   UNL     1      -6.351   0.261  -7.115  0.00  0.00    -0.118 NA
ATOM     15  C   UNL     1      -7.181  -0.620  -7.570  0.00  0.00    +0.117 C 
ATOM     16  C   UNL     1      -6.802  -1.823  -8.404  0.00  0.00    +0.074 C 
ATOM     17  C   UNL     1      -8.038  -2.749  -8.323  0.00  0.00    +0.026 C 
ATOM     18  C   UNL     1      -9.175  -1.746  -8.032  0.00  0.00    +0.103 C 
ATOM     19  N   UNL     1      -8.533  -0.607  -7.365  0.00  0.00    -0.331 N 
ATOM     20  H   UNL     1      -9.005   0.066  -6.849  0.00  0.00    +0.147 HD
ENDBRANCH  11  14
ENDBRANCH   9  11
ENDBRANCH   3   5
BRANCH   1  21
ATOM     21  C   UNL     1      -2.222   1.198  -1.319  0.00  0.00    +0.016 C 
BRANCH  21  22
ATOM     22  N   UNL     1      -2.196  -0.251  -1.081  0.00  0.00    +0.387 N 
ATOM     23  H   UNL     1      -1.584  -0.691  -1.752  0.00  0.00    -0.085 HD
ATOM     24  H   UNL     1      -3.128  -0.625  -1.181  0.00  0.00    -0.085 HD
BRANCH  22  25
ATOM     25  C   UNL     1      -1.704  -0.515   0.278  0.00  0.00    -0.065 C 
BRANCH  25  26
ATOM     26  C   UNL     1      -1.763  -2.018   0.558  0.00  0.00    -0.041 C 
ATOM     27  C   UNL     1      -0.887  -2.760  -0.454  0.00  0.00    +0.009 C 
ATOM     28  C   UNL     1      -0.946  -4.263  -0.174  0.00  0.00    -0.010 C 
ATOM     29  C   UNL     1      -0.434  -4.538   1.241  0.00  0.00    +0.007 C 
ATOM     30  C   UNL     1      -1.309  -3.796   2.253  0.00  0.00    -0.010 C 
ATOM     31  C   UNL     1      -1.251  -2.293   1.973  0.00  0.00    +0.009 C 
ATOM     32  C   UNL     1      -2.755  -4.283   2.130  0.00  0.00    +0.007 C 
ATOM     33  C   UNL     1      -3.267  -4.007   0.715  0.00  0.00    -0.010 C 
ATOM     34  C   UNL     1      -2.391  -4.749  -0.297  0.00  0.00    +0.007 C 
ATOM     35  C   UNL     1      -3.208  -2.504   0.435  0.00  0.00    +0.009 C 
ENDBRANCH  25  26
BRANCH  25  37
ATOM     36  C   UNL     1      -0.250   1.446   0.804  0.00  0.00    +0.002 C 
ATOM     37  C   UNL     1      -0.259  -0.029   0.401  0.00  0.00    -0.019 C 
ENDBRANCH  25  37
ENDBRANCH  22  25
ENDBRANCH  21  22
ENDBRANCH   1  21
TORSDOF 8
