REMARK  Name = ZINC09440939
REMARK  8 active torsions:
REMARK  status: ('A' for Active; 'I' for Inactive)
REMARK    1  A    between atoms: C_1  and  C_2
REMARK    2  A    between atoms: C_5  and  N_8
REMARK    3  A    between atoms: C_9  and  C_29
REMARK    4  A    between atoms: C_12  and  S_13
REMARK    5  A    between atoms: S_13  and  C_14
REMARK    6  A    between atoms: C_14  and  C_15
REMARK    7  A    between atoms: N_17  and  C_18
REMARK    8  A    between atoms: C_19  and  C_26
REMARK                            x       y       z     vdW  Elec       q    Type
REMARK                         _______ _______ _______ _____ _____    ______ ____
ROOT
ATOM      1  C   UNL     1      -0.742   1.585  -1.213  0.00  0.00    +0.228 C 
ATOM      2  O   UNL     1      -1.736   2.268  -1.088  0.00  0.00    -0.275 OA
ATOM      3  N   UNL     1      -0.288   1.272  -2.443  0.00  0.00    -0.279 N 
ATOM      4  H   UNL     1       0.507   0.726  -2.543  0.00  0.00    +0.155 HD
ENDROOT
BRANCH   3   5
ATOM      5  C   UNL     1      -0.959   1.732  -3.566  0.00  0.00    +0.084 A 
ATOM      6  C   UNL     1      -0.648   1.523  -4.899  0.00  0.00    +0.068 A 
ATOM      7  C   UNL     1      -1.530   2.121  -5.902  0.00  0.00    -0.023 A 
ATOM      8  C   UNL     1      -2.560   2.829  -5.406  0.00  0.00    -0.004 A 
ATOM      9  S   UNL     1      -2.384   2.711  -3.643  0.00  0.00    -0.077 S 
ATOM     10  C   UNL     1      -3.418   3.414  -6.496  0.00  0.00    +0.043 C 
ATOM     11  C   UNL     1      -3.035   2.617  -7.762  0.00  0.00    +0.010 C 
ATOM     12  C   UNL     1      -1.598   2.168  -7.429  0.00  0.00    +0.037 C 
BRANCH   6  13
ATOM     13  C   UNL     1       0.520   0.729  -5.292  0.00  0.00    +0.244 C 
ATOM     14  O   UNL     1       0.412  -0.472  -5.457  0.00  0.00    -0.270 OA
ATOM     15  N   UNL     1       1.714   1.329  -5.469  0.00  0.00    -0.325 N 
ATOM     16  H   UNL     1       1.800   2.286  -5.337  0.00  0.00    +0.145 HD
ATOM     17  H   UNL     1       2.487   0.803  -5.728  0.00  0.00    +0.145 HD
ENDBRANCH   6  13
ENDBRANCH   3   5
BRANCH   1  18
ATOM     18  C   UNL     1      -0.013   1.086   0.008  0.00  0.00    +0.173 C 
BRANCH  18  19
ATOM     19  S   UNL     1      -0.860   1.669   1.497  0.00  0.00    -0.076 S 
BRANCH  19  24
ATOM     20  N   UNL     1       0.015   1.071   4.089  0.00  0.00    -0.274 N 
ATOM     21  C   UNL     1       1.048   0.362   4.642  0.00  0.00    +0.135 A 
ATOM     22  N   UNL     1       1.754  -0.124   3.659  0.00  0.00    -0.133 NA
ATOM     23  N   UNL     1       1.240   0.221   2.533  0.00  0.00    -0.122 NA
ATOM     24  C   UNL     1       0.174   0.961   2.735  0.00  0.00    +0.197 A 
ATOM     25  C   UNL     1       1.320   0.178   6.113  0.00  0.00    +0.088 C 
BRANCH  20  30
ATOM     26  C   UNL     1      -4.073   3.885   6.845  0.00  0.00    +0.044 C 
ATOM     27  C   UNL     1      -2.987   3.138   6.113  0.00  0.00    -0.050 A 
ATOM     28  C   UNL     1      -3.308   2.040   5.337  0.00  0.00    +0.005 A 
ATOM     29  C   UNL     1      -2.316   1.353   4.665  0.00  0.00    +0.026 A 
ATOM     30  C   UNL     1      -0.995   1.767   4.770  0.00  0.00    +0.050 A 
ATOM     31  C   UNL     1      -0.675   2.866   5.555  0.00  0.00    +0.026 A 
ATOM     32  C   UNL     1      -1.672   3.552   6.220  0.00  0.00    +0.005 A 
ENDBRANCH  20  30
ENDBRANCH  19  24
ENDBRANCH  18  19
ENDBRANCH   1  18
TORSDOF 6
