REMARK  Name = ZINC06300600
REMARK  13 active torsions:
REMARK  status: ('A' for Active; 'I' for Inactive)
REMARK    1  A    between atoms: C_1  and  C_2
REMARK    2  A    between atoms: C_4  and  C_38
REMARK    3  A    between atoms: C_9  and  C_14
REMARK    4  A    between atoms: C_14  and  C_16
REMARK    5  A    between atoms: C_14  and  N_69
REMARK    6  A    between atoms: N_20  and  C_21
REMARK    7  A    between atoms: C_21  and  C_22
REMARK    8  A    between atoms: C_21  and  C_23
REMARK    9  A    between atoms: C_21  and  C_24
REMARK   10  A    between atoms: C_25  and  C_26
REMARK   11  A    between atoms: C_25  and  N_69
REMARK   12  A    between atoms: C_32  and  C_33
REMARK   13  A    between atoms: C_32  and  N_69
REMARK                            x       y       z     vdW  Elec       q    Type
REMARK                         _______ _______ _______ _____ _____    ______ ____
ROOT
ATOM      1  C   UNL     1      -0.201   1.363  -0.667  0.00  0.00    +0.040 C 
ENDROOT
BRANCH   1  10
ATOM      2  C   UNL     1      -3.852   0.223  -7.069  0.00  0.00    +0.044 C 
ATOM      3  C   UNL     1      -3.270   1.153  -6.035  0.00  0.00    -0.050 A 
ATOM      4  C   UNL     1      -3.380   2.526  -6.206  0.00  0.00    +0.008 A 
ATOM      5  C   UNL     1      -2.854   3.395  -5.274  0.00  0.00    -0.026 A 
ATOM      6  C   UNL     1      -2.206   2.893  -4.150  0.00  0.00    +0.052 A 
ATOM      7  C   UNL     1      -2.097   1.499  -3.981  0.00  0.00    -0.001 A 
ATOM      8  C   UNL     1      -2.638   0.637  -4.940  0.00  0.00    +0.013 A 
ATOM      9  C   UNL     1      -1.414   0.980  -2.794  0.00  0.00    +0.017 A 
ATOM     10  C   UNL     1      -0.910   1.864  -1.899  0.00  0.00    +0.011 A 
ATOM     11  C   UNL     1      -1.051   3.252  -2.113  0.00  0.00    +0.251 A 
ATOM     12  O   UNL     1      -0.595   4.029  -1.292  0.00  0.00    -0.268 OA
ATOM     13  N   UNL     1      -1.672   3.738  -3.202  0.00  0.00    -0.322 N 
ATOM     14  H   UNL     1      -1.748   4.698  -3.320  0.00  0.00    +0.169 HD
ATOM     15  C   UNL     1      -2.981   4.884  -5.472  0.00  0.00    +0.046 C 
ENDBRANCH   1  10
BRANCH   1  16
ATOM     16  C   UNL     1       1.248   1.772  -0.720  0.00  0.00    +0.143 A 
ATOM     17  N   UNL     1       1.729   2.976  -0.524  0.00  0.00    -0.115 NA
ATOM     18  N   UNL     1       3.010   2.918  -0.652  0.00  0.00    -0.023 NA
ATOM     19  N   UNL     1       3.358   1.711  -0.932  0.00  0.00    -0.043 NA
ATOM     20  N   UNL     1       2.300   0.974  -0.982  0.00  0.00    -0.225 N 
BRANCH  20  21
ATOM     21  C   UNL     1       2.252  -0.461  -1.271  0.00  0.00    +0.059 C 
ATOM     22  C   UNL     1       1.342  -0.709  -2.476  0.00  0.00    +0.036 C 
ATOM     23  C   UNL     1       3.662  -0.966  -1.584  0.00  0.00    +0.036 C 
ATOM     24  C   UNL     1       1.701  -1.208  -0.054  0.00  0.00    +0.036 C 
ENDBRANCH  20  21
ENDBRANCH   1  16
BRANCH   1  25
ATOM     25  N   UNL     1      -0.824   1.969   0.529  0.00  0.00    +0.397 N 
ATOM     26  H   UNL     1      -0.632   2.978   0.530  0.00  0.00    -0.079 HD
BRANCH  25  27
ATOM     27  C   UNL     1      -0.254   1.370   1.754  0.00  0.00    -0.041 C 
BRANCH  27  28
ATOM     28  C   UNL     1       1.016   2.103   2.102  0.00  0.00    -0.064 A 
ATOM     29  C   UNL     1       2.240   1.583   1.725  0.00  0.00    +0.002 A 
ATOM     30  C   UNL     1       3.404   2.259   2.039  0.00  0.00    +0.000 A 
ATOM     31  C   UNL     1       3.345   3.449   2.740  0.00  0.00    +0.000 A 
ATOM     32  C   UNL     1       2.121   3.965   3.123  0.00  0.00    +0.000 A 
ATOM     33  C   UNL     1       0.956   3.293   2.803  0.00  0.00    +0.002 A 
ENDBRANCH  27  28
ENDBRANCH  25  27
BRANCH  25  34
ATOM     34  C   UNL     1      -2.287   1.759   0.497  0.00  0.00    -0.001 C 
BRANCH  34  35
ATOM     35  C   UNL     1      -2.929   2.676   1.506  0.00  0.00    +0.089 A 
ATOM     36  C   UNL     1      -3.422   3.902   1.253  0.00  0.00    +0.042 A 
ATOM     37  C   UNL     1      -3.926   4.402   2.476  0.00  0.00    +0.041 A 
ATOM     38  C   UNL     1      -3.711   3.451   3.403  0.00  0.00    +0.195 A 
ATOM     39  O   UNL     1      -3.113   2.406   2.809  0.00  0.00    -0.470 OA
ENDBRANCH  34  35
ENDBRANCH  25  34
ENDBRANCH   1  25
TORSDOF 8
