REMARK  Name = ZINC39698868
REMARK  7 active torsions:
REMARK  status: ('A' for Active; 'I' for Inactive)
REMARK    1  A    between atoms: C_1  and  C_2
REMARK    2  A    between atoms: C_2  and  C_4
REMARK    3  A    between atoms: C_2  and  N_14
REMARK    4  A    between atoms: C_15  and  C_17
REMARK    5  A    between atoms: C_17  and  S_18
REMARK    6  A    between atoms: S_18  and  C_19
REMARK    7  A    between atoms: C_23  and  C_25
REMARK                            x       y       z     vdW  Elec       q    Type
REMARK                         _______ _______ _______ _____ _____    ______ ____
ROOT
ATOM      1  C   UNL     1      -3.442  -1.177   1.191  0.00  0.00    +0.170 C 
ENDROOT
BRANCH   1   3
ATOM      2  N   UNL     1      -1.372  -0.511   0.012  0.00  0.00    -0.308 N 
ATOM      3  C   UNL     1      -2.029  -0.655   1.181  0.00  0.00    +0.223 C 
ATOM      4  O   UNL     1      -1.481  -0.365   2.224  0.00  0.00    -0.275 OA
ATOM      5  H   UNL     1      -1.810  -0.743  -0.822  0.00  0.00    +0.149 HD
BRANCH   2   7
ATOM      6  C   UNL     1      -0.019   1.526   0.010  0.00  0.00    +0.033 C 
ATOM      7  C   UNL     1       0.002  -0.004   0.002  0.00  0.00    +0.100 C 
BRANCH   7   8
ATOM      8  C   UNL     1       0.707  -0.490  -1.238  0.00  0.00    -0.024 A 
ATOM      9  C   UNL     1       0.036  -0.521  -2.446  0.00  0.00    +0.009 A 
ATOM     10  C   UNL     1       0.679  -0.967  -3.585  0.00  0.00    +0.050 A 
ATOM     11  C   UNL     1       2.000  -1.385  -3.519  0.00  0.00    +0.162 A 
ATOM     12  C   UNL     1       2.676  -1.352  -2.305  0.00  0.00    +0.162 A 
ATOM     13  C   UNL     1       2.026  -0.899  -1.166  0.00  0.00    +0.055 A 
ATOM     14  O   UNL     1       3.974  -1.750  -2.219  0.00  0.00    -0.485 OA
ATOM     15  C   UNL     1       4.478  -2.540  -3.301  0.00  0.00    +0.270 C 
ATOM     16  C   UNL     1       4.050  -1.880  -4.619  0.00  0.00    +0.270 C 
ATOM     17  O   UNL     1       2.619  -1.826  -4.648  0.00  0.00    -0.485 OA
ENDBRANCH   7   8
ENDBRANCH   2   7
ENDBRANCH   1   3
BRANCH   1  18
ATOM     18  S   UNL     1      -4.045  -1.255   2.901  0.00  0.00    -0.087 S 
BRANCH  18  19
ATOM     19  C   UNL     1      -5.736  -1.894   2.741  0.00  0.00    +0.339 C 
ATOM     20  N   UNL     1      -5.729  -3.204   2.068  0.00  0.00    -0.219 N 
ATOM     21  N   UNL     1      -6.479  -3.028   0.896  0.00  0.00    -0.145 NA
ATOM     22  C   UNL     1      -6.908  -1.796   0.817  0.00  0.00    +0.238 C 
ATOM     23  O   UNL     1      -6.511  -1.049   1.879  0.00  0.00    -0.443 OA
ATOM     24  H   UNL     1      -5.297  -4.017   2.372  0.00  0.00    +0.173 HD
BRANCH  22  25
ATOM     25  C   UNL     1      -7.687  -1.304  -0.239  0.00  0.00    +0.043 C 
ATOM     26  C   UNL     1      -8.138  -2.010  -1.355  0.00  0.00    +0.008 A 
ATOM     27  C   UNL     1      -7.975  -3.350  -1.765  0.00  0.00    +0.010 A 
ATOM     28  C   UNL     1      -8.539  -3.773  -2.926  0.00  0.00    +0.001 A 
ATOM     29  C   UNL     1      -9.283  -2.911  -3.734  0.00  0.00    +0.002 A 
ATOM     30  C   UNL     1      -9.481  -1.611  -3.401  0.00  0.00    +0.026 A 
ATOM     31  C   UNL     1      -8.922  -1.097  -2.203  0.00  0.00    +0.043 A 
ATOM     32  N   UNL     1      -8.968   0.106  -1.665  0.00  0.00    -0.380 N 
ATOM     33  C   UNL     1      -8.220   0.102  -0.404  0.00  0.00    +0.154 C 
ATOM     34  H   UNL     1      -9.426   0.873  -2.044  0.00  0.00    +0.160 HD
ENDBRANCH  22  25
ENDBRANCH  18  19
ENDBRANCH   1  18
TORSDOF 6
