REMARK  Name = ZINC08994209
REMARK  13 active torsions:
REMARK  status: ('A' for Active; 'I' for Inactive)
REMARK    1  A    between atoms: C_1  and  C_2
REMARK    2  A    between atoms: C_3  and  N_36
REMARK    3  A    between atoms: C_4  and  C_35
REMARK    4  A    between atoms: N_5  and  C_7
REMARK    5  A    between atoms: C_7  and  C_8
REMARK    6  A    between atoms: C_10  and  C_16
REMARK    7  A    between atoms: C_13  and  O_14
REMARK    8  A    between atoms: O_14  and  C_15
REMARK    9  A    between atoms: N_17  and  N_18
REMARK   10  A    between atoms: C_19  and  C_21
REMARK   11  A    between atoms: C_21  and  C_22
REMARK   12  A    between atoms: C_22  and  N_71
REMARK   13  A    between atoms: C_27  and  C_29
REMARK                            x       y       z     vdW  Elec       q    Type
REMARK                         _______ _______ _______ _____ _____    ______ ____
ROOT
ATOM      1  C   UNL     1      -6.546   3.776  -5.558  0.00  0.00    +0.138 C 
ATOM      2  N   UNL     1      -5.298   3.998  -5.281  0.00  0.00    -0.188 NA
ENDROOT
BRANCH   1   5
ATOM      3  C   UNL     1      -9.017   4.563  -8.270  0.00  0.00    +0.016 A 
ATOM      4  C   UNL     1      -8.475   4.066  -7.104  0.00  0.00    +0.018 A 
ATOM      5  C   UNL     1      -7.131   4.304  -6.804  0.00  0.00    -0.005 A 
ATOM      6  C   UNL     1      -6.344   5.051  -7.686  0.00  0.00    +0.013 A 
ATOM      7  C   UNL     1      -6.894   5.540  -8.851  0.00  0.00    +0.046 A 
ATOM      8  C   UNL     1      -8.230   5.300  -9.145  0.00  0.00    +0.125 A 
BRANCH   8   9
ATOM      9  O   UNL     1      -8.769   5.788 -10.293  0.00  0.00    -0.495 OA
ATOM     10  C   UNL     1      -7.904   6.538 -11.148  0.00  0.00    +0.277 C 
ENDBRANCH   8   9
BRANCH   3  11
ATOM     11  C   UNL     1     -10.466   4.306  -8.595  0.00  0.00    +0.182 C 
BRANCH  11  16
ATOM     12  C   UNL     1     -10.934  -0.464 -10.088  0.00  0.00    +0.070 C 
ATOM     13  C   UNL     1     -10.777   1.035 -10.090  0.00  0.00    +0.090 A 
ATOM     14  C   UNL     1     -10.669   1.847 -11.224  0.00  0.00    +0.169 A 
ATOM     15  C   UNL     1     -10.549   3.129 -10.809  0.00  0.00    +0.067 A 
ATOM     16  N   UNL     1     -10.571   3.128  -9.460  0.00  0.00    -0.262 N 
ATOM     17  N   UNL     1     -10.718   1.802  -9.032  0.00  0.00    -0.174 NA
ATOM     18  C   UNL     1     -10.412   4.341 -11.694  0.00  0.00    +0.068 C 
BRANCH  14  19
ATOM     19  N   UNL     1     -10.688   1.385 -12.630  0.00  0.00    +0.060 N 
ATOM     20  O   UNL     1     -11.745   1.304 -13.230  0.00  0.00    -0.126 OA
ATOM     21  O   UNL     1      -9.647   1.086 -13.188  0.00  0.00    -0.126 OA
ENDBRANCH  14  19
ENDBRANCH  11  16
ENDBRANCH   3  11
ENDBRANCH   1   5
BRANCH   2  22
ATOM     22  N   UNL     1      -4.743   3.496  -4.097  0.00  0.00    -0.207 N 
ATOM     23  C   UNL     1      -3.447   3.727  -3.810  0.00  0.00    +0.230 C 
ATOM     24  O   UNL     1      -2.761   4.371  -4.576  0.00  0.00    -0.274 OA
ATOM     25  H   UNL     1      -5.291   2.981  -3.485  0.00  0.00    +0.177 HD
BRANCH  23  26
ATOM     26  C   UNL     1      -2.849   3.187  -2.536  0.00  0.00    +0.079 C 
BRANCH  26  27
ATOM     27  C   UNL     1      -1.375   3.588  -2.454  0.00  0.00    -0.069 C 
BRANCH  27  33
ATOM     28  C   UNL     1      -0.754   1.594  -1.231  0.00  0.00    -0.078 C 
ATOM     29  C   UNL     1      -0.013   1.086   0.008  0.00  0.00    -0.019 C 
ATOM     30  C   UNL     1      -0.731   1.580   1.267  0.00  0.00    -0.003 C 
ATOM     31  C   UNL     1      -0.801   3.110   1.237  0.00  0.00    -0.011 C 
ATOM     32  C   UNL     1      -1.520   3.559  -0.037  0.00  0.00    -0.036 C 
ATOM     33  N   UNL     1      -0.765   3.072  -1.211  0.00  0.00    +0.385 N 
ATOM     34  H   UNL     1       0.202   3.411  -1.149  0.00  0.00    -0.081 HD
BRANCH  32  35
ATOM     35  C   UNL     1      -1.573   5.064  -0.080  0.00  0.00    -0.043 A 
ATOM     36  C   UNL     1      -2.727   5.737   0.293  0.00  0.00    +0.005 A 
ATOM     37  C   UNL     1      -2.730   7.122   0.238  0.00  0.00    +0.020 A 
ATOM     38  C   UNL     1      -1.591   7.782  -0.184  0.00  0.00    +0.111 A 
ATOM     39  N   UNL     1      -0.511   7.109  -0.531  0.00  0.00    -0.263 NA
ATOM     40  C   UNL     1      -0.471   5.792  -0.486  0.00  0.00    +0.112 A 
ENDBRANCH  32  35
ENDBRANCH  27  33
ENDBRANCH  26  27
ENDBRANCH  23  26
ENDBRANCH   2  22
TORSDOF 10
