REMARK  Name = ZINC38994880
REMARK  7 active torsions:
REMARK  status: ('A' for Active; 'I' for Inactive)
REMARK    1  A    between atoms: C_1  and  C_2
REMARK    2  A    between atoms: C_2  and  O_3
REMARK    3  A    between atoms: O_3  and  C_4
REMARK    4  A    between atoms: C_7  and  C_10
REMARK    5  A    between atoms: N_16  and  N_17
REMARK    6  A    between atoms: N_17  and  N_18
REMARK    7  A    between atoms: C_19  and  C_20
REMARK                            x       y       z     vdW  Elec       q    Type
REMARK                         _______ _______ _______ _____ _____    ______ ____
ROOT
ATOM      1  N   UNL     1      -4.549  -6.125   0.443  0.00  0.00    -0.181 N 
ATOM      2  H   UNL     1      -4.927  -5.312   0.814  0.00  0.00    +0.193 HD
ENDROOT
BRANCH   1   8
ATOM      3  C   UNL     1      -2.002  -6.122   0.019  0.00  0.00    +0.261 C 
ATOM      4  N   UNL     1      -0.928  -6.777   0.782  0.00  0.00    -0.189 NA
ATOM      5  N   UNL     1      -1.441  -7.376   1.731  0.00  0.00    -0.219 N 
ATOM      6  C   UNL     1      -2.796  -7.251   1.779  0.00  0.00    +0.172 C 
ATOM      7  S   UNL     1      -3.804  -7.959   2.968  0.00  0.00    -0.015 S 
ATOM      8  N   UNL     1      -3.231  -6.487   0.749  0.00  0.00    -0.187 N 
ATOM      9  H   UNL     1      -0.929  -7.885   2.379  0.00  0.00    +0.176 HD
BRANCH   3  13
ATOM     10  C   UNL     1      -1.467  -1.883   0.011  0.00  0.00    +0.121 A 
ATOM     11  C   UNL     1      -0.362  -2.722   0.015  0.00  0.00    +0.046 A 
ATOM     12  C   UNL     1      -0.538  -4.093   0.019  0.00  0.00    +0.011 A 
ATOM     13  C   UNL     1      -1.813  -4.627   0.017  0.00  0.00    -0.002 A 
ATOM     14  C   UNL     1      -2.916  -3.792   0.011  0.00  0.00    +0.011 A 
ATOM     15  C   UNL     1      -2.745  -2.422   0.014  0.00  0.00    +0.046 A 
BRANCH  10  16
ATOM     16  O   UNL     1      -1.297  -0.534   0.008  0.00  0.00    -0.492 OA
BRANCH  16  18
ATOM     17  C   UNL     1       0.039   1.480   0.002  0.00  0.00    +0.048 C 
ATOM     18  C   UNL     1       0.048  -0.050   0.004  0.00  0.00    +0.225 C 
ENDBRANCH  16  18
ENDBRANCH  10  16
ENDBRANCH   3  13
ENDBRANCH   1   8
BRANCH   1  19
ATOM     19  N   UNL     1      -5.322  -6.935  -0.398  0.00  0.00    -0.176 NA
ATOM     20  C   UNL     1      -6.547  -6.598  -0.682  0.00  0.00    +0.140 C 
BRANCH  20  21
ATOM     21  C   UNL     1      -7.355  -7.447  -1.562  0.00  0.00    +0.010 A 
ATOM     22  C   UNL     1      -8.716  -7.152  -1.783  0.00  0.00    -0.009 A 
ATOM     23  C   UNL     1      -9.329  -6.045  -1.170  0.00  0.00    +0.009 A 
ATOM     24  C   UNL     1     -10.643  -5.788  -1.405  0.00  0.00    +0.001 A 
ATOM     25  C   UNL     1     -11.408  -6.598  -2.243  0.00  0.00    +0.001 A 
ATOM     26  C   UNL     1     -10.877  -7.682  -2.866  0.00  0.00    +0.008 A 
ATOM     27  C   UNL     1      -9.518  -8.004  -2.664  0.00  0.00    -0.017 A 
ATOM     28  C   UNL     1      -8.941  -9.110  -3.290  0.00  0.00    +0.017 A 
ATOM     29  C   UNL     1      -7.595  -9.409  -3.076  0.00  0.00    -0.017 A 
ATOM     30  C   UNL     1      -6.780  -8.563  -2.202  0.00  0.00    -0.009 A 
ATOM     31  C   UNL     1      -5.425  -8.890  -2.014  0.00  0.00    +0.009 A 
ATOM     32  C   UNL     1      -4.901  -9.974  -2.646  0.00  0.00    +0.001 A 
ATOM     33  C   UNL     1      -5.674 -10.777  -3.483  0.00  0.00    +0.001 A 
ATOM     34  C   UNL     1      -6.991 -10.523  -3.697  0.00  0.00    +0.008 A 
ENDBRANCH  20  21
ENDBRANCH   1  19
TORSDOF 6
