REMARK  Name = ZINC62498085
REMARK  7 active torsions:
REMARK  status: ('A' for Active; 'I' for Inactive)
REMARK    1  A    between atoms: C_1  and  N_2
REMARK    2  A    between atoms: C_4  and  C_14
REMARK    3  A    between atoms: C_10  and  O_13
REMARK    4  A    between atoms: C_14  and  C_15
REMARK    5  A    between atoms: C_18  and  N_21
REMARK    6  A    between atoms: N_21  and  C_22
REMARK    7  A    between atoms: N_21  and  C_23
REMARK                            x       y       z     vdW  Elec       q    Type
REMARK                         _______ _______ _______ _____ _____    ______ ____
ROOT
ATOM      1  C   UNL     1      -0.018   1.461   0.010  0.00  0.00    +0.129 C 
ATOM      2  N   UNL     1       0.002  -0.004   0.002  0.00  0.00    -0.327 N 
ATOM      3  C   UNL     1      -1.248  -0.783   0.004  0.00  0.00    +0.149 C 
ATOM      4  C   UNL     1      -1.062  -1.956   0.976  0.00  0.00    +0.195 C 
ATOM      5  O   UNL     1       0.058  -2.735   0.550  0.00  0.00    -0.485 OA
ATOM      6  C   UNL     1       1.217  -2.078   0.272  0.00  0.00    +0.142 A 
ATOM      7  C   UNL     1       1.213  -0.714  -0.013  0.00  0.00    +0.075 A 
ATOM      8  C   UNL     1       2.398  -0.057  -0.305  0.00  0.00    +0.072 A 
ATOM      9  C   UNL     1       3.593  -0.762  -0.317  0.00  0.00    +0.119 A 
ATOM     10  C   UNL     1       3.598  -2.120  -0.035  0.00  0.00    +0.049 A 
ATOM     11  C   UNL     1       2.415  -2.776   0.266  0.00  0.00    +0.051 A 
ENDROOT
BRANCH   9  12
ATOM     12  O   UNL     1       4.758  -0.122  -0.603  0.00  0.00    -0.507 OA
ATOM     13  H   UNL     1       5.208   0.242   0.172  0.00  0.00    +0.292 HD
ENDBRANCH   9  12
BRANCH   4  14
ATOM     14  C   UNL     1      -2.322  -2.824   0.979  0.00  0.00    +0.081 C 
BRANCH  14  15
ATOM     15  C   UNL     1      -2.186  -3.903   2.023  0.00  0.00    -0.044 A 
ATOM     16  C   UNL     1      -1.621  -5.120   1.687  0.00  0.00    +0.005 A 
ATOM     17  C   UNL     1      -1.495  -6.111   2.641  0.00  0.00    +0.023 A 
ATOM     18  C   UNL     1      -1.937  -5.884   3.939  0.00  0.00    +0.029 A 
ATOM     19  C   UNL     1      -2.504  -4.660   4.272  0.00  0.00    +0.023 A 
ATOM     20  C   UNL     1      -2.622  -3.672   3.315  0.00  0.00    +0.005 A 
BRANCH  18  21
ATOM     21  N   UNL     1      -1.811  -6.884   4.906  0.00  0.00    -0.336 N 
ATOM     22  C   UNL     1      -1.214  -8.174   4.552  0.00  0.00    +0.129 C 
ATOM     23  C   UNL     1      -2.278  -6.643   6.273  0.00  0.00    +0.129 C 
ENDBRANCH  18  21
ENDBRANCH  14  15
ENDBRANCH   4  14
TORSDOF 4
