REMARK  Name = ZINC36365603
REMARK  4 active torsions:
REMARK  status: ('A' for Active; 'I' for Inactive)
REMARK    1  A    between atoms: C_1  and  C_2
REMARK    2  A    between atoms: N_8  and  C_31
REMARK    3  A    between atoms: C_19  and  C_28
REMARK    4  A    between atoms: C_20  and  C_21
REMARK                            x       y       z     vdW  Elec       q    Type
REMARK                         _______ _______ _______ _____ _____    ______ ____
ROOT
ATOM      1  C   UNL     1      -0.534   1.484   0.108  0.00  0.00    +0.045 C 
ATOM      2  C   UNL     1      -0.445  -0.020   0.086  0.00  0.00    -0.029 A 
ATOM      3  C   UNL     1      -0.717  -0.744  -1.065  0.00  0.00    +0.005 A 
ATOM      4  C   UNL     1      -0.639  -2.120  -1.099  0.00  0.00    +0.001 A 
ATOM      5  C   UNL     1      -0.282  -2.853   0.029  0.00  0.00    +0.007 A 
ATOM      6  C   UNL     1      -0.010  -2.142   1.177  0.00  0.00    -0.005 A 
ATOM      7  C   UNL     1      -0.079  -0.743   1.222  0.00  0.00    +0.043 A 
ATOM      8  N   UNL     1       0.248  -0.286   2.487  0.00  0.00    -0.273 N 
ATOM      9  C   UNL     1       0.546  -1.298   3.329  0.00  0.00    +0.236 C 
ATOM     10  O   UNL     1       0.867  -1.195   4.494  0.00  0.00    -0.274 OA
ATOM     11  C   UNL     1       0.393  -2.585   2.548  0.00  0.00    +0.115 C 
ATOM     12  C   UNL     1      -0.686  -3.468   3.177  0.00  0.00    +0.122 C 
ATOM     13  C   UNL     1      -0.570  -4.883   2.687  0.00  0.00    +0.219 C 
ATOM     14  O   UNL     1      -1.587  -5.525   2.530  0.00  0.00    -0.275 OA
ATOM     15  N   UNL     1       0.607  -5.473   2.415  0.00  0.00    -0.284 N 
ATOM     16  C   UNL     1       1.799  -4.696   2.473  0.00  0.00    +0.054 A 
ATOM     17  C   UNL     1       1.689  -3.330   2.530  0.00  0.00    +0.032 A 
ATOM     18  S   UNL     1       3.246  -2.744   2.574  0.00  0.00    -0.083 S 
ATOM     19  C   UNL     1       4.133  -4.292   2.532  0.00  0.00    +0.110 A 
ATOM     20  C   UNL     1       3.088  -5.224   2.478  0.00  0.00    +0.026 A 
ATOM     21  C   UNL     1       0.268   1.128   2.866  0.00  0.00    +0.138 C 
ATOM     22  H   UNL     1       0.644  -6.414   2.182  0.00  0.00    +0.155 HD
ENDROOT
BRANCH  20  23
ATOM     23  C   UNL     1       3.340  -6.682   2.429  0.00  0.00    +0.004 A 
ATOM     24  C   UNL     1       3.487  -7.326   1.200  0.00  0.00    +0.010 A 
ATOM     25  C   UNL     1       3.721  -8.685   1.160  0.00  0.00    +0.001 A 
ATOM     26  C   UNL     1       3.810  -9.410   2.336  0.00  0.00    +0.001 A 
ATOM     27  C   UNL     1       3.665  -8.778   3.558  0.00  0.00    +0.020 A 
ATOM     28  C   UNL     1       3.436  -7.417   3.611  0.00  0.00    +0.049 A 
ATOM     29 CL   UNL     1       3.262  -6.623   5.146  0.00  0.00    -0.083 Cl
ENDBRANCH  20  23
BRANCH  19  30
ATOM     30  C   UNL     1       5.527  -4.518   2.550  0.00  0.00    +0.394 C 
ATOM     31  O   UNL     1       6.302  -3.570   2.601  0.00  0.00    -0.240 OA
ATOM     32  O   UNL     1       5.963  -5.664   2.515  0.00  0.00    -0.240 OA
ENDBRANCH  19  30
TORSDOF 2
