REMARK  Name = ZINC20445902
REMARK  9 active torsions:
REMARK  status: ('A' for Active; 'I' for Inactive)
REMARK    1  A    between atoms: C_1  and  C_2
REMARK    2  A    between atoms: C_2  and  C_3
REMARK    3  A    between atoms: C_3  and  C_4
REMARK    4  A    between atoms: C_10  and  C_28
REMARK    5  A    between atoms: C_12  and  C_15
REMARK    6  A    between atoms: N_17  and  C_18
REMARK    7  A    between atoms: C_23  and  C_24
REMARK    8  A    between atoms: C_31  and  O_34
REMARK    9  A    between atoms: O_34  and  C_35
REMARK                            x       y       z     vdW  Elec       q    Type
REMARK                         _______ _______ _______ _____ _____    ______ ____
ROOT
ATOM      1  C   UNL     1      -7.832   3.043  -0.187  0.00  0.00    +0.151 A 
ATOM      2  N   UNL     1      -8.039   3.483   1.024  0.00  0.00    -0.132 NA
ATOM      3  N   UNL     1      -6.970   3.354   1.732  0.00  0.00    -0.121 NA
ATOM      4  C   UNL     1      -6.028   2.822   1.003  0.00  0.00    +0.209 A 
ATOM      5  N   UNL     1      -6.538   2.610  -0.247  0.00  0.00    -0.225 N 
ATOM      6  N   UNL     1      -5.888   2.088  -1.318  0.00  0.00    -0.272 N 
ATOM      7  C   UNL     1      -4.719   1.283  -0.962  0.00  0.00    +0.140 C 
ATOM      8  C   UNL     1      -3.702   2.128  -0.184  0.00  0.00    +0.166 C 
ATOM      9  S   UNL     1      -4.377   2.420   1.479  0.00  0.00    -0.069 S 
ATOM     10  H   UNL     1      -6.163   2.221  -2.375  0.00  0.00    +0.167 HD
ENDROOT
BRANCH   7  11
ATOM     11  C   UNL     1      -4.073   0.759  -2.219  0.00  0.00    -0.024 A 
ATOM     12  C   UNL     1      -3.959   1.576  -3.329  0.00  0.00    +0.009 A 
ATOM     13  C   UNL     1      -3.363   1.100  -4.480  0.00  0.00    +0.046 A 
ATOM     14  C   UNL     1      -2.888  -0.203  -4.527  0.00  0.00    +0.120 A 
ATOM     15  C   UNL     1      -3.009  -1.023  -3.414  0.00  0.00    +0.046 A 
ATOM     16  C   UNL     1      -3.601  -0.540  -2.263  0.00  0.00    +0.009 A 
BRANCH  14  17
ATOM     17  O   UNL     1      -2.306  -0.675  -5.660  0.00  0.00    -0.495 OA
ATOM     18  C   UNL     1      -2.216   0.225  -6.767  0.00  0.00    +0.277 C 
ENDBRANCH  14  17
ENDBRANCH   7  11
BRANCH   8  19
ATOM     19  C   UNL     1      -2.394   1.385  -0.081  0.00  0.00    +0.233 C 
ATOM     20  O   UNL     1      -2.383   0.173  -0.088  0.00  0.00    -0.274 OA
ATOM     21  N   UNL     1      -1.237   2.069   0.019  0.00  0.00    -0.284 N 
ATOM     22  H   UNL     1      -1.252   3.166   0.100  0.00  0.00    +0.155 HD
BRANCH  21  23
ATOM     23  C   UNL     1      -0.017   1.384   0.020  0.00  0.00    +0.045 A 
ATOM     24  C   UNL     1       0.078   0.134   0.619  0.00  0.00    +0.024 A 
ATOM     25  C   UNL     1       1.282  -0.542   0.613  0.00  0.00    +0.002 A 
ATOM     26  C   UNL     1       2.392   0.024   0.013  0.00  0.00    +0.001 A 
ATOM     27  C   UNL     1       2.300   1.267  -0.584  0.00  0.00    +0.014 A 
ATOM     28  C   UNL     1       1.099   1.949  -0.582  0.00  0.00    +0.076 A 
BRANCH  28  29
ATOM     29  C   UNL     1       1.000   3.305  -1.232  0.00  0.00    +0.419 C 
ATOM     30  F   UNL     1       2.244   3.659  -1.765  0.00  0.00    -0.166 F 
ATOM     31  F   UNL     1       0.049   3.262  -2.257  0.00  0.00    -0.166 F 
ATOM     32  F   UNL     1       0.615   4.253  -0.278  0.00  0.00    -0.166 F 
ENDBRANCH  28  29
ENDBRANCH  21  23
ENDBRANCH   8  19
BRANCH   1  33
ATOM     33  C   UNL     1      -8.835   3.018  -1.311  0.00  0.00    +0.078 C 
BRANCH  33  35
ATOM     34  C   UNL     1     -10.615   1.667  -2.428  0.00  0.00    +0.004 C 
ATOM     35  C   UNL     1      -9.597   1.692  -1.286  0.00  0.00    +0.004 C 
ENDBRANCH  33  35
ENDBRANCH   1  33
TORSDOF 7
