REMARK  Name = ZINC09611459
REMARK  10 active torsions:
REMARK  status: ('A' for Active; 'I' for Inactive)
REMARK    1  A    between atoms: C_1  and  C_2
REMARK    2  A    between atoms: C_5  and  O_35
REMARK    3  A    between atoms: C_6  and  N_8
REMARK    4  A    between atoms: C_9  and  C_11
REMARK    5  A    between atoms: C_11  and  C_13
REMARK    6  A    between atoms: C_11  and  N_20
REMARK    7  A    between atoms: C_13  and  C_14
REMARK    8  A    between atoms: N_20  and  S_21
REMARK    9  A    between atoms: S_21  and  C_24
REMARK   10  A    between atoms: O_35  and  C_36
REMARK                            x       y       z     vdW  Elec       q    Type
REMARK                         _______ _______ _______ _____ _____    ______ ____
ROOT
ATOM      1  C   UNL     1      -1.329   1.945   0.035  0.00  0.00    +0.167 C 
ENDROOT
BRANCH   1   3
ATOM      2  N   UNL     1       1.143   1.898   0.001  0.00  0.00    -0.281 N 
ATOM      3  C   UNL     1      -0.015   1.209   0.013  0.00  0.00    +0.236 C 
ATOM      4  O   UNL     1       0.002  -0.004  -0.000  0.00  0.00    -0.274 OA
ATOM      5  H   UNL     1       1.131   2.866  -0.069  0.00  0.00    +0.155 HD
BRANCH   2  11
ATOM      6  C   UNL     1       3.686  -2.064   1.419  0.00  0.00    +0.044 C 
ATOM      7  C   UNL     1       3.627  -0.704   0.774  0.00  0.00    -0.048 A 
ATOM      8  C   UNL     1       4.779  -0.128   0.272  0.00  0.00    +0.007 A 
ATOM      9  C   UNL     1       4.732   1.120  -0.321  0.00  0.00    +0.048 A 
ATOM     10  C   UNL     1       3.527   1.798  -0.413  0.00  0.00    +0.141 A 
ATOM     11  C   UNL     1       2.365   1.218   0.092  0.00  0.00    +0.076 A 
ATOM     12  C   UNL     1       2.422  -0.033   0.690  0.00  0.00    +0.030 A 
BRANCH  10  13
ATOM     13  O   UNL     1       3.478   3.025  -0.996  0.00  0.00    -0.493 OA
ATOM     14  C   UNL     1       4.708   3.558  -1.491  0.00  0.00    +0.277 C 
ENDBRANCH  10  13
ENDBRANCH   2  11
ENDBRANCH   1   3
BRANCH   1  15
ATOM     15  N   UNL     1      -2.430   0.978   0.037  0.00  0.00    -0.178 NA
ATOM     16  H   UNL     1      -2.335   0.136   0.509  0.00  0.00    +0.149 HD
BRANCH  15  17
ATOM     17  S   UNL     1      -3.837   1.323  -0.766  0.00  0.00    +0.059 S 
ATOM     18  O   UNL     1      -4.685   0.195  -0.602  0.00  0.00    -0.153 OA
ATOM     19  O   UNL     1      -4.222   2.631  -0.367  0.00  0.00    -0.153 OA
BRANCH  17  20
ATOM     20  C   UNL     1      -3.447   1.415  -2.482  0.00  0.00    +0.106 A 
ATOM     21  C   UNL     1      -3.078   2.624  -3.042  0.00  0.00    +0.030 A 
ATOM     22  C   UNL     1      -2.768   2.700  -4.386  0.00  0.00    +0.025 A 
ATOM     23  C   UNL     1      -2.837   1.560  -5.177  0.00  0.00    +0.037 A 
ATOM     24  C   UNL     1      -3.213   0.349  -4.613  0.00  0.00    -0.024 A 
ATOM     25  C   UNL     1      -3.518   0.279  -3.267  0.00  0.00    +0.034 A 
ATOM     26  C   UNL     1      -3.288  -0.887  -5.471  0.00  0.00    +0.046 C 
ATOM     27  C   UNL     1      -3.744  -0.505  -6.879  0.00  0.00    +0.101 C 
ATOM     28  C   UNL     1      -2.936   0.662  -7.380  0.00  0.00    +0.218 C 
ATOM     29  O   UNL     1      -2.647   0.730  -8.557  0.00  0.00    -0.275 OA
ATOM     30  N   UNL     1      -2.530   1.630  -6.539  0.00  0.00    -0.285 N 
ATOM     31  H   UNL     1      -2.020   2.382  -6.880  0.00  0.00    +0.155 HD
ENDBRANCH  17  20
ENDBRANCH  15  17
ENDBRANCH   1  15
BRANCH   1  32
ATOM     32  C   UNL     1      -1.408   2.810   1.294  0.00  0.00    +0.065 C 
BRANCH  32  33
ATOM     33  C   UNL     1      -2.666   3.639   1.257  0.00  0.00    -0.045 A 
ATOM     34  C   UNL     1      -2.650   4.895   0.681  0.00  0.00    +0.004 A 
ATOM     35  C   UNL     1      -3.805   5.653   0.642  0.00  0.00    +0.000 A 
ATOM     36  C   UNL     1      -4.975   5.159   1.189  0.00  0.00    +0.000 A 
ATOM     37  C   UNL     1      -4.990   3.905   1.769  0.00  0.00    +0.000 A 
ATOM     38  C   UNL     1      -3.836   3.144   1.803  0.00  0.00    +0.004 A 
ENDBRANCH  32  33
ENDBRANCH   1  32
TORSDOF 8
