REMARK  Name = ZINC36235279
REMARK  6 active torsions:
REMARK  status: ('A' for Active; 'I' for Inactive)
REMARK    1  A    between atoms: C_4  and  C_7
REMARK    2  A    between atoms: N_9  and  C_10
REMARK    3  A    between atoms: C_10  and  C_21
REMARK    4  A    between atoms: C_11  and  C_12
REMARK    5  A    between atoms: N_23  and  N_24
REMARK    6  A    between atoms: C_25  and  C_26
REMARK                            x       y       z     vdW  Elec       q    Type
REMARK                         _______ _______ _______ _____ _____    ______ ____
ROOT
ATOM      1  C   UNL     1       4.853  -2.593  -0.184  0.00  0.00    +0.098 C 
ATOM      2  C   UNL     1       4.895  -3.941  -0.049  0.00  0.00    +0.036 C 
ENDROOT
BRANCH   2   3
ATOM      3  C   UNL     1       6.165  -4.607   0.274  0.00  0.00    -0.019 A 
ATOM      4  C   UNL     1       7.126  -3.949   1.050  0.00  0.00    +0.012 A 
ATOM      5  C   UNL     1       8.315  -4.577   1.350  0.00  0.00    +0.050 A 
ATOM      6  C   UNL     1       8.565  -5.861   0.886  0.00  0.00    +0.166 A 
ATOM      7  C   UNL     1       7.611  -6.524   0.111  0.00  0.00    +0.167 A 
ATOM      8  C   UNL     1       6.414  -5.904  -0.189  0.00  0.00    +0.057 A 
ATOM      9  O   UNL     1       8.096  -7.758  -0.215  0.00  0.00    -0.453 OA
ATOM     10  C   UNL     1       9.515  -7.687   0.020  0.00  0.00    +0.466 C 
ATOM     11  O   UNL     1       9.643  -6.682   1.043  0.00  0.00    -0.453 OA
ENDBRANCH   2   3
BRANCH   1  14
ATOM     12  C   UNL     1       3.590  -0.619  -0.589  0.00  0.00    +0.248 C 
ATOM     13  O   UNL     1       4.617   0.031  -0.560  0.00  0.00    -0.270 OA
ATOM     14  N   UNL     1       3.625  -1.946  -0.357  0.00  0.00    -0.277 N 
ATOM     15  H   UNL     1       2.799  -2.452  -0.311  0.00  0.00    +0.155 HD
BRANCH  12  19
ATOM     16  C   UNL     1      -0.110   1.293  -1.425  0.00  0.00    +0.000 A 
ATOM     17  C   UNL     1       1.057   2.036  -1.391  0.00  0.00    +0.001 A 
ATOM     18  C   UNL     1       2.262   1.421  -1.121  0.00  0.00    +0.013 A 
ATOM     19  C   UNL     1       2.302   0.047  -0.880  0.00  0.00    +0.037 A 
ATOM     20  C   UNL     1       1.121  -0.697  -0.915  0.00  0.00    +0.013 A 
ATOM     21  C   UNL     1      -0.077  -0.069  -1.187  0.00  0.00    +0.001 A 
ENDBRANCH  12  19
ENDBRANCH   1  14
BRANCH   1  22
ATOM     22  C   UNL     1       6.095  -1.813  -0.149  0.00  0.00    +0.277 C 
ATOM     23  O   UNL     1       6.333  -1.090   0.801  0.00  0.00    -0.267 OA
ATOM     24  N   UNL     1       6.973  -1.896  -1.168  0.00  0.00    -0.202 N 
ATOM     25  H   UNL     1       6.751  -2.414  -1.958  0.00  0.00    +0.178 HD
BRANCH  24  26
ATOM     26  N   UNL     1       8.205  -1.234  -1.088  0.00  0.00    -0.187 NA
ATOM     27  C   UNL     1       9.053  -1.315  -2.074  0.00  0.00    +0.139 C 
BRANCH  27  28
ATOM     28  C   UNL     1      10.341  -0.623  -1.990  0.00  0.00    +0.010 A 
ATOM     29  C   UNL     1      11.217  -0.608  -3.095  0.00  0.00    -0.009 A 
ATOM     30  C   UNL     1      10.878  -1.252  -4.298  0.00  0.00    +0.009 A 
ATOM     31  C   UNL     1      11.744  -1.219  -5.345  0.00  0.00    +0.001 A 
ATOM     32  C   UNL     1      12.969  -0.559  -5.261  0.00  0.00    +0.001 A 
ATOM     33  C   UNL     1      13.356   0.082  -4.128  0.00  0.00    +0.008 A 
ATOM     34  C   UNL     1      12.503   0.086  -3.004  0.00  0.00    -0.017 A 
ATOM     35  C   UNL     1      12.871   0.735  -1.825  0.00  0.00    +0.017 A 
ATOM     36  C   UNL     1      12.011   0.725  -0.726  0.00  0.00    -0.017 A 
ATOM     37  C   UNL     1      10.718   0.042  -0.804  0.00  0.00    -0.009 A 
ATOM     38  C   UNL     1       9.874   0.057   0.319  0.00  0.00    +0.009 A 
ATOM     39  C   UNL     1      10.267   0.708   1.447  0.00  0.00    +0.001 A 
ATOM     40  C   UNL     1      11.494   1.365   1.522  0.00  0.00    +0.001 A 
ATOM     41  C   UNL     1      12.363   1.374   0.477  0.00  0.00    +0.008 A 
ENDBRANCH  27  28
ENDBRANCH  24  26
ENDBRANCH   1  22
TORSDOF 6
