REMARK  Name = ZINC54823828
REMARK  5 active torsions:
REMARK  status: ('A' for Active; 'I' for Inactive)
REMARK    1  A    between atoms: C_1  and  S_2
REMARK    2  A    between atoms: S_2  and  C_5
REMARK    3  A    between atoms: C_8  and  N_11
REMARK    4  A    between atoms: N_11  and  C_12
REMARK    5  A    between atoms: C_19  and  C_21
REMARK                            x       y       z     vdW  Elec       q    Type
REMARK                         _______ _______ _______ _____ _____    ______ ____
ROOT
ATOM      1  N   UNL     1       2.838  -1.462  -4.993  0.00  0.00    -0.340 N 
ATOM      2  H   UNL     1       2.339  -1.585  -5.815  0.00  0.00    +0.146 HD
ENDROOT
BRANCH   1   3
ATOM      3  C   UNL     1       4.293  -1.636  -4.985  0.00  0.00    +0.087 C 
ATOM      4  C   UNL     1       4.621  -3.064  -4.509  0.00  0.00    +0.023 C 
ATOM      5  C   UNL     1       6.056  -3.497  -4.864  0.00  0.00    +0.002 C 
ATOM      6  C   UNL     1       7.061  -2.400  -4.638  0.00  0.00    +0.000 C 
ATOM      7  C   UNL     1       7.267  -1.643  -5.966  0.00  0.00    +0.001 C 
ATOM      8  C   UNL     1       6.207  -0.681  -6.227  0.00  0.00    +0.020 C 
ATOM      9  C   UNL     1       4.824  -1.354  -6.364  0.00  0.00    +0.112 C 
BRANCH   9  10
ATOM     10  C   UNL     1       3.904  -0.452  -7.074  0.00  0.00    +0.068 C 
ATOM     11  N   UNL     1       3.193   0.245  -7.622  0.00  0.00    -0.196 NA
ENDBRANCH   9  10
ENDBRANCH   1   3
BRANCH   1  15
ATOM     12  C   UNL     1       0.845  -0.437  -1.483  0.00  0.00    +0.088 A 
ATOM     13  C   UNL     1       0.133  -0.612  -2.655  0.00  0.00    +0.029 A 
ATOM     14  C   UNL     1       0.791  -0.952  -3.821  0.00  0.00    +0.025 A 
ATOM     15  C   UNL     1       2.170  -1.118  -3.815  0.00  0.00    +0.027 A 
ATOM     16  C   UNL     1       2.883  -0.941  -2.636  0.00  0.00    +0.025 A 
ATOM     17  C   UNL     1       2.219  -0.596  -1.475  0.00  0.00    +0.029 A 
BRANCH  12  19
ATOM     18  C   UNL     1      -0.022   1.810   0.012  0.00  0.00    +0.200 C 
ATOM     19  S   UNL     1       0.002  -0.004   0.002  0.00  0.00    -0.006 S 
ATOM     20  O   UNL     1       0.835  -0.488   1.046  0.00  0.00    -0.170 OA
ATOM     21  O   UNL     1      -1.315  -0.510  -0.168  0.00  0.00    -0.170 OA
ENDBRANCH  12  19
ENDBRANCH   1  15
TORSDOF 4
