REMARK  Name = ZINC39694295
REMARK  8 active torsions:
REMARK  status: ('A' for Active; 'I' for Inactive)
REMARK    1  A    between atoms: C_1  and  C_2
REMARK    2  A    between atoms: C_2  and  C_3
REMARK    3  A    between atoms: C_3  and  C_5
REMARK    4  A    between atoms: C_3  and  C_6
REMARK    5  A    between atoms: C_10  and  C_19
REMARK    6  A    between atoms: N_21  and  C_22
REMARK    7  A    between atoms: C_22  and  C_23
REMARK    8  A    between atoms: C_28  and  N_29
REMARK                            x       y       z     vdW  Elec       q    Type
REMARK                         _______ _______ _______ _____ _____    ______ ____
ROOT
ATOM      1  C   UNL     1       0.634  -1.794  -1.308  0.00  0.00    +0.218 C 
ATOM      2  O   UNL     1       0.087  -2.459  -0.455  0.00  0.00    -0.275 OA
ATOM      3  N   UNL     1       1.175  -2.393  -2.387  0.00  0.00    -0.300 N 
ATOM      4  C   UNL     1       1.789  -1.749  -3.572  0.00  0.00    +0.121 C 
ATOM      5  C   UNL     1       3.010  -2.634  -3.909  0.00  0.00    +0.100 C 
ATOM      6  C   UNL     1       2.676  -4.009  -3.307  0.00  0.00    -0.004 C 
ATOM      7  C   UNL     1       1.296  -3.847  -2.653  0.00  0.00    +0.115 C 
ATOM      8  C   UNL     1       3.711  -4.390  -2.252  0.00  0.00    -0.010 C 
ATOM      9  C   UNL     1       3.389  -5.785  -1.709  0.00  0.00    -0.082 C 
ATOM     10  N   UNL     1       3.404  -6.756  -2.810  0.00  0.00    +0.379 N 
ATOM     11  C   UNL     1       2.344  -6.436  -3.774  0.00  0.00    -0.082 C 
ATOM     12  C   UNL     1       2.620  -5.068  -4.404  0.00  0.00    -0.010 C 
ATOM     13  H   UNL     1       4.299  -6.723  -3.274  0.00  0.00    -0.086 HD
ATOM     14  H   UNL     1       3.252  -7.683  -2.442  0.00  0.00    -0.086 HD
ENDROOT
BRANCH   5  15
ATOM     15  C   UNL     1       4.256  -2.071  -3.276  0.00  0.00    +0.218 C 
ATOM     16  O   UNL     1       4.192  -1.513  -2.201  0.00  0.00    -0.275 OA
ATOM     17  N   UNL     1       5.443  -2.187  -3.905  0.00  0.00    -0.311 N 
ATOM     18  H   UNL     1       5.484  -2.567  -4.796  0.00  0.00    +0.149 HD
BRANCH  17  19
ATOM     19  C   UNL     1       6.670  -1.737  -3.243  0.00  0.00    +0.141 C 
BRANCH  19  20
ATOM     20  C   UNL     1       7.830  -1.863  -4.197  0.00  0.00    -0.009 A 
ATOM     21  C   UNL     1       8.694  -2.936  -4.098  0.00  0.00    +0.007 A 
ATOM     22  C   UNL     1       9.759  -3.051  -4.972  0.00  0.00    +0.000 A 
ATOM     23  C   UNL     1       9.962  -2.093  -5.949  0.00  0.00    +0.002 A 
ATOM     24  C   UNL     1       9.102  -1.018  -6.054  0.00  0.00    +0.023 A 
ATOM     25  C   UNL     1       8.028  -0.902  -5.180  0.00  0.00    +0.035 A 
BRANCH  25  26
ATOM     26  N   UNL     1       7.153   0.181  -5.287  0.00  0.00    -0.325 N 
ATOM     27  C   UNL     1       7.455   1.466  -4.637  0.00  0.00    +0.133 C 
ATOM     28  C   UNL     1       7.302   2.582  -5.677  0.00  0.00    +0.178 C 
ATOM     29  O   UNL     1       6.019   2.472  -6.300  0.00  0.00    -0.377 OA
ATOM     30  C   UNL     1       5.823   1.255  -7.024  0.00  0.00    +0.178 C 
ATOM     31  C   UNL     1       5.904   0.073  -6.058  0.00  0.00    +0.133 C 
ENDBRANCH  25  26
ENDBRANCH  19  20
ENDBRANCH  17  19
ENDBRANCH   5  15
BRANCH   1  32
ATOM     32  C   UNL     1       0.710  -0.296  -1.161  0.00  0.00    +0.072 C 
ATOM     33  C   UNL     1      -0.165   0.366  -2.228  0.00  0.00    +0.017 C 
BRANCH  32  35
ATOM     34  C   UNL     1       0.433   1.607   0.434  0.00  0.00    +0.004 C 
ATOM     35  C   UNL     1       0.212   0.107   0.228  0.00  0.00    +0.009 C 
ENDBRANCH  32  35
ENDBRANCH   1  32
TORSDOF 6
