REMARK  Name = ZINC16789115
REMARK  10 active torsions:
REMARK  status: ('A' for Active; 'I' for Inactive)
REMARK    1  A    between atoms: C_1  and  C_2
REMARK    2  A    between atoms: C_3  and  C_7
REMARK    3  A    between atoms: C_10  and  S_13
REMARK    4  A    between atoms: N_11  and  N_12
REMARK    5  A    between atoms: S_13  and  C_14
REMARK    6  A    between atoms: C_14  and  C_16
REMARK    7  A    between atoms: C_14  and  C_17
REMARK    8  A    between atoms: N_19  and  C_20
REMARK    9  A    between atoms: C_25  and  S_26
REMARK   10  A    between atoms: S_26  and  C_27
REMARK                            x       y       z     vdW  Elec       q    Type
REMARK                         _______ _______ _______ _____ _____    ______ ____
ROOT
ATOM      1  C   UNL     1      -5.225   4.987   0.044  0.00  0.00    +0.137 C 
ATOM      2  C   UNL     1      -4.659   5.553   1.348  0.00  0.00    +0.029 C 
ENDROOT
BRANCH   1   3
ATOM      3  C   UNL     1      -6.688   5.334  -0.060  0.00  0.00    +0.230 C 
ATOM      4  O   UNL     1      -7.527   4.540   0.310  0.00  0.00    -0.274 OA
ATOM      5  N   UNL     1      -7.064   6.526  -0.565  0.00  0.00    -0.284 N 
ATOM      6  H   UNL     1      -6.394   7.192  -0.786  0.00  0.00    +0.155 HD
BRANCH   5   7
ATOM      7  C   UNL     1      -8.422   6.803  -0.770  0.00  0.00    +0.047 A 
ATOM      8  C   UNL     1      -9.322   5.766  -0.959  0.00  0.00    +0.024 A 
ATOM      9  C   UNL     1     -10.662   6.041  -1.156  0.00  0.00    +0.002 A 
ATOM     10  C   UNL     1     -11.108   7.350  -1.175  0.00  0.00    +0.001 A 
ATOM     11  C   UNL     1     -10.218   8.390  -0.993  0.00  0.00    +0.017 A 
ATOM     12  C   UNL     1      -8.871   8.123  -0.789  0.00  0.00    +0.034 A 
BRANCH  12  13
ATOM     13  S   UNL     1      -7.733   9.448  -0.557  0.00  0.00    -0.088 S 
BRANCH  13  14
ATOM     14  C   UNL     1      -8.753  10.884  -0.511  0.00  0.00    +0.013 A 
ATOM     15  C   UNL     1      -8.959  11.630  -1.666  0.00  0.00    +0.015 A 
ATOM     16  C   UNL     1      -9.763  12.752  -1.627  0.00  0.00    +0.001 A 
ATOM     17  C   UNL     1     -10.354  13.139  -0.439  0.00  0.00    +0.000 A 
ATOM     18  C   UNL     1     -10.148  12.402   0.714  0.00  0.00    +0.001 A 
ATOM     19  C   UNL     1      -9.349  11.277   0.681  0.00  0.00    +0.015 A 
ENDBRANCH  13  14
ENDBRANCH  12  13
ENDBRANCH   5   7
ENDBRANCH   1   3
BRANCH   1  20
ATOM     20  S   UNL     1      -5.028   3.188   0.031  0.00  0.00    -0.072 S 
BRANCH  20  24
ATOM     21  C   UNL     1      -1.218   2.323  -0.020  0.00  0.00    +0.185 A 
ATOM     22  N   UNL     1      -1.216   3.635  -0.007  0.00  0.00    -0.127 NA
ATOM     23  N   UNL     1      -2.424   4.076   0.005  0.00  0.00    -0.121 NA
ATOM     24  C   UNL     1      -3.270   3.072   0.009  0.00  0.00    +0.209 A 
ATOM     25  N   UNL     1      -2.533   1.921  -0.006  0.00  0.00    -0.224 N 
BRANCH  21  28
ATOM     26  C   UNL     1       1.778   3.246  -0.059  0.00  0.00    +0.087 C 
ATOM     27  C   UNL     1       1.276   1.825  -0.059  0.00  0.00    +0.112 A 
ATOM     28  C   UNL     1      -0.030   1.442  -0.039  0.00  0.00    +0.061 A 
ATOM     29  C   UNL     1      -0.014  -0.026  -0.048  0.00  0.00    +0.053 A 
ATOM     30  C   UNL     1       1.280  -0.383  -0.071  0.00  0.00    +0.196 A 
ATOM     31  O   UNL     1       2.040   0.723  -0.078  0.00  0.00    -0.467 OA
ENDBRANCH  21  28
BRANCH  25  32
ATOM     32  N   UNL     1      -3.005   0.639  -0.008  0.00  0.00    -0.295 N 
ATOM     33  H   UNL     1      -3.118   0.294   0.933  0.00  0.00    +0.163 HD
ATOM     34  H   UNL     1      -3.869   0.572  -0.524  0.00  0.00    +0.163 HD
ENDBRANCH  25  32
ENDBRANCH  20  24
ENDBRANCH   1  20
TORSDOF 8
