REMARK  Name = ZINC45962126
REMARK  6 active torsions:
REMARK  status: ('A' for Active; 'I' for Inactive)
REMARK    1  A    between atoms: C_1  and  C_2
REMARK    2  A    between atoms: C_2  and  N_3
REMARK    3  A    between atoms: N_3  and  C_4
REMARK    4  A    between atoms: C_14  and  N_15
REMARK    5  A    between atoms: N_15  and  S_16
REMARK    6  A    between atoms: S_16  and  C_19
REMARK                            x       y       z     vdW  Elec       q    Type
REMARK                         _______ _______ _______ _____ _____    ______ ____
ROOT
ATOM      1  C   UNL     1      -0.750  -1.184  -1.514  0.00  0.00    +0.068 A 
ATOM      2  C   UNL     1      -2.154  -1.309  -1.936  0.00  0.00    +0.040 A 
ATOM      3  C   UNL     1      -2.713  -0.411  -2.848  0.00  0.00    +0.013 A 
ATOM      4  C   UNL     1      -4.031  -0.555  -3.223  0.00  0.00    +0.001 A 
ATOM      5  C   UNL     1      -4.799  -1.584  -2.700  0.00  0.00    +0.004 A 
ATOM      6  C   UNL     1      -4.259  -2.477  -1.799  0.00  0.00    +0.047 A 
ATOM      7  C   UNL     1      -2.932  -2.351  -1.407  0.00  0.00    +0.141 A 
ATOM      8  O   UNL     1      -2.391  -3.219  -0.525  0.00  0.00    -0.421 OA
ATOM      9  C   UNL     1      -1.112  -3.121  -0.128  0.00  0.00    +0.362 A 
ATOM     10  O   UNL     1      -0.676  -3.933   0.670  0.00  0.00    -0.243 OA
ATOM     11  C   UNL     1      -0.261  -2.112  -0.612  0.00  0.00    +0.154 A 
ENDROOT
BRANCH   1  12
ATOM     12  N   UNL     1       0.057  -0.174  -2.008  0.00  0.00    -0.342 N 
ATOM     13  H   UNL     1      -0.269   0.406  -2.714  0.00  0.00    +0.146 HD
BRANCH  12  15
ATOM     14  C   UNL     1       2.236   0.846  -2.447  0.00  0.00    +0.024 C 
ATOM     15  C   UNL     1       1.404   0.019  -1.464  0.00  0.00    +0.098 C 
ENDBRANCH  12  15
ENDBRANCH   1  12
BRANCH  11  16
ATOM     16  N   UNL     1       1.076  -2.043  -0.179  0.00  0.00    -0.208 N 
ATOM     17  H   UNL     1       1.448  -1.196   0.112  0.00  0.00    +0.174 HD
BRANCH  16  18
ATOM     18  S   UNL     1       2.013  -3.408  -0.165  0.00  0.00    +0.075 S 
ATOM     19  O   UNL     1       3.360  -2.974  -0.030  0.00  0.00    -0.150 OA
ATOM     20  O   UNL     1       1.407  -4.308   0.752  0.00  0.00    -0.150 OA
BRANCH  18  21
ATOM     21  C   UNL     1       1.880  -4.147  -1.759  0.00  0.00    +0.144 A 
ATOM     22  C   UNL     1       2.916  -4.024  -2.666  0.00  0.00    +0.034 A 
ATOM     23  C   UNL     1       2.813  -4.604  -3.916  0.00  0.00    +0.040 A 
ATOM     24  C   UNL     1       1.672  -5.308  -4.262  0.00  0.00    +0.126 A 
ATOM     25  C   UNL     1       0.634  -5.431  -3.355  0.00  0.00    +0.078 A 
ATOM     26  C   UNL     1       0.741  -4.855  -2.100  0.00  0.00    +0.153 A 
ATOM     27  F   UNL     1      -0.269  -4.980  -1.212  0.00  0.00    -0.203 F 
ATOM     28  F   UNL     1       1.571  -5.874  -5.485  0.00  0.00    -0.205 F 
ENDBRANCH  18  21
ENDBRANCH  16  18
ENDBRANCH  11  16
TORSDOF 5
