REMARK  Name = ZINC35745568
REMARK  12 active torsions:
REMARK  status: ('A' for Active; 'I' for Inactive)
REMARK    1  A    between atoms: C_1  and  C_2
REMARK    2  A    between atoms: C_5  and  C_9
REMARK    3  A    between atoms: C_7  and  C_8
REMARK    4  A    between atoms: C_18  and  C_20
REMARK    5  A    between atoms: C_20  and  N_21
REMARK    6  A    between atoms: N_21  and  C_22
REMARK    7  A    between atoms: N_21  and  C_29
REMARK    8  A    between atoms: C_22  and  C_23
REMARK    9  A    between atoms: C_29  and  C_30
REMARK   10  A    between atoms: C_30  and  C_32
REMARK   11  A    between atoms: C_30  and  O_39
REMARK   12  A    between atoms: C_32  and  C_33
REMARK                            x       y       z     vdW  Elec       q    Type
REMARK                         _______ _______ _______ _____ _____    ______ ____
ROOT
ATOM      1  C   UNL     1      -2.798  -7.941  -3.518  0.00  0.00    -0.003 C 
ENDROOT
BRANCH   1  11
ATOM      2  C   UNL     1       1.465  -4.796  -1.414  0.00  0.00    +0.004 A 
ATOM      3  C   UNL     1       2.188  -5.460  -0.480  0.00  0.00    +0.056 A 
ATOM      4  S   UNL     1       1.391  -7.053  -0.397  0.00  0.00    -0.076 S 
ATOM      5  C   UNL     1       0.119  -6.792  -1.607  0.00  0.00    +0.116 A 
ATOM      6  C   UNL     1       0.338  -5.475  -2.042  0.00  0.00    +0.080 A 
ATOM      7  C   UNL     1      -0.569  -4.993  -3.038  0.00  0.00    +0.260 A 
ATOM      8  O   UNL     1      -0.457  -3.863  -3.482  0.00  0.00    -0.267 OA
ATOM      9  N   UNL     1      -1.548  -5.805  -3.478  0.00  0.00    -0.312 N 
ATOM     10  H   UNL     1      -2.166  -5.484  -4.153  0.00  0.00    +0.170 HD
ATOM     11  C   UNL     1      -1.687  -7.067  -2.995  0.00  0.00    +0.094 A 
ATOM     12  N   UNL     1      -0.869  -7.539  -2.093  0.00  0.00    -0.229 NA
BRANCH   2  17
ATOM     13  C   UNL     1       2.804   0.614  -2.860  0.00  0.00    +0.044 C 
ATOM     14  C   UNL     1       2.454  -0.802  -2.481  0.00  0.00    -0.048 A 
ATOM     15  C   UNL     1       2.265  -1.752  -3.469  0.00  0.00    +0.004 A 
ATOM     16  C   UNL     1       1.944  -3.050  -3.128  0.00  0.00    +0.009 A 
ATOM     17  C   UNL     1       1.810  -3.403  -1.786  0.00  0.00    -0.016 A 
ATOM     18  C   UNL     1       2.002  -2.442  -0.795  0.00  0.00    +0.012 A 
ATOM     19  C   UNL     1       2.329  -1.148  -1.148  0.00  0.00    -0.047 A 
ATOM     20  C   UNL     1       2.543  -0.108  -0.078  0.00  0.00    +0.044 C 
ENDBRANCH   2  17
ENDBRANCH   1  11
BRANCH   1  21
ATOM     21  N   UNL     1      -2.746  -9.249  -2.851  0.00  0.00    +0.389 N 
ATOM     22  H   UNL     1      -1.828  -9.651  -2.970  0.00  0.00    -0.081 HD
BRANCH  21  23
ATOM     23  C   UNL     1      -3.025  -9.080  -1.419  0.00  0.00    -0.042 C 
BRANCH  23  24
ATOM     24  C   UNL     1      -4.337  -8.360  -1.245  0.00  0.00    -0.064 A 
ATOM     25  C   UNL     1      -4.362  -6.980  -1.159  0.00  0.00    +0.002 A 
ATOM     26  C   UNL     1      -5.565  -6.319  -0.999  0.00  0.00    +0.000 A 
ATOM     27  C   UNL     1      -6.744  -7.037  -0.925  0.00  0.00    +0.000 A 
ATOM     28  C   UNL     1      -6.720  -8.417  -1.012  0.00  0.00    +0.000 A 
ATOM     29  C   UNL     1      -5.516  -9.078  -1.176  0.00  0.00    +0.002 A 
ENDBRANCH  23  24
ENDBRANCH  21  23
BRANCH  21  30
ATOM     30  C   UNL     1      -3.751 -10.141  -3.444  0.00  0.00    -0.046 C 
BRANCH  30  31
ATOM     31  C   UNL     1      -3.462 -11.585  -3.027  0.00  0.00    +0.102 C 
BRANCH  31  32
ATOM     32  O   UNL     1      -3.682 -11.727  -1.622  0.00  0.00    -0.393 OA
ATOM     33  H   UNL     1      -4.608 -11.645  -1.359  0.00  0.00    +0.210 HD
ENDBRANCH  31  32
BRANCH  31  34
ATOM     34  C   UNL     1      -4.392 -12.532  -3.788  0.00  0.00    +0.064 C 
BRANCH  34  35
ATOM     35  C   UNL     1      -4.026 -13.958  -3.470  0.00  0.00    -0.045 A 
ATOM     36  C   UNL     1      -3.090 -14.620  -4.243  0.00  0.00    +0.004 A 
ATOM     37  C   UNL     1      -2.754 -15.929  -3.952  0.00  0.00    +0.000 A 
ATOM     38  C   UNL     1      -3.353 -16.576  -2.887  0.00  0.00    +0.000 A 
ATOM     39  C   UNL     1      -4.288 -15.914  -2.113  0.00  0.00    +0.000 A 
ATOM     40  C   UNL     1      -4.621 -14.604  -2.402  0.00  0.00    +0.004 A 
ENDBRANCH  34  35
ENDBRANCH  31  34
ENDBRANCH  30  31
ENDBRANCH  21  30
ENDBRANCH   1  21
TORSDOF 10
