REMARK  Name = ZINC35888236
REMARK  10 active torsions:
REMARK  status: ('A' for Active; 'I' for Inactive)
REMARK    1  A    between atoms: C_1  and  C_2
REMARK    2  A    between atoms: C_2  and  C_3
REMARK    3  A    between atoms: C_2  and  C_4
REMARK    4  A    between atoms: C_4  and  N_5
REMARK    5  A    between atoms: N_5  and  C_6
REMARK    6  A    between atoms: C_6  and  C_7
REMARK    7  A    between atoms: N_10  and  C_21
REMARK    8  A    between atoms: C_12  and  C_14
REMARK    9  A    between atoms: C_21  and  C_22
REMARK   10  A    between atoms: C_31  and  C_33
REMARK                            x       y       z     vdW  Elec       q    Type
REMARK                         _______ _______ _______ _____ _____    ______ ____
ROOT
ATOM      1  C   UNL     1      -0.514  -2.018   3.470  0.00  0.00    -0.005 C 
ATOM      2  C   UNL     1       0.219  -2.764   2.334  0.00  0.00    -0.073 C 
ATOM      3  N   UNL     1      -0.073  -4.200   2.579  0.00  0.00    +0.383 N 
ATOM      4  C   UNL     1      -1.495  -4.215   3.008  0.00  0.00    -0.070 C 
ATOM      5  C   UNL     1      -1.642  -2.972   3.916  0.00  0.00    +0.005 C 
ATOM      6  H   UNL     1       0.520  -4.561   3.311  0.00  0.00    -0.081 HD
ENDROOT
BRANCH   5   7
ATOM      7  C   UNL     1      -2.987  -2.326   3.707  0.00  0.00    -0.043 A 
ATOM      8  C   UNL     1      -3.468  -2.130   2.425  0.00  0.00    +0.004 A 
ATOM      9  C   UNL     1      -4.702  -1.538   2.232  0.00  0.00    +0.003 A 
ATOM     10  C   UNL     1      -5.456  -1.140   3.320  0.00  0.00    +0.038 A 
ATOM     11  C   UNL     1      -4.975  -1.335   4.603  0.00  0.00    +0.124 A 
ATOM     12  C   UNL     1      -3.742  -1.934   4.796  0.00  0.00    +0.042 A 
ATOM     13  F   UNL     1      -5.711  -0.946   5.667  0.00  0.00    -0.205 F 
ENDBRANCH   5   7
BRANCH   1  14
ATOM     14  C   UNL     1      -1.103  -0.705   2.950  0.00  0.00    +0.110 C 
BRANCH  14  15
ATOM     15  N   UNL     1      -0.018   0.236   2.663  0.00  0.00    -0.297 N 
ATOM     16  C   UNL     1       0.293   1.198   3.554  0.00  0.00    +0.247 C 
ATOM     17  O   UNL     1       1.188   1.984   3.313  0.00  0.00    -0.270 OA
BRANCH  16  18
ATOM     18  C   UNL     1      -0.454   1.297   4.826  0.00  0.00    +0.037 A 
ATOM     19  C   UNL     1      -1.116   0.180   5.339  0.00  0.00    +0.013 A 
ATOM     20  C   UNL     1      -1.811   0.279   6.527  0.00  0.00    +0.001 A 
ATOM     21  C   UNL     1      -1.853   1.482   7.209  0.00  0.00    +0.000 A 
ATOM     22  C   UNL     1      -1.200   2.593   6.706  0.00  0.00    +0.001 A 
ATOM     23  C   UNL     1      -0.496   2.506   5.522  0.00  0.00    +0.013 A 
ENDBRANCH  16  18
BRANCH  15  24
ATOM     24  C   UNL     1       0.728   0.133   1.406  0.00  0.00    +0.111 C 
BRANCH  24  26
ATOM     25  C   UNL     1       0.051   2.427   0.683  0.00  0.00    +0.009 C 
ATOM     26  C   UNL     1       0.013   0.941   0.321  0.00  0.00    +0.000 C 
ATOM     27  C   UNL     1       0.715   0.725  -1.021  0.00  0.00    +0.009 C 
ENDBRANCH  24  26
ENDBRANCH  15  24
ENDBRANCH  14  15
ENDBRANCH   1  14
BRANCH   3  28
ATOM     28  C   UNL     1       0.100  -4.977   1.344  0.00  0.00    -0.043 C 
BRANCH  28  29
ATOM     29  C   UNL     1      -0.081  -6.443   1.644  0.00  0.00    -0.060 A 
ATOM     30  C   UNL     1       1.007  -7.211   2.013  0.00  0.00    +0.005 A 
ATOM     31  C   UNL     1       0.846  -8.556   2.289  0.00  0.00    +0.050 A 
ATOM     32  C   UNL     1      -0.408  -9.137   2.197  0.00  0.00    +0.166 A 
ATOM     33  C   UNL     1      -1.505  -8.363   1.825  0.00  0.00    +0.166 A 
ATOM     34  C   UNL     1      -1.337  -7.015   1.555  0.00  0.00    +0.051 A 
ATOM     35  O   UNL     1      -2.614  -9.159   1.807  0.00  0.00    -0.453 OA
ATOM     36  C   UNL     1      -2.117 -10.510   1.773  0.00  0.00    +0.466 C 
ATOM     37  O   UNL     1      -0.830 -10.417   2.411  0.00  0.00    -0.453 OA
ENDBRANCH  28  29
ENDBRANCH   3  28
TORSDOF 8
