REMARK  Name = ZINC64985879
REMARK  8 active torsions:
REMARK  status: ('A' for Active; 'I' for Inactive)
REMARK    1  A    between atoms: C_1  and  C_2
REMARK    2  A    between atoms: C_5  and  S_8
REMARK    3  A    between atoms: S_8  and  N_11
REMARK    4  A    between atoms: C_13  and  C_23
REMARK    5  A    between atoms: C_19  and  C_22
REMARK    6  A    between atoms: N_25  and  C_26
REMARK    7  A    between atoms: C_31  and  O_32
REMARK    8  A    between atoms: O_32  and  C_33
REMARK                            x       y       z     vdW  Elec       q    Type
REMARK                         _______ _______ _______ _____ _____    ______ ____
ROOT
ATOM      1  N   UNL     1       1.280  -4.863  -0.299  0.00  0.00    -0.195 N 
ATOM      2  C   UNL     1       2.007  -5.167  -1.544  0.00  0.00    +0.186 C 
ATOM      3  C   UNL     1       3.496  -4.894  -1.289  0.00  0.00    +0.278 C 
ATOM      4  O   UNL     1       3.933  -5.706  -0.196  0.00  0.00    -0.476 OA
ATOM      5  C   UNL     1       3.183  -5.697   0.938  0.00  0.00    +0.144 A 
ATOM      6  C   UNL     1       1.857  -5.277   0.911  0.00  0.00    +0.093 A 
ATOM      7  C   UNL     1       1.107  -5.273   2.076  0.00  0.00    +0.031 A 
ATOM      8  C   UNL     1       1.680  -5.679   3.267  0.00  0.00    -0.048 A 
ATOM      9  C   UNL     1       3.000  -6.089   3.295  0.00  0.00    +0.007 A 
ATOM     10  C   UNL     1       3.748  -6.107   2.136  0.00  0.00    +0.048 A 
ATOM     11  C   UNL     1       0.866  -5.675   4.535  0.00  0.00    +0.044 C 
ENDROOT
BRANCH   3  12
ATOM     12  C   UNL     1       4.290  -5.235  -2.524  0.00  0.00    +0.260 C 
ATOM     13  O   UNL     1       5.093  -6.144  -2.497  0.00  0.00    -0.271 OA
ATOM     14  N   UNL     1       4.109  -4.530  -3.658  0.00  0.00    -0.279 N 
ATOM     15  H   UNL     1       3.528  -3.753  -3.658  0.00  0.00    +0.155 HD
BRANCH  14  16
ATOM     16  C   UNL     1       4.760  -4.918  -4.836  0.00  0.00    +0.077 A 
ATOM     17  C   UNL     1       5.254  -6.208  -4.965  0.00  0.00    +0.047 A 
ATOM     18  C   UNL     1       5.895  -6.590  -6.129  0.00  0.00    +0.043 A 
ATOM     19  C   UNL     1       6.046  -5.687  -7.167  0.00  0.00    +0.024 A 
ATOM     20  C   UNL     1       5.556  -4.400  -7.045  0.00  0.00    +0.049 A 
ATOM     21  C   UNL     1       4.907  -4.012  -5.884  0.00  0.00    +0.141 A 
ATOM     22 CL   UNL     1       6.513  -8.204  -6.289  0.00  0.00    -0.083 Cl
BRANCH  21  23
ATOM     23  O   UNL     1       4.420  -2.748  -5.765  0.00  0.00    -0.493 OA
ATOM     24  C   UNL     1       4.607  -1.873  -6.879  0.00  0.00    +0.277 C 
ENDBRANCH  21  23
ENDBRANCH  14  16
ENDBRANCH   3  12
BRANCH   1  25
ATOM     25  S   UNL     1      -0.165  -4.054  -0.327  0.00  0.00    +0.075 S 
ATOM     26  O   UNL     1      -0.241  -3.402  -1.588  0.00  0.00    -0.150 OA
ATOM     27  O   UNL     1      -0.259  -3.348   0.902  0.00  0.00    -0.150 OA
BRANCH  25  32
ATOM     28  C   UNL     1      -4.540  -8.208  -0.268  0.00  0.00    +0.044 C 
ATOM     29  C   UNL     1      -3.447  -7.171  -0.283  0.00  0.00    -0.050 A 
ATOM     30  C   UNL     1      -2.954  -6.670   0.907  0.00  0.00    +0.005 A 
ATOM     31  C   UNL     1      -1.951  -5.718   0.893  0.00  0.00    +0.029 A 
ATOM     32  C   UNL     1      -1.442  -5.268  -0.310  0.00  0.00    +0.109 A 
ATOM     33  C   UNL     1      -1.935  -5.770  -1.500  0.00  0.00    +0.029 A 
ATOM     34  C   UNL     1      -2.934  -6.724  -1.487  0.00  0.00    +0.005 A 
ENDBRANCH  25  32
ENDBRANCH   1  25
TORSDOF 5
