REMARK  Name = ZINC12498504
REMARK  10 active torsions:
REMARK  status: ('A' for Active; 'I' for Inactive)
REMARK    1  A    between atoms: C_1  and  C_2
REMARK    2  A    between atoms: C_8  and  N_10
REMARK    3  A    between atoms: C_11  and  C_13
REMARK    4  A    between atoms: C_13  and  S_14
REMARK    5  A    between atoms: S_14  and  C_15
REMARK    6  A    between atoms: N_27  and  C_28
REMARK    7  A    between atoms: C_28  and  C_29
REMARK    8  A    between atoms: C_29  and  C_30
REMARK    9  A    between atoms: C_30  and  O_31
REMARK   10  A    between atoms: O_31  and  C_32
REMARK                            x       y       z     vdW  Elec       q    Type
REMARK                         _______ _______ _______ _____ _____    ______ ____
ROOT
ATOM      1  C   UNL     1      -4.516   1.051  -4.708  0.00  0.00    +0.173 A 
ATOM      2  N   UNL     1      -3.964   2.168  -5.138  0.00  0.00    -0.216 NA
ATOM      3  C   UNL     1      -4.443   2.792  -6.209  0.00  0.00    +0.117 A 
ATOM      4  C   UNL     1      -5.544   2.304  -6.926  0.00  0.00    +0.076 A 
ATOM      5  C   UNL     1      -5.963   3.103  -8.090  0.00  0.00    -0.023 A 
ATOM      6  C   UNL     1      -5.253   4.213  -8.351  0.00  0.00    -0.004 A 
ATOM      7  S   UNL     1      -4.004   4.269  -7.087  0.00  0.00    -0.073 S 
ATOM      8  C   UNL     1      -5.767   4.944  -9.562  0.00  0.00    +0.043 C 
ATOM      9  C   UNL     1      -6.646   3.908 -10.297  0.00  0.00    +0.010 C 
ATOM     10  C   UNL     1      -7.070   2.982  -9.140  0.00  0.00    +0.037 C 
ATOM     11  C   UNL     1      -6.124   1.091  -6.438  0.00  0.00    +0.263 A 
ATOM     12  O   UNL     1      -7.085   0.594  -7.000  0.00  0.00    -0.267 OA
ATOM     13  N   UNL     1      -5.588   0.504  -5.352  0.00  0.00    -0.287 N 
ENDROOT
BRANCH   1  14
ATOM     14  S   UNL     1      -3.856   0.249  -3.285  0.00  0.00    -0.078 S 
BRANCH  14  15
ATOM     15  C   UNL     1      -2.502   1.382  -2.885  0.00  0.00    +0.173 C 
BRANCH  15  17
ATOM     16  N   UNL     1      -0.721   1.571  -1.179  0.00  0.00    -0.312 N 
ATOM     17  C   UNL     1      -1.773   0.883  -1.664  0.00  0.00    +0.224 C 
ATOM     18  O   UNL     1      -2.134  -0.139  -1.118  0.00  0.00    -0.275 OA
ATOM     19  H   UNL     1      -0.433   2.388  -1.615  0.00  0.00    +0.149 HD
BRANCH  16  26
ATOM     20  C   UNL     1       2.139   1.122  -1.262  0.00  0.00    +0.009 C 
ATOM     21  C   UNL     1       1.423   1.615  -0.003  0.00  0.00    +0.006 C 
ATOM     22  C   UNL     1       2.163   1.109   1.237  0.00  0.00    +0.005 C 
ATOM     23  C   UNL     1       1.446   1.602   2.495  0.00  0.00    +0.000 C 
ATOM     24  C   UNL     1       0.011   1.072   2.506  0.00  0.00    +0.002 C 
ATOM     25  C   UNL     1      -0.729   1.579   1.267  0.00  0.00    +0.022 C 
ATOM     26  C   UNL     1      -0.013   1.086   0.008  0.00  0.00    +0.076 C 
ENDBRANCH  16  26
ENDBRANCH  15  17
ENDBRANCH  14  15
ENDBRANCH   1  14
BRANCH  13  27
ATOM     27  C   UNL     1      -6.170  -0.742  -4.847  0.00  0.00    +0.129 C 
BRANCH  27  28
ATOM     28  C   UNL     1      -7.265  -0.419  -3.829  0.00  0.00    +0.050 C 
BRANCH  28  29
ATOM     29  C   UNL     1      -7.873  -1.720  -3.303  0.00  0.00    +0.161 C 
BRANCH  29  30
ATOM     30  O   UNL     1      -8.896  -1.418  -2.352  0.00  0.00    -0.383 OA
ATOM     31  C   UNL     1      -9.532  -2.570  -1.796  0.00  0.00    +0.193 C 
ENDBRANCH  29  30
ENDBRANCH  28  29
ENDBRANCH  27  28
ENDBRANCH  13  27
TORSDOF 8
