REMARK  Name = ZINC12207910
REMARK  9 active torsions:
REMARK  status: ('A' for Active; 'I' for Inactive)
REMARK    1  A    between atoms: C_1  and  C_2
REMARK    2  A    between atoms: C_2  and  C_3
REMARK    3  A    between atoms: C_2  and  C_4
REMARK    4  A    between atoms: C_2  and  N_6
REMARK    5  A    between atoms: C_4  and  O_5
REMARK    6  A    between atoms: C_7  and  C_9
REMARK    7  A    between atoms: C_9  and  C_10
REMARK    8  A    between atoms: C_17  and  C_18
REMARK    9  A    between atoms: C_17  and  N_54
REMARK                            x       y       z     vdW  Elec       q    Type
REMARK                         _______ _______ _______ _____ _____    ______ ____
ROOT
ATOM      1  C   UNL     1       5.219   1.967  -1.474  0.00  0.00    +0.028 C 
ATOM      2  C   UNL     1       5.617   1.615  -2.879  0.00  0.00    +0.200 C 
ATOM      3  O   UNL     1       6.439   0.740  -3.048  0.00  0.00    -0.278 OA
ATOM      4  N   UNL     1       5.103   2.227  -3.951  0.00  0.00    -0.318 N 
ATOM      5  C   UNL     1       4.082   3.267  -3.859  0.00  0.00    +0.085 C 
ATOM      6  C   UNL     1       4.044   3.839  -2.440  0.00  0.00    -0.058 C 
ATOM      7  H   UNL     1       5.422   1.968  -4.830  0.00  0.00    +0.149 HD
ATOM      8  N   UNL     1       3.944   2.709  -1.494  0.00  0.00    +0.391 N 
ATOM      9  H   UNL     1       3.194   2.079  -1.802  0.00  0.00    -0.080 HD
ENDROOT
BRANCH   1  10
ATOM     10  C   UNL     1       5.035   0.684  -0.662  0.00  0.00    +0.089 C 
BRANCH  10  12
ATOM     11  N   UNL     1       6.432  -1.222   0.068  0.00  0.00    -0.308 N 
ATOM     12  C   UNL     1       6.368   0.004  -0.488  0.00  0.00    +0.212 C 
ATOM     13  O   UNL     1       7.384   0.560  -0.849  0.00  0.00    -0.276 OA
ATOM     14  H   UNL     1       5.620  -1.667   0.357  0.00  0.00    +0.149 HD
BRANCH  11  16
ATOM     15  C   UNL     1       8.391  -2.063  -1.130  0.00  0.00    +0.033 C 
ATOM     16  C   UNL     1       7.728  -1.883   0.237  0.00  0.00    +0.052 C 
ATOM     17  C   UNL     1       8.626  -1.025   1.131  0.00  0.00    +0.033 C 
BRANCH  16  18
ATOM     18  C   UNL     1       7.521  -3.253   0.887  0.00  0.00    +0.181 C 
BRANCH  18  19
ATOM     19  O   UNL     1       8.786  -3.898   1.052  0.00  0.00    -0.393 OA
ATOM     20  H   UNL     1       8.731  -4.773   1.460  0.00  0.00    +0.209 HD
ENDBRANCH  18  19
ENDBRANCH  16  18
ENDBRANCH  11  16
ENDBRANCH  10  12
ENDBRANCH   1  10
BRANCH   8  21
ATOM     21  C   UNL     1       3.626   3.208  -0.137  0.00  0.00    -0.041 C 
BRANCH  21  22
ATOM     22  C   UNL     1       2.241   3.802  -0.145  0.00  0.00    -0.056 A 
ATOM     23  C   UNL     1       2.075   5.151  -0.213  0.00  0.00    +0.002 A 
ATOM     24  C   UNL     1       0.802   5.718  -0.222  0.00  0.00    +0.001 A 
ATOM     25  C   UNL     1      -0.312   4.939  -0.163  0.00  0.00    +0.008 A 
ATOM     26  C   UNL     1      -0.181   3.542  -0.092  0.00  0.00    -0.018 A 
ATOM     27  C   UNL     1       1.114   2.965  -0.083  0.00  0.00    -0.017 A 
ATOM     28  C   UNL     1       1.245   1.568  -0.011  0.00  0.00    +0.009 A 
ATOM     29  C   UNL     1       0.131   0.789   0.049  0.00  0.00    +0.001 A 
ATOM     30  C   UNL     1      -1.142   1.355   0.035  0.00  0.00    +0.001 A 
ATOM     31  C   UNL     1      -1.308   2.705  -0.029  0.00  0.00    +0.008 A 
ENDBRANCH  21  22
ENDBRANCH   8  21
TORSDOF 7
