REMARK  Name = ZINC16593540
REMARK  7 active torsions:
REMARK  status: ('A' for Active; 'I' for Inactive)
REMARK    1  A    between atoms: C_3  and  C_9
REMARK    2  A    between atoms: C_6  and  C_7
REMARK    3  A    between atoms: C_12  and  O_15
REMARK    4  A    between atoms: O_15  and  C_16
REMARK    5  A    between atoms: C_16  and  C_17
REMARK    6  A    between atoms: N_19  and  N_20
REMARK    7  A    between atoms: C_21  and  C_23
REMARK                            x       y       z     vdW  Elec       q    Type
REMARK                         _______ _______ _______ _____ _____    ______ ____
ROOT
ATOM      1  C   UNL     1       0.002  -0.004   0.002  0.00  0.00    +0.267 C 
ATOM      2  O   UNL     1      -1.040  -0.625   0.009  0.00  0.00    -0.271 OA
ATOM      3  N   UNL     1      -0.016   1.344   0.009  0.00  0.00    -0.231 N 
ATOM      4  H   UNL     1       0.817   1.840   0.004  0.00  0.00    +0.173 HD
ENDROOT
BRANCH   3   5
ATOM      5  N   UNL     1      -1.239   2.027   0.019  0.00  0.00    -0.231 N 
ATOM      6  C   UNL     1      -1.257   3.375   0.026  0.00  0.00    +0.270 C 
ATOM      7  O   UNL     1      -0.215   3.996   0.025  0.00  0.00    -0.270 OA
ATOM      8  H   UNL     1      -2.072   1.531   0.020  0.00  0.00    +0.173 HD
BRANCH   6   9
ATOM      9  C   UNL     1      -2.572   4.111   0.037  0.00  0.00    +0.264 C 
ATOM     10  C   UNL     1      -3.284   3.943   1.400  0.00  0.00    +0.093 C 
ATOM     11  C   UNL     1      -2.805   5.167   2.156  0.00  0.00    -0.000 A 
ATOM     12  C   UNL     1      -2.821   5.492   3.495  0.00  0.00    +0.027 A 
ATOM     13  C   UNL     1      -2.287   6.696   3.921  0.00  0.00    +0.041 A 
ATOM     14  C   UNL     1      -1.738   7.569   2.998  0.00  0.00    +0.023 A 
ATOM     15  C   UNL     1      -1.725   7.246   1.657  0.00  0.00    +0.047 A 
ATOM     16  C   UNL     1      -2.264   6.038   1.220  0.00  0.00    +0.125 A 
ATOM     17  O   UNL     1      -2.362   5.531  -0.040  0.00  0.00    -0.479 OA
ATOM     18 CL   UNL     1      -2.306   7.110   5.607  0.00  0.00    -0.084 Cl
ENDBRANCH   6   9
ENDBRANCH   3   5
BRANCH   1  19
ATOM     19  C   UNL     1       1.317  -0.740  -0.015  0.00  0.00    +0.326 C 
BRANCH  19  20
ATOM     20  O   UNL     1       1.075  -2.148  -0.020  0.00  0.00    -0.483 OA
BRANCH  20  24
ATOM     21  C   UNL     1       4.383  -4.618  -0.066  0.00  0.00    -0.018 A 
ATOM     22  C   UNL     1       3.101  -5.167  -0.056  0.00  0.00    +0.012 A 
ATOM     23  C   UNL     1       1.999  -4.340  -0.040  0.00  0.00    +0.046 A 
ATOM     24  C   UNL     1       2.164  -2.961  -0.035  0.00  0.00    +0.121 A 
ATOM     25  C   UNL     1       3.439  -2.411  -0.050  0.00  0.00    +0.046 A 
ATOM     26  C   UNL     1       4.545  -3.233  -0.060  0.00  0.00    +0.012 A 
BRANCH  21  29
ATOM     27  C   UNL     1       7.956  -5.776  -0.109  0.00  0.00    +0.019 A 
ATOM     28  C   UNL     1       6.852  -4.954  -0.093  0.00  0.00    +0.010 A 
ATOM     29  C   UNL     1       5.571  -5.505  -0.084  0.00  0.00    -0.018 A 
ATOM     30  C   UNL     1       5.406  -6.891  -0.085  0.00  0.00    +0.010 A 
ATOM     31  C   UNL     1       6.508  -7.715  -0.107  0.00  0.00    +0.019 A 
ATOM     32  C   UNL     1       7.792  -7.164  -0.116  0.00  0.00    +0.052 A 
BRANCH  32  33
ATOM     33  C   UNL     1       8.940  -8.021  -0.132  0.00  0.00    +0.099 C 
ATOM     34  N   UNL     1       9.850  -8.700  -0.145  0.00  0.00    -0.191 NA
ENDBRANCH  32  33
ENDBRANCH  21  29
ENDBRANCH  20  24
ENDBRANCH  19  20
ENDBRANCH   1  19
TORSDOF 7
