REMARK  Name = ZINC34747735
REMARK  5 active torsions:
REMARK  status: ('A' for Active; 'I' for Inactive)
REMARK    1  A    between atoms: C_2  and  C_3
REMARK    2  A    between atoms: C_3  and  N_4
REMARK    3  A    between atoms: N_22  and  C_23
REMARK    4  A    between atoms: C_23  and  C_24
REMARK    5  A    between atoms: N_26  and  C_27
REMARK                            x       y       z     vdW  Elec       q    Type
REMARK                         _______ _______ _______ _____ _____    ______ ____
ROOT
ATOM      1  N   UNL     1      -0.266  -1.695  -2.165  0.00  0.00    +0.384 N 
ATOM      2  C   UNL     1      -0.177  -2.393  -3.454  0.00  0.00    -0.059 C 
ATOM      3  C   UNL     1      -1.419  -3.269  -3.646  0.00  0.00    +0.089 C 
ATOM      4  N   UNL     1      -1.546  -4.160  -2.481  0.00  0.00    -0.304 N 
ATOM      5  C   UNL     1      -1.480  -3.560  -1.140  0.00  0.00    +0.089 C 
ATOM      6  C   UNL     1      -0.236  -2.669  -1.066  0.00  0.00    -0.059 C 
ATOM      7  C   UNL     1      -1.721  -5.511  -2.642  0.00  0.00    +0.202 A 
ATOM      8  N   UNL     1      -0.667  -6.297  -2.719  0.00  0.00    -0.208 NA
ATOM      9  C   UNL     1      -0.809  -7.610  -2.874  0.00  0.00    +0.117 A 
ATOM     10  C   UNL     1      -2.069  -8.217  -2.963  0.00  0.00    +0.076 A 
ATOM     11  C   UNL     1      -2.070  -9.680  -3.135  0.00  0.00    -0.023 A 
ATOM     12  C   UNL     1      -0.874 -10.286  -3.187  0.00  0.00    -0.004 A 
ATOM     13  S   UNL     1       0.315  -8.974  -3.017  0.00  0.00    -0.073 S 
ATOM     14  C   UNL     1      -0.998 -11.776  -3.357  0.00  0.00    +0.043 C 
ATOM     15  C   UNL     1      -2.462 -12.089  -2.976  0.00  0.00    +0.010 C 
ATOM     16  C   UNL     1      -3.158 -10.748  -3.281  0.00  0.00    +0.037 C 
ATOM     17  C   UNL     1      -3.196  -7.341  -2.876  0.00  0.00    +0.264 A 
ATOM     18  O   UNL     1      -4.330  -7.782  -2.943  0.00  0.00    -0.267 OA
ATOM     19  N   UNL     1      -2.984  -6.021  -2.714  0.00  0.00    -0.271 N 
ATOM     20  H   UNL     1      -1.129  -1.173  -2.126  0.00  0.00    -0.081 HD
ENDROOT
BRANCH   1  21
ATOM     21  C   UNL     1       0.869  -0.773  -2.030  0.00  0.00    -0.052 C 
BRANCH  21  23
ATOM     22  C   UNL     1       0.780   1.563  -2.735  0.00  0.00    +0.002 C 
ATOM     23  C   UNL     1       0.772   0.301  -3.083  0.00  0.00    -0.053 C 
ENDBRANCH  21  23
ENDBRANCH   1  21
BRANCH  19  24
ATOM     24  C   UNL     1      -4.131  -5.115  -2.619  0.00  0.00    +0.223 C 
BRANCH  24  25
ATOM     25  C   UNL     1      -4.568  -4.710  -4.003  0.00  0.00    +0.233 C 
ATOM     26  O   UNL     1      -3.979  -5.136  -4.974  0.00  0.00    -0.274 OA
ATOM     27  N   UNL     1      -5.613  -3.874  -4.163  0.00  0.00    -0.311 N 
ATOM     28  H   UNL     1      -6.084  -3.534  -3.386  0.00  0.00    +0.149 HD
BRANCH  27  29
ATOM     29  C   UNL     1      -6.037  -3.481  -5.508  0.00  0.00    +0.073 C 
ATOM     30  C   UNL     1      -5.201  -2.289  -5.979  0.00  0.00    +0.022 C 
ATOM     31  C   UNL     1      -5.644  -1.878  -7.384  0.00  0.00    +0.002 C 
ATOM     32  C   UNL     1      -7.123  -1.484  -7.358  0.00  0.00    +0.000 C 
ATOM     33  C   UNL     1      -7.959  -2.676  -6.888  0.00  0.00    +0.002 C 
ATOM     34  C   UNL     1      -7.516  -3.087  -5.482  0.00  0.00    +0.022 C 
ENDBRANCH  27  29
ENDBRANCH  24  25
ENDBRANCH  19  24
TORSDOF 5
