REMARK  Name = ZINC06205845
REMARK  6 active torsions:
REMARK  status: ('A' for Active; 'I' for Inactive)
REMARK    1  A    between atoms: C_1  and  C_2
REMARK    2  A    between atoms: C_5  and  N_9
REMARK    3  A    between atoms: N_9  and  C_10
REMARK    4  A    between atoms: N_17  and  C_20
REMARK    5  A    between atoms: C_23  and  O_26
REMARK    6  A    between atoms: O_26  and  C_27
REMARK                            x       y       z     vdW  Elec       q    Type
REMARK                         _______ _______ _______ _____ _____    ______ ____
ROOT
ATOM      1  C   UNL     1       0.125  -4.854   1.144  0.00  0.00    +0.090 C 
ATOM      2  C   UNL     1       0.013  -6.233   1.137  0.00  0.00    +0.113 C 
ATOM      3  C   UNL     1      -0.010  -6.997  -0.123  0.00  0.00    +0.258 C 
ATOM      4  N   UNL     1      -0.122  -8.339  -0.053  0.00  0.00    -0.235 N 
ATOM      5  H   UNL     1      -0.138  -8.857  -0.873  0.00  0.00    +0.159 HD
ATOM      6  C   UNL     1      -0.210  -8.974   1.124  0.00  0.00    +0.320 C 
ATOM      7  O   UNL     1      -0.308 -10.186   1.118  0.00  0.00    -0.251 OA
ATOM      8  N   UNL     1      -0.195  -8.344   2.307  0.00  0.00    -0.190 N 
ATOM      9  C   UNL     1      -0.082  -7.003   2.390  0.00  0.00    +0.265 C 
ATOM     10  O   UNL     1      -0.064  -6.443   3.470  0.00  0.00    -0.269 OA
ATOM     11  O   UNL     1       0.069  -6.431  -1.197  0.00  0.00    -0.270 OA
ENDROOT
BRANCH   8  12
ATOM     12  C   UNL     1      -0.293  -9.098   3.486  0.00  0.00    +0.046 A 
ATOM     13  C   UNL     1      -1.415  -8.980   4.295  0.00  0.00    +0.027 A 
ATOM     14  C   UNL     1      -1.511  -9.723   5.455  0.00  0.00    +0.047 A 
ATOM     15  C   UNL     1      -0.486 -10.586   5.813  0.00  0.00    +0.120 A 
ATOM     16  C   UNL     1       0.636 -10.704   5.006  0.00  0.00    +0.047 A 
ATOM     17  C   UNL     1       0.730  -9.967   3.842  0.00  0.00    +0.027 A 
BRANCH  15  18
ATOM     18  O   UNL     1      -0.581 -11.316   6.956  0.00  0.00    -0.495 OA
ATOM     19  C   UNL     1       0.511 -12.185   7.263  0.00  0.00    +0.277 C 
ENDBRANCH  15  18
ENDBRANCH   8  12
BRANCH   1  20
ATOM     20  N   UNL     1       0.077  -4.168  -0.017  0.00  0.00    -0.320 N 
ATOM     21  H   UNL     1       0.042  -4.645  -0.861  0.00  0.00    +0.152 HD
BRANCH  20  26
ATOM     22  C   UNL     1       0.082   1.504   0.038  0.00  0.00    +0.045 C 
ATOM     23  C   UNL     1       0.081  -0.003   0.024  0.00  0.00    -0.032 A 
ATOM     24  C   UNL     1       0.031  -0.682  -1.180  0.00  0.00    +0.006 A 
ATOM     25  C   UNL     1       0.029  -2.062  -1.197  0.00  0.00    +0.023 A 
ATOM     26  C   UNL     1       0.079  -2.771  -0.003  0.00  0.00    +0.032 A 
ATOM     27  C   UNL     1       0.129  -2.087   1.205  0.00  0.00    +0.043 A 
ATOM     28  C   UNL     1       0.135  -0.705   1.215  0.00  0.00    +0.046 A 
ATOM     29 CL   UNL     1       0.205   0.152   2.724  0.00  0.00    -0.083 Cl
ENDBRANCH  20  26
ENDBRANCH   1  20
TORSDOF 4
