REMARK  Name = ZINC35063806
REMARK  8 active torsions:
REMARK  status: ('A' for Active; 'I' for Inactive)
REMARK    1  A    between atoms: C_1  and  C_2
REMARK    2  A    between atoms: C_5  and  N_8
REMARK    3  A    between atoms: C_18  and  C_19
REMARK    4  A    between atoms: C_19  and  C_21
REMARK    5  A    between atoms: C_19  and  N_22
REMARK    6  A    between atoms: N_22  and  C_23
REMARK    7  A    between atoms: C_23  and  C_24
REMARK    8  A    between atoms: N_32  and  C_33
REMARK                            x       y       z     vdW  Elec       q    Type
REMARK                         _______ _______ _______ _____ _____    ______ ____
ROOT
ATOM      1  C   UNL     1       0.031  -3.755   2.488  0.00  0.00    +0.141 C 
ATOM      2  C   UNL     1       1.048  -2.615   2.569  0.00  0.00    +0.036 C 
ENDROOT
BRANCH   1  13
ATOM      3  N   UNL     1      -0.858  -5.261   0.753  0.00  0.00    -0.263 N 
ATOM      4  C   UNL     1      -0.798  -5.897  -0.441  0.00  0.00    +0.266 A 
ATOM      5  O   UNL     1      -1.697  -6.628  -0.813  0.00  0.00    -0.267 OA
ATOM      6  C   UNL     1       0.393  -5.669  -1.270  0.00  0.00    +0.065 A 
ATOM      7  C   UNL     1       0.552  -6.275  -2.515  0.00  0.00    +0.015 A 
ATOM      8  C   UNL     1       1.689  -6.026  -3.252  0.00  0.00    +0.001 A 
ATOM      9  C   UNL     1       2.675  -5.178  -2.764  0.00  0.00    +0.002 A 
ATOM     10  C   UNL     1       2.538  -4.570  -1.536  0.00  0.00    +0.028 A 
ATOM     11  C   UNL     1       1.394  -4.806  -0.771  0.00  0.00    +0.078 A 
ATOM     12  N   UNL     1       1.219  -4.227   0.443  0.00  0.00    -0.231 NA
ATOM     13  C   UNL     1       0.152  -4.442   1.152  0.00  0.00    +0.138 A 
BRANCH   3  18
ATOM     14  C   UNL     1      -5.371  -6.004   4.111  0.00  0.00    +0.044 C 
ATOM     15  C   UNL     1      -4.173  -5.807   3.219  0.00  0.00    -0.050 A 
ATOM     16  C   UNL     1      -3.983  -4.598   2.575  0.00  0.00    +0.005 A 
ATOM     17  C   UNL     1      -2.886  -4.414   1.757  0.00  0.00    +0.026 A 
ATOM     18  C   UNL     1      -1.972  -5.445   1.582  0.00  0.00    +0.051 A 
ATOM     19  C   UNL     1      -2.165  -6.657   2.230  0.00  0.00    +0.026 A 
ATOM     20  C   UNL     1      -3.261  -6.833   3.051  0.00  0.00    +0.005 A 
ENDBRANCH   3  18
ENDBRANCH   1  13
BRANCH   1  21
ATOM     21  N   UNL     1       0.292  -4.720   3.559  0.00  0.00    -0.272 N 
ATOM     22  C   UNL     1      -0.625  -4.915   4.528  0.00  0.00    +0.303 C 
ATOM     23  O   UNL     1      -1.668  -4.291   4.513  0.00  0.00    -0.253 OA
ATOM     24  N   UNL     1      -0.385  -5.803   5.513  0.00  0.00    -0.296 N 
ATOM     25  H   UNL     1       0.447  -6.301   5.525  0.00  0.00    +0.151 HD
BRANCH  24  26
ATOM     26  C   UNL     1      -1.381  -6.015   6.566  0.00  0.00    +0.074 C 
ATOM     27  C   UNL     1      -1.193  -4.967   7.665  0.00  0.00    +0.022 C 
ATOM     28  C   UNL     1      -2.233  -5.188   8.764  0.00  0.00    +0.002 C 
ATOM     29  C   UNL     1      -2.057  -6.587   9.359  0.00  0.00    +0.000 C 
ATOM     30  C   UNL     1      -2.244  -7.636   8.260  0.00  0.00    +0.002 C 
ATOM     31  C   UNL     1      -1.204  -7.414   7.161  0.00  0.00    +0.022 C 
ENDBRANCH  24  26
BRANCH  21  32
ATOM     32  C   UNL     1       1.548  -5.472   3.577  0.00  0.00    +0.145 C 
BRANCH  32  33
ATOM     33  C   UNL     1       1.345  -6.807   2.907  0.00  0.00    -0.030 A 
ATOM     34  C   UNL     1       0.808  -7.862   3.620  0.00  0.00    +0.005 A 
ATOM     35  C   UNL     1       0.621  -9.087   3.005  0.00  0.00    +0.000 A 
ATOM     36  C   UNL     1       0.971  -9.255   1.679  0.00  0.00    +0.000 A 
ATOM     37  C   UNL     1       1.507  -8.199   0.966  0.00  0.00    +0.000 A 
ATOM     38  C   UNL     1       1.690  -6.973   1.579  0.00  0.00    +0.005 A 
ENDBRANCH  32  33
ENDBRANCH  21  32
ENDBRANCH   1  21
TORSDOF 6
