REMARK  Name = ZINC38547663
REMARK  8 active torsions:
REMARK  status: ('A' for Active; 'I' for Inactive)
REMARK    1  A    between atoms: C_1  and  C_2
REMARK    2  A    between atoms: N_8  and  C_9
REMARK    3  A    between atoms: C_9  and  C_11
REMARK    4  A    between atoms: C_9  and  C_18
REMARK    5  A    between atoms: C_19  and  C_32
REMARK    6  A    between atoms: C_20  and  C_31
REMARK    7  A    between atoms: C_22  and  N_23
REMARK    8  A    between atoms: C_24  and  C_26
REMARK                            x       y       z     vdW  Elec       q    Type
REMARK                         _______ _______ _______ _____ _____    ______ ____
ROOT
ATOM      1  C   UNL     1      -0.267  -1.852   3.866  0.00  0.00    +0.135 C 
ENDROOT
BRANCH   1   9
ATOM      2  C   UNL     1      -2.642   1.259   0.559  0.00  0.00    +0.044 C 
ATOM      3  C   UNL     1      -2.169  -0.172   0.526  0.00  0.00    -0.046 A 
ATOM      4  C   UNL     1      -2.354  -0.955  -0.606  0.00  0.00    +0.021 A 
ATOM      5  C   UNL     1      -1.909  -2.261  -0.605  0.00  0.00    +0.084 A 
ATOM      6  N   UNL     1      -1.312  -2.772   0.456  0.00  0.00    -0.350 N 
ATOM      7  C   UNL     1      -1.118  -2.058   1.554  0.00  0.00    +0.097 A 
ATOM      8  C   UNL     1      -1.536  -0.732   1.620  0.00  0.00    +0.045 A 
ATOM      9  N   UNL     1      -0.485  -2.636   2.648  0.00  0.00    -0.320 N 
ATOM     10  H   UNL     1      -0.188  -3.558   2.605  0.00  0.00    +0.148 HD
ATOM     11  H   UNL     1      -1.009  -3.692   0.430  0.00  0.00    +0.166 HD
ENDBRANCH   1   9
BRANCH   1  12
ATOM     12  C   UNL     1      -1.581  -1.649   4.575  0.00  0.00    -0.022 A 
ATOM     13  C   UNL     1      -2.579  -2.599   4.467  0.00  0.00    +0.006 A 
ATOM     14  C   UNL     1      -3.784  -2.413   5.117  0.00  0.00    +0.001 A 
ATOM     15  C   UNL     1      -3.993  -1.276   5.875  0.00  0.00    +0.015 A 
ATOM     16  C   UNL     1      -2.995  -0.325   5.984  0.00  0.00    +0.018 A 
ATOM     17  C   UNL     1      -1.786  -0.514   5.337  0.00  0.00    +0.021 A 
ATOM     18 BR   UNL     1      -3.280   1.231   7.020  0.00  0.00    -0.050 Br
ENDBRANCH   1  12
BRANCH   1  19
ATOM     19  C   UNL     1       0.685  -2.588   4.774  0.00  0.00    +0.009 A 
ATOM     20  C   UNL     1       1.753  -1.931   5.356  0.00  0.00    -0.033 A 
ATOM     21  C   UNL     1       2.589  -2.623   6.167  0.00  0.00    -0.008 A 
ATOM     22  S   UNL     1       1.875  -4.259   6.130  0.00  0.00    -0.078 S 
ATOM     23  C   UNL     1       0.505  -3.913   5.040  0.00  0.00    +0.078 A 
ATOM     24  C   UNL     1       3.808  -2.137   6.909  0.00  0.00    +0.052 C 
ATOM     25  C   UNL     1       1.984  -0.466   5.092  0.00  0.00    +0.045 C 
BRANCH  23  26
ATOM     26  N   UNL     1      -0.491  -4.775   4.577  0.00  0.00    -0.273 N 
ATOM     27  C   UNL     1      -0.563  -6.036   5.049  0.00  0.00    +0.284 C 
ATOM     28  O   UNL     1       0.240  -6.422   5.877  0.00  0.00    -0.266 OA
ATOM     29  H   UNL     1      -1.131  -4.467   3.917  0.00  0.00    +0.156 HD
BRANCH  27  30
ATOM     30  C   UNL     1      -1.609  -6.941   4.563  0.00  0.00    +0.189 A 
ATOM     31  C   UNL     1      -1.798  -8.235   4.959  0.00  0.00    +0.054 A 
ATOM     32  C   UNL     1      -2.904  -8.718   4.244  0.00  0.00    +0.042 A 
ATOM     33  C   UNL     1      -3.337  -7.712   3.453  0.00  0.00    +0.196 A 
ATOM     34  O   UNL     1      -2.557  -6.641   3.652  0.00  0.00    -0.458 OA
ENDBRANCH  27  30
ENDBRANCH  23  26
ENDBRANCH   1  19
TORSDOF 5
