REMARK  Name = ZINC43217003
REMARK  7 active torsions:
REMARK  status: ('A' for Active; 'I' for Inactive)
REMARK    1  A    between atoms: C_1  and  N_2
REMARK    2  A    between atoms: N_2  and  C_3
REMARK    3  A    between atoms: C_3  and  C_4
REMARK    4  A    between atoms: C_6  and  C_9
REMARK    5  A    between atoms: N_14  and  C_17
REMARK    6  A    between atoms: C_17  and  C_18
REMARK    7  A    between atoms: C_17  and  C_24
REMARK                            x       y       z     vdW  Elec       q    Type
REMARK                         _______ _______ _______ _____ _____    ______ ____
ROOT
ATOM      1  C   UNL     1       0.991  -4.446  -0.959  0.00  0.00    +0.268 C 
ATOM      2  O   UNL     1       0.521  -3.351  -0.715  0.00  0.00    -0.268 OA
ATOM      3  N   UNL     1       2.317  -4.583  -1.153  0.00  0.00    -0.294 N 
ATOM      4  C   UNL     1       3.231  -3.449  -0.944  0.00  0.00    +0.123 C 
ATOM      5  C   UNL     1       4.113  -3.299  -2.188  0.00  0.00    +0.104 C 
ATOM      6  N   UNL     1       4.770  -4.581  -2.476  0.00  0.00    -0.289 NA
ATOM      7  C   UNL     1       3.785  -5.623  -2.797  0.00  0.00    +0.104 C 
ATOM      8  C   UNL     1       2.891  -5.870  -1.572  0.00  0.00    +0.123 C 
ENDROOT
BRANCH   1  11
ATOM      9  C   UNL     1      -0.560  -7.669  -1.219  0.00  0.00    +0.179 A 
ATOM     10  N   UNL     1       0.501  -6.920  -1.182  0.00  0.00    -0.210 NA
ATOM     11  C   UNL     1       0.108  -5.624  -1.044  0.00  0.00    +0.164 A 
ATOM     12  C   UNL     1      -1.252  -5.620  -1.000  0.00  0.00    +0.230 A 
ATOM     13  O   UNL     1      -1.651  -6.897  -1.115  0.00  0.00    -0.449 OA
BRANCH   9  14
ATOM     14  C   UNL     1      -0.563  -9.169  -1.364  0.00  0.00    +0.015 C 
BRANCH  14  16
ATOM     15  C   UNL     1      -0.529 -11.252  -0.174  0.00  0.00    -0.100 C 
ATOM     16  N   UNL     1      -0.526  -9.790  -0.033  0.00  0.00    +0.383 N 
ATOM     17  H   UNL     1      -1.335  -9.501   0.495  0.00  0.00    -0.086 HD
ATOM     18  H   UNL     1       0.312  -9.501   0.449  0.00  0.00    -0.086 HD
ENDBRANCH  14  16
ENDBRANCH   9  14
ENDBRANCH   1  11
BRANCH   6  19
ATOM     19  C   UNL     1       5.755  -4.437  -3.556  0.00  0.00    +0.117 C 
BRANCH  19  20
ATOM     20  C   UNL     1       6.667  -3.276  -3.252  0.00  0.00    -0.026 A 
ATOM     21  C   UNL     1       7.224  -3.146  -1.994  0.00  0.00    +0.005 A 
ATOM     22  C   UNL     1       8.061  -2.082  -1.715  0.00  0.00    +0.000 A 
ATOM     23  C   UNL     1       8.341  -1.148  -2.695  0.00  0.00    +0.000 A 
ATOM     24  C   UNL     1       7.784  -1.278  -3.953  0.00  0.00    +0.000 A 
ATOM     25  C   UNL     1       6.951  -2.345  -4.233  0.00  0.00    +0.005 A 
ENDBRANCH  19  20
BRANCH  19  26
ATOM     26  C   UNL     1       6.569  -5.700  -3.665  0.00  0.00    -0.026 A 
ATOM     27  C   UNL     1       7.096  -6.284  -2.528  0.00  0.00    +0.005 A 
ATOM     28  C   UNL     1       7.843  -7.443  -2.628  0.00  0.00    +0.000 A 
ATOM     29  C   UNL     1       8.062  -8.019  -3.866  0.00  0.00    +0.000 A 
ATOM     30  C   UNL     1       7.535  -7.436  -5.003  0.00  0.00    +0.000 A 
ATOM     31  C   UNL     1       6.784  -6.279  -4.902  0.00  0.00    +0.005 A 
ENDBRANCH  19  26
ENDBRANCH   6  19
TORSDOF 6
