REMARK  Name = ZINC36202831
REMARK  18 active torsions:
REMARK  status: ('A' for Active; 'I' for Inactive)
REMARK    1  A    between atoms: C_1  and  C_2
REMARK    2  A    between atoms: C_5  and  C_8
REMARK    3  A    between atoms: C_8  and  N_9
REMARK    4  A    between atoms: N_9  and  C_10
REMARK    5  A    between atoms: N_9  and  C_15
REMARK    6  A    between atoms: C_10  and  C_11
REMARK    7  A    between atoms: C_11  and  C_12
REMARK    8  A    between atoms: C_12  and  O_13
REMARK    9  A    between atoms: O_13  and  C_14
REMARK   10  A    between atoms: C_15  and  C_16
REMARK   11  A    between atoms: C_19  and  C_21
REMARK   12  A    between atoms: C_21  and  C_22
REMARK   13  A    between atoms: C_21  and  C_30
REMARK   14  A    between atoms: C_21  and  O_38
REMARK   15  A    between atoms: C_25  and  O_28
REMARK   16  A    between atoms: O_28  and  C_29
REMARK   17  A    between atoms: C_33  and  O_36
REMARK   18  A    between atoms: O_36  and  C_37
REMARK                            x       y       z     vdW  Elec       q    Type
REMARK                         _______ _______ _______ _____ _____    ______ ____
ROOT
ATOM      1  C   UNL     1       3.041  -6.583   1.253  0.00  0.00    +0.089 A 
ATOM      2  C   UNL     1       4.042  -6.759   2.133  0.00  0.00    +0.043 A 
ATOM      3  C   UNL     1       5.222  -6.952   1.378  0.00  0.00    +0.048 A 
ATOM      4  C   UNL     1       4.870  -6.882   0.082  0.00  0.00    +0.146 A 
ATOM      5  O   UNL     1       3.547  -6.664   0.012  0.00  0.00    -0.463 OA
ENDROOT
BRANCH   1   6
ATOM      6  C   UNL     1       1.594  -6.341   1.601  0.00  0.00    -0.003 C 
BRANCH   6   7
ATOM      7  N   UNL     1       1.382  -4.909   1.847  0.00  0.00    +0.387 N 
ATOM      8  H   UNL     1       2.026  -4.590   2.555  0.00  0.00    -0.081 HD
BRANCH   7   9
ATOM      9  C   UNL     1       1.613  -4.160   0.604  0.00  0.00    -0.042 C 
BRANCH   9  14
ATOM     10  C   UNL     1       1.242   1.508   1.671  0.00  0.00    +0.044 C 
ATOM     11  C   UNL     1       1.339   0.030   1.393  0.00  0.00    -0.050 A 
ATOM     12  C   UNL     1       2.556  -0.616   1.503  0.00  0.00    +0.003 A 
ATOM     13  C   UNL     1       2.644  -1.972   1.248  0.00  0.00    +0.002 A 
ATOM     14  C   UNL     1       1.516  -2.682   0.883  0.00  0.00    -0.064 A 
ATOM     15  C   UNL     1       0.298  -2.036   0.774  0.00  0.00    +0.002 A 
ATOM     16  C   UNL     1       0.209  -0.681   1.033  0.00  0.00    +0.003 A 
ENDBRANCH   9  14
ENDBRANCH   7   9
BRANCH   7  17
ATOM     17  C   UNL     1       0.003  -4.689   2.302  0.00  0.00    -0.076 C 
BRANCH  17  18
ATOM     18  C   UNL     1      -0.192  -5.343   3.672  0.00  0.00    +0.009 C 
BRANCH  18  19
ATOM     19  C   UNL     1      -1.618  -5.085   4.162  0.00  0.00    +0.157 C 
BRANCH  19  20
ATOM     20  O   UNL     1      -1.800  -5.695   5.441  0.00  0.00    -0.383 OA
ATOM     21  C   UNL     1      -3.106  -5.513   5.992  0.00  0.00    +0.193 C 
ENDBRANCH  19  20
ENDBRANCH  18  19
ENDBRANCH  17  18
ENDBRANCH   7  17
ENDBRANCH   6   7
ENDBRANCH   1   6
BRANCH   4  22
ATOM     22  C   UNL     1       5.802  -7.029  -1.093  0.00  0.00    +0.174 C 
BRANCH  22  23
ATOM     23  C   UNL     1       5.050  -7.613  -2.261  0.00  0.00    -0.004 A 
ATOM     24  C   UNL     1       5.355  -8.884  -2.713  0.00  0.00    +0.011 A 
ATOM     25  C   UNL     1       4.667  -9.421  -3.784  0.00  0.00    +0.046 A 
ATOM     26  C   UNL     1       3.669  -8.685  -4.405  0.00  0.00    +0.120 A 
ATOM     27  C   UNL     1       3.364  -7.411  -3.950  0.00  0.00    +0.046 A 
ATOM     28  C   UNL     1       4.052  -6.880  -2.876  0.00  0.00    +0.011 A 
BRANCH  26  29
ATOM     29  O   UNL     1       2.991  -9.211  -5.459  0.00  0.00    -0.495 OA
ATOM     30  C   UNL     1       1.977  -8.397  -6.050  0.00  0.00    +0.277 C 
ENDBRANCH  26  29
ENDBRANCH  22  23
BRANCH  22  31
ATOM     31  C   UNL     1       6.349  -5.677  -1.473  0.00  0.00    -0.004 A 
ATOM     32  C   UNL     1       5.521  -4.570  -1.460  0.00  0.00    +0.011 A 
ATOM     33  C   UNL     1       6.019  -3.329  -1.809  0.00  0.00    +0.046 A 
ATOM     34  C   UNL     1       7.352  -3.195  -2.171  0.00  0.00    +0.120 A 
ATOM     35  C   UNL     1       8.180  -4.308  -2.183  0.00  0.00    +0.046 A 
ATOM     36  C   UNL     1       7.678  -5.545  -1.829  0.00  0.00    +0.011 A 
BRANCH  34  37
ATOM     37  O   UNL     1       7.844  -1.976  -2.515  0.00  0.00    -0.495 OA
ATOM     38  C   UNL     1       9.225  -1.913  -2.877  0.00  0.00    +0.277 C 
ENDBRANCH  34  37
ENDBRANCH  22  31
BRANCH  22  39
ATOM     39  O   UNL     1       6.881  -7.897  -0.740  0.00  0.00    -0.372 OA
ATOM     40  H   UNL     1       7.410  -7.583   0.006  0.00  0.00    +0.212 HD
ENDBRANCH  22  39
ENDBRANCH   4  22
TORSDOF 14
