REMARK  Name = ZINC47138120
REMARK  6 active torsions:
REMARK  status: ('A' for Active; 'I' for Inactive)
REMARK    1  A    between atoms: C_4  and  O_31
REMARK    2  A    between atoms: C_5  and  C_7
REMARK    3  A    between atoms: N_8  and  N_9
REMARK    4  A    between atoms: N_11  and  C_25
REMARK    5  A    between atoms: C_15  and  C_16
REMARK    6  A    between atoms: C_25  and  C_26
REMARK                            x       y       z     vdW  Elec       q    Type
REMARK                         _______ _______ _______ _____ _____    ______ ____
ROOT
ATOM      1  N   UNL     1       3.555  -2.140  -0.265  0.00  0.00    -0.126 NA
ATOM      2  C   UNL     1       4.691  -2.775  -0.055  0.00  0.00    +0.190 C 
ATOM      3  N   UNL     1       4.932  -4.131  -0.084  0.00  0.00    -0.237 N 
ATOM      4  C   UNL     1       6.143  -4.606   0.152  0.00  0.00    +0.259 C 
ATOM      5  O   UNL     1       6.374  -5.801   0.131  0.00  0.00    -0.269 OA
ATOM      6  C   UNL     1       7.204  -3.620   0.442  0.00  0.00    +0.078 C 
ATOM      7  C   UNL     1       8.517  -3.823   0.716  0.00  0.00    +0.029 C 
ATOM      8  S   UNL     1       6.293  -2.086   0.327  0.00  0.00    -0.047 S 
ENDROOT
BRANCH   7   9
ATOM      9  C   UNL     1       9.432  -2.678   0.818  0.00  0.00    -0.004 A 
ATOM     10  C   UNL     1       9.076  -1.441   0.268  0.00  0.00    +0.009 A 
ATOM     11  C   UNL     1       9.939  -0.371   0.368  0.00  0.00    +0.002 A 
ATOM     12  C   UNL     1      11.157  -0.516   1.011  0.00  0.00    +0.021 A 
ATOM     13  C   UNL     1      11.519  -1.735   1.559  0.00  0.00    +0.060 A 
ATOM     14  C   UNL     1      10.662  -2.816   1.472  0.00  0.00    +0.066 A 
ATOM     15 CL   UNL     1      11.114  -4.343   2.165  0.00  0.00    -0.081 Cl
ATOM     16 CL   UNL     1      13.048  -1.904   2.362  0.00  0.00    -0.082 Cl
ENDBRANCH   7   9
BRANCH   1  18
ATOM     17  C   UNL     1       1.357  -2.177  -0.740  0.00  0.00    +0.146 C 
ATOM     18  N   UNL     1       2.483  -2.807  -0.532  0.00  0.00    -0.155 NA
BRANCH  17  23
ATOM     19  C   UNL     1       2.483   1.394  -0.934  0.00  0.00    +0.001 A 
ATOM     20  C   UNL     1       1.280   2.066  -0.802  0.00  0.00    +0.004 A 
ATOM     21  C   UNL     1       0.099   1.363  -0.649  0.00  0.00    +0.046 A 
ATOM     22  C   UNL     1       0.113  -0.022  -0.628  0.00  0.00    +0.125 A 
ATOM     23  C   UNL     1       1.330  -0.707  -0.762  0.00  0.00    +0.036 A 
ATOM     24  C   UNL     1       2.517   0.016  -0.916  0.00  0.00    +0.013 A 
BRANCH  22  25
ATOM     25  O   UNL     1      -1.046  -0.713  -0.477  0.00  0.00    -0.506 OA
ATOM     26  H   UNL     1      -1.526  -0.862  -1.304  0.00  0.00    +0.292 HD
ENDBRANCH  22  25
ENDBRANCH  17  23
ENDBRANCH   1  18
BRANCH   3  27
ATOM     27  C   UNL     1       3.835  -5.057  -0.378  0.00  0.00    +0.190 C 
BRANCH  27  28
ATOM     28  C   UNL     1       3.761  -5.292  -1.864  0.00  0.00    +0.123 A 
ATOM     29  C   UNL     1       4.403  -6.261  -2.540  0.00  0.00    +0.046 A 
ATOM     30  C   UNL     1       4.051  -6.114  -3.902  0.00  0.00    +0.041 A 
ATOM     31  C   UNL     1       3.215  -5.063  -3.976  0.00  0.00    +0.195 A 
ATOM     32  O   UNL     1       3.038  -4.572  -2.738  0.00  0.00    -0.466 OA
ENDBRANCH  27  28
ENDBRANCH   3  27
TORSDOF 6
