REMARK  Name = ZINC14263175
REMARK  9 active torsions:
REMARK  status: ('A' for Active; 'I' for Inactive)
REMARK    1  A    between atoms: C_1  and  N_58
REMARK    2  A    between atoms: C_2  and  N_58
REMARK    3  A    between atoms: C_3  and  C_5
REMARK    4  A    between atoms: C_3  and  C_26
REMARK    5  A    between atoms: C_3  and  N_58
REMARK    6  A    between atoms: C_5  and  N_6
REMARK    7  A    between atoms: C_7  and  C_9
REMARK    8  A    between atoms: N_14  and  S_16
REMARK    9  A    between atoms: S_16  and  C_19
REMARK                            x       y       z     vdW  Elec       q    Type
REMARK                         _______ _______ _______ _____ _____    ______ ____
ROOT
ATOM      1  N   UNL     1       0.184   3.983   5.375  0.00  0.00    -0.316 N 
ATOM      2  C   UNL     1       0.203   3.665   4.066  0.00  0.00    +0.217 C 
ATOM      3  O   UNL     1       0.576   4.481   3.249  0.00  0.00    -0.275 OA
ATOM      4  H   UNL     1      -0.115   3.331   6.029  0.00  0.00    +0.149 HD
ENDROOT
BRANCH   2   5
ATOM      5  C   UNL     1      -0.241   2.297   3.616  0.00  0.00    +0.091 C 
ATOM      6  C   UNL     1      -1.696   2.070   4.030  0.00  0.00    +0.015 C 
ATOM      7  C   UNL     1      -2.137   0.668   3.603  0.00  0.00    +0.018 C 
ATOM      8  C   UNL     1      -2.044   0.550   2.079  0.00  0.00    +0.109 C 
ATOM      9  N   UNL     1      -0.683   0.909   1.659  0.00  0.00    -0.176 NA
ATOM     10  C   UNL     1      -0.124   2.195   2.096  0.00  0.00    +0.122 C 
BRANCH   9  11
ATOM     11  S   UNL     1       0.208  -0.120   0.715  0.00  0.00    +0.061 S 
ATOM     12  O   UNL     1      -0.316  -1.424   0.930  0.00  0.00    -0.153 OA
ATOM     13  O   UNL     1       1.573   0.199   0.943  0.00  0.00    -0.153 OA
BRANCH  11  14
ATOM     14  C   UNL     1      -0.132   0.287  -0.965  0.00  0.00    +0.106 A 
ATOM     15  C   UNL     1      -1.169  -0.337  -1.631  0.00  0.00    +0.029 A 
ATOM     16  C   UNL     1      -1.439  -0.014  -2.948  0.00  0.00    +0.017 A 
ATOM     17  C   UNL     1      -0.664   0.927  -3.602  0.00  0.00    +0.018 A 
ATOM     18  C   UNL     1       0.378   1.548  -2.936  0.00  0.00    +0.017 A 
ATOM     19  C   UNL     1       0.643   1.228  -1.618  0.00  0.00    +0.029 A 
ATOM     20 BR   UNL     1      -1.028   1.365  -5.405  0.00  0.00    -0.050 Br
ENDBRANCH  11  14
ENDBRANCH   9  11
ENDBRANCH   2   5
BRANCH   1  21
ATOM     21  C   UNL     1       0.615   5.313   5.813  0.00  0.00    +0.093 C 
BRANCH  21  22
ATOM     22  C   UNL     1       0.496   5.413   7.335  0.00  0.00    -0.021 C 
BRANCH  22  23
ATOM     23  C   UNL     1       0.822   6.818   7.773  0.00  0.00    -0.059 A 
ATOM     24  C   UNL     1       1.724   7.030   8.798  0.00  0.00    +0.002 A 
ATOM     25  C   UNL     1       2.026   8.319   9.197  0.00  0.00    +0.000 A 
ATOM     26  C   UNL     1       1.418   9.395   8.577  0.00  0.00    +0.000 A 
ATOM     27  C   UNL     1       0.512   9.182   7.555  0.00  0.00    +0.000 A 
ATOM     28  C   UNL     1       0.213   7.893   7.153  0.00  0.00    +0.002 A 
ENDBRANCH  22  23
BRANCH  22  31
ATOM     29  C   UNL     1      -0.985   5.000   9.205  0.00  0.00    -0.096 C 
ATOM     30  C   UNL     1      -1.838   6.041   7.192  0.00  0.00    -0.096 C 
ATOM     31  N   UNL     1      -0.881   5.052   7.732  0.00  0.00    +0.382 N 
ATOM     32  H   UNL     1      -1.107   4.126   7.349  0.00  0.00    -0.082 HD
ENDBRANCH  22  31
ENDBRANCH  21  22
ENDBRANCH   1  21
TORSDOF 7
