REMARK  Name = ZINC21107563
REMARK  9 active torsions:
REMARK  status: ('A' for Active; 'I' for Inactive)
REMARK    1  A    between atoms: C_1  and  C_2
REMARK    2  A    between atoms: C_3  and  C_16
REMARK    3  A    between atoms: C_4  and  C_15
REMARK    4  A    between atoms: N_5  and  C_7
REMARK    5  A    between atoms: C_7  and  C_8
REMARK    6  A    between atoms: C_16  and  O_18
REMARK    7  A    between atoms: O_18  and  C_19
REMARK    8  A    between atoms: C_19  and  C_20
REMARK    9  A    between atoms: C_33  and  C_35
REMARK                            x       y       z     vdW  Elec       q    Type
REMARK                         _______ _______ _______ _____ _____    ______ ____
ROOT
ATOM      1  O   UNL     1       1.746  -3.392   2.502  0.00  0.00    -0.452 OA
ENDROOT
BRANCH   1   2
ATOM      2  C   UNL     1       0.490  -2.973   2.251  0.00  0.00    +0.343 C 
ATOM      3  O   UNL     1      -0.444  -3.452   2.863  0.00  0.00    -0.245 OA
BRANCH   2   6
ATOM      4  C   UNL     1      -0.062  -3.483  -0.833  0.00  0.00    +0.068 C 
ATOM      5  C   UNL     1       0.002  -2.146  -0.140  0.00  0.00    +0.074 A 
ATOM      6  C   UNL     1       0.249  -1.934   1.235  0.00  0.00    +0.102 A 
ATOM      7  C   UNL     1       0.222  -0.569   1.448  0.00  0.00    +0.051 A 
ATOM      8  N   UNL     1      -0.029   0.016   0.266  0.00  0.00    -0.263 N 
ATOM      9  N   UNL     1      -0.167  -0.982  -0.704  0.00  0.00    -0.175 NA
ATOM     10  C   UNL     1       0.434   0.133   2.764  0.00  0.00    +0.066 C 
BRANCH   8  11
ATOM     11  C   UNL     1      -0.144   1.458   0.033  0.00  0.00    +0.180 C 
BRANCH  11  12
ATOM     12  C   UNL     1      -1.595   1.861   0.084  0.00  0.00    -0.008 A 
ATOM     13  C   UNL     1      -2.142   2.329   1.264  0.00  0.00    +0.007 A 
ATOM     14  C   UNL     1      -3.473   2.697   1.310  0.00  0.00    +0.000 A 
ATOM     15  C   UNL     1      -4.258   2.600   0.176  0.00  0.00    +0.001 A 
ATOM     16  C   UNL     1      -3.712   2.133  -1.004  0.00  0.00    +0.020 A 
ATOM     17  C   UNL     1      -2.379   1.768  -1.052  0.00  0.00    +0.046 A 
ATOM     18 CL   UNL     1      -1.690   1.188  -2.537  0.00  0.00    -0.083 Cl
ENDBRANCH  11  12
ENDBRANCH   8  11
ENDBRANCH   2   6
ENDBRANCH   1   2
BRANCH   1  19
ATOM     19  C   UNL     1       1.909  -4.418   3.515  0.00  0.00    +0.328 C 
BRANCH  19  20
ATOM     20  C   UNL     1       3.370  -4.757   3.657  0.00  0.00    +0.258 C 
ATOM     21  O   UNL     1       4.194  -4.189   2.971  0.00  0.00    -0.271 OA
ATOM     22  N   UNL     1       3.762  -5.691   4.546  0.00  0.00    -0.264 N 
ATOM     23  C   UNL     1       2.824  -6.351   5.350  0.00  0.00    +0.058 A 
ATOM     24  C   UNL     1       1.975  -7.303   4.807  0.00  0.00    +0.025 A 
ATOM     25  C   UNL     1       1.077  -7.968   5.621  0.00  0.00    +0.002 A 
ATOM     26  C   UNL     1       1.021  -7.688   6.974  0.00  0.00    +0.002 A 
ATOM     27  C   UNL     1       1.849  -6.741   7.514  0.00  0.00    +0.025 A 
ATOM     28  C   UNL     1       2.743  -6.058   6.707  0.00  0.00    +0.055 A 
ATOM     29  N   UNL     1       3.571  -5.059   7.233  0.00  0.00    -0.284 N 
ATOM     30  C   UNL     1       4.897  -5.055   6.968  0.00  0.00    +0.219 C 
ATOM     31  O   UNL     1       5.587  -4.142   7.368  0.00  0.00    -0.275 OA
ATOM     32  C   UNL     1       5.522  -6.175   6.180  0.00  0.00    +0.118 C 
ATOM     33  C   UNL     1       5.178  -6.032   4.696  0.00  0.00    +0.087 C 
ATOM     34  C   UNL     1       5.461  -7.352   3.978  0.00  0.00    +0.029 C 
ATOM     35  H   UNL     1       3.144  -4.269   7.869  0.00  0.00    +0.155 HD
ENDBRANCH  19  20
ENDBRANCH   1  19
TORSDOF 6
