REMARK  Name = ZINC27298080
REMARK  15 active torsions:
REMARK  status: ('A' for Active; 'I' for Inactive)
REMARK    1  A    between atoms: C_1  and  C_2
REMARK    2  A    between atoms: C_2  and  O_3
REMARK    3  A    between atoms: O_3  and  C_4
REMARK    4  A    between atoms: C_7  and  C_13
REMARK    5  A    between atoms: C_9  and  O_10
REMARK    6  A    between atoms: O_10  and  C_11
REMARK    7  A    between atoms: C_11  and  C_12
REMARK    8  A    between atoms: C_18  and  C_33
REMARK    9  A    between atoms: C_23  and  C_31
REMARK   10  A    between atoms: C_24  and  N_30
REMARK   11  A    between atoms: C_25  and  C_26
REMARK   12  A    between atoms: C_25  and  C_28
REMARK   13  A    between atoms: C_33  and  C_34
REMARK   14  A    between atoms: C_33  and  C_35
REMARK   15  A    between atoms: C_33  and  C_36
REMARK                            x       y       z     vdW  Elec       q    Type
REMARK                         _______ _______ _______ _____ _____    ______ ____
ROOT
ATOM      1  C   UNL     1       2.489   1.043  -0.017  0.00  0.00    +0.066 C 
ATOM      2  C   UNL     1       2.517   0.074  -1.200  0.00  0.00    +0.031 C 
ATOM      3  C   UNL     1       2.618   0.800  -2.521  0.00  0.00    +0.013 C 
ATOM      4  C   UNL     1       1.258   0.934  -3.203  0.00  0.00    -0.001 C 
ATOM      5  C   UNL     1       0.689  -0.474  -3.429  0.00  0.00    +0.031 C 
ATOM      6  C   UNL     1       0.520  -1.124  -2.080  0.00  0.00    -0.021 C 
ATOM      7  C   UNL     1       1.337  -0.846  -1.084  0.00  0.00    -0.029 C 
ATOM      8  C   UNL     1       1.067  -1.426   0.258  0.00  0.00    +0.074 C 
ATOM      9  C   UNL     1       1.678  -0.895   1.347  0.00  0.00    +0.054 C 
ATOM     10  C   UNL     1       2.647   0.249   1.281  0.00  0.00    +0.188 C 
ENDROOT
BRANCH   1  14
ATOM     11  C   UNL     1      -1.235   3.145   0.029  0.00  0.00    +0.162 A 
ATOM     12  C   UNL     1      -0.137   3.689  -0.618  0.00  0.00    +0.050 A 
ATOM     13  C   UNL     1       1.064   3.004  -0.636  0.00  0.00    +0.008 A 
ATOM     14  C   UNL     1       1.176   1.782   0.000  0.00  0.00    -0.037 A 
ATOM     15  C   UNL     1       0.086   1.236   0.653  0.00  0.00    +0.053 A 
ATOM     16  C   UNL     1      -1.122   1.915   0.670  0.00  0.00    +0.162 A 
BRANCH  11  17
ATOM     17  O   UNL     1      -2.418   3.814   0.043  0.00  0.00    -0.489 OA
BRANCH  17  19
ATOM     18  C   UNL     1      -3.863   5.670  -0.513  0.00  0.00    +0.048 C 
ATOM     19  C   UNL     1      -2.461   5.071  -0.636  0.00  0.00    +0.226 C 
ENDBRANCH  17  19
ENDBRANCH  11  17
BRANCH  16  20
ATOM     20  O   UNL     1      -2.195   1.380   1.311  0.00  0.00    -0.489 OA
BRANCH  20  21
ATOM     21  C   UNL     1      -2.006   0.114   1.946  0.00  0.00    +0.226 C 
ATOM     22  C   UNL     1      -3.313  -0.324   2.610  0.00  0.00    +0.048 C 
ENDBRANCH  20  21
ENDBRANCH  16  20
ENDBRANCH   1  14
BRANCH   4  23
ATOM     23  C   UNL     1       1.423   1.646  -4.547  0.00  0.00    -0.035 C 
ATOM     24  C   UNL     1       2.361   0.835  -5.442  0.00  0.00    +0.011 C 
ATOM     25  C   UNL     1       0.058   1.777  -5.225  0.00  0.00    +0.011 C 
ATOM     26  C   UNL     1       2.014   3.038  -4.317  0.00  0.00    +0.011 C 
ENDBRANCH   4  23
BRANCH   9  27
ATOM     27  N   UNL     1       1.396  -1.432   2.572  0.00  0.00    -0.358 N 
ATOM     28  H   UNL     1       1.875  -1.024   3.475  0.00  0.00    +0.142 HD
ATOM     29  H   UNL     1       0.690  -2.272   2.656  0.00  0.00    +0.142 HD
ENDBRANCH   9  27
BRANCH  10  30
ATOM     30  C   UNL     1       4.019  -0.278   1.357  0.00  0.00    +0.091 C 
ATOM     31  N   UNL     1       5.078  -0.685   1.417  0.00  0.00    -0.194 NA
ENDBRANCH  10  30
BRANCH  10  32
ATOM     32  C   UNL     1       2.415   1.147   2.424  0.00  0.00    +0.091 C 
ATOM     33  N   UNL     1       2.236   1.840   3.306  0.00  0.00    -0.194 NA
ENDBRANCH  10  32
BRANCH   8  34
ATOM     34  C   UNL     1       0.170  -2.534   0.400  0.00  0.00    +0.101 C 
ATOM     35  N   UNL     1      -0.541  -3.412   0.512  0.00  0.00    -0.191 NA
ENDBRANCH   8  34
TORSDOF 10
