REMARK  Name = ZINC36637471
REMARK  10 active torsions:
REMARK  status: ('A' for Active; 'I' for Inactive)
REMARK    1  A    between atoms: C_1  and  C_2
REMARK    2  A    between atoms: C_2  and  C_3
REMARK    3  A    between atoms: N_9  and  S_10
REMARK    4  A    between atoms: S_10  and  C_13
REMARK    5  A    between atoms: C_16  and  C_19
REMARK    6  A    between atoms: N_21  and  C_22
REMARK    7  A    between atoms: C_22  and  C_23
REMARK    8  A    between atoms: C_23  and  N_24
REMARK    9  A    between atoms: N_24  and  C_25
REMARK   10  A    between atoms: N_24  and  C_26
REMARK                            x       y       z     vdW  Elec       q    Type
REMARK                         _______ _______ _______ _____ _____    ______ ____
ROOT
ATOM      1  C   UNL     1       1.829  -2.691  -6.251  0.00  0.00    +0.252 C 
ATOM      2  O   UNL     1       1.249  -3.554  -6.881  0.00  0.00    -0.270 OA
ATOM      3  N   UNL     1       3.172  -2.600  -6.312  0.00  0.00    -0.248 N 
ATOM      4  C   UNL     1       3.881  -3.392  -7.201  0.00  0.00    +0.168 A 
ATOM      5  N   UNL     1       5.176  -3.450  -7.400  0.00  0.00    -0.221 NA
ATOM      6  C   UNL     1       5.735  -4.278  -8.309  0.00  0.00    +0.115 A 
ATOM      7  C   UNL     1       7.107  -4.436  -8.621  0.00  0.00    +0.150 A 
ATOM      8  C   UNL     1       7.509  -5.330  -9.581  0.00  0.00    +0.040 A 
ATOM      9  C   UNL     1       6.593  -6.105 -10.278  0.00  0.00    +0.004 A 
ATOM     10  C   UNL     1       5.245  -5.976  -9.999  0.00  0.00    +0.017 A 
ATOM     11  C   UNL     1       4.833  -5.084  -9.039  0.00  0.00    +0.044 A 
ATOM     12  S   UNL     1       3.263  -4.601  -8.363  0.00  0.00    -0.052 S 
ATOM     13  F   UNL     1       8.031  -3.699  -7.966  0.00  0.00    -0.203 F 
ENDROOT
BRANCH   1  17
ATOM     14  C   UNL     1      -0.377   0.036  -3.857  0.00  0.00    +0.106 A 
ATOM     15  C   UNL     1       0.845  -0.438  -3.413  0.00  0.00    +0.029 A 
ATOM     16  C   UNL     1       1.567  -1.324  -4.186  0.00  0.00    +0.015 A 
ATOM     17  C   UNL     1       1.061  -1.742  -5.418  0.00  0.00    +0.037 A 
ATOM     18  C   UNL     1      -0.172  -1.261  -5.860  0.00  0.00    +0.015 A 
ATOM     19  C   UNL     1      -0.886  -0.379  -5.075  0.00  0.00    +0.029 A 
BRANCH  14  20
ATOM     20  S   UNL     1      -1.292   1.168  -2.864  0.00  0.00    +0.061 S 
ATOM     21  O   UNL     1      -2.010   2.005  -3.759  0.00  0.00    -0.153 OA
ATOM     22  O   UNL     1      -0.387   1.685  -1.898  0.00  0.00    -0.153 OA
BRANCH  20  28
ATOM     23  C   UNL     1      -2.049  -0.443  -0.812  0.00  0.00    +0.080 C 
ATOM     24  C   UNL     1      -2.475  -1.907  -0.961  0.00  0.00    +0.021 C 
ATOM     25  C   UNL     1      -3.966  -1.968  -1.301  0.00  0.00    +0.003 C 
ATOM     26  C   UNL     1      -4.218  -1.254  -2.631  0.00  0.00    +0.017 C 
ATOM     27  C   UNL     1      -3.812   0.217  -2.500  0.00  0.00    +0.110 C 
ATOM     28  N   UNL     1      -2.421   0.287  -2.031  0.00  0.00    -0.174 NA
BRANCH  23  30
ATOM     29  C   UNL     1      -0.138  -1.216   0.601  0.00  0.00    +0.005 C 
ATOM     30  C   UNL     1      -0.534  -0.368  -0.610  0.00  0.00    +0.017 C 
ENDBRANCH  23  30
ENDBRANCH  20  28
ENDBRANCH  14  20
ENDBRANCH   1  17
BRANCH   3  31
ATOM     31  C   UNL     1       3.884  -1.663  -5.439  0.00  0.00    +0.097 C 
BRANCH  31  32
ATOM     32  C   UNL     1       4.446  -2.418  -4.232  0.00  0.00    -0.060 C 
BRANCH  32  33
ATOM     33  N   UNL     1       5.036  -1.460  -3.288  0.00  0.00    +0.377 N 
ATOM     34  C   UNL     1       5.468  -2.170  -2.076  0.00  0.00    -0.097 C 
ATOM     35  C   UNL     1       6.194  -0.807  -3.912  0.00  0.00    -0.097 C 
ATOM     36  H   UNL     1       4.349  -0.763  -3.042  0.00  0.00    -0.083 HD
ENDBRANCH  32  33
ENDBRANCH  31  32
ENDBRANCH   3  31
TORSDOF 7
