REMARK  Name = ZINC12645979
REMARK  5 active torsions:
REMARK  status: ('A' for Active; 'I' for Inactive)
REMARK    1  A    between atoms: C_1  and  O_2
REMARK    2  A    between atoms: O_2  and  C_3
REMARK    3  A    between atoms: C_4  and  C_11
REMARK    4  A    between atoms: N_22  and  C_23
REMARK    5  A    between atoms: C_23  and  C_24
REMARK                            x       y       z     vdW  Elec       q    Type
REMARK                         _______ _______ _______ _____ _____    ______ ____
ROOT
ATOM      1  C   UNL     1      -3.626   0.967   3.727  0.00  0.00    +0.196 C 
ATOM      2  N   UNL     1      -3.869   1.221   5.149  0.00  0.00    -0.321 N 
ATOM      3  C   UNL     1      -2.796   1.594   5.951  0.00  0.00    +0.041 A 
ATOM      4  C   UNL     1      -2.746   1.283   7.299  0.00  0.00    +0.024 A 
ATOM      5  C   UNL     1      -1.654   1.674   8.050  0.00  0.00    +0.002 A 
ATOM      6  C   UNL     1      -0.610   2.374   7.466  0.00  0.00    +0.001 A 
ATOM      7  C   UNL     1      -0.646   2.693   6.124  0.00  0.00    +0.015 A 
ATOM      8  C   UNL     1      -1.741   2.307   5.355  0.00  0.00    +0.058 A 
ATOM      9  C   UNL     1      -1.831   2.624   3.919  0.00  0.00    +0.250 C 
ATOM     10  O   UNL     1      -1.077   3.438   3.420  0.00  0.00    -0.270 OA
ATOM     11  N   UNL     1      -2.760   2.002   3.163  0.00  0.00    -0.272 N 
ATOM     12  H   UNL     1      -4.760   1.133   5.522  0.00  0.00    +0.148 HD
ENDROOT
BRANCH   1  14
ATOM     13  C   UNL     1      -3.324  -1.429   4.401  0.00  0.00    +0.141 A 
ATOM     14  C   UNL     1      -2.964  -0.378   3.571  0.00  0.00    +0.034 A 
ATOM     15  C   UNL     1      -2.001  -0.565   2.598  0.00  0.00    +0.026 A 
ATOM     16  C   UNL     1      -1.389  -1.798   2.458  0.00  0.00    +0.020 A 
ATOM     17  C   UNL     1      -1.746  -2.848   3.284  0.00  0.00    +0.034 A 
ATOM     18  C   UNL     1      -2.712  -2.666   4.256  0.00  0.00    +0.061 A 
ATOM     19 BR   UNL     1      -3.201  -4.102   5.385  0.00  0.00    -0.046 Br
ATOM     20 BR   UNL     1      -0.067  -2.050   1.129  0.00  0.00    -0.050 Br
BRANCH  13  22
ATOM     21  C   UNL     1      -5.628  -1.509   4.981  0.00  0.00    +0.277 C 
ATOM     22  O   UNL     1      -4.275  -1.248   5.356  0.00  0.00    -0.494 OA
ENDBRANCH  13  22
ENDBRANCH   1  14
BRANCH  11  23
ATOM     23  C   UNL     1      -2.907   2.374   1.754  0.00  0.00    +0.141 C 
BRANCH  23  24
ATOM     24  C   UNL     1      -3.827   3.591   1.641  0.00  0.00    +0.136 C 
ATOM     25  C   UNL     1      -3.892   4.082   0.178  0.00  0.00    +0.035 C 
ATOM     26  C   UNL     1      -5.360   4.529  -0.003  0.00  0.00    +0.031 C 
ATOM     27  C   UNL     1      -6.008   4.256   1.372  0.00  0.00    +0.160 C 
ATOM     28  O   UNL     1      -5.188   3.229   1.971  0.00  0.00    -0.375 OA
ENDBRANCH  23  24
ENDBRANCH  11  23
TORSDOF 4
