REMARK  Name = ZINC59849816
REMARK  6 active torsions:
REMARK  status: ('A' for Active; 'I' for Inactive)
REMARK    1  A    between atoms: C_1  and  C_2
REMARK    2  A    between atoms: C_2  and  N_3
REMARK    3  A    between atoms: C_4  and  C_6
REMARK    4  A    between atoms: C_6  and  N_7
REMARK    5  A    between atoms: C_14  and  C_16
REMARK    6  A    between atoms: C_29  and  C_30
REMARK                            x       y       z     vdW  Elec       q    Type
REMARK                         _______ _______ _______ _____ _____    ______ ____
ROOT
ATOM      1  C   UNL     1       5.156  -7.249   3.346  0.00  0.00    +0.051 A 
ATOM      2  C   UNL     1       4.944  -8.658   3.678  0.00  0.00    +0.013 A 
ATOM      3  C   UNL     1       4.177  -9.496   2.862  0.00  0.00    +0.011 A 
ATOM      4  C   UNL     1       4.006 -10.803   3.211  0.00  0.00    +0.001 A 
ATOM      5  C   UNL     1       4.586 -11.314   4.370  0.00  0.00    +0.002 A 
ATOM      6  C   UNL     1       5.338 -10.526   5.186  0.00  0.00    +0.028 A 
ATOM      7  C   UNL     1       5.537  -9.171   4.859  0.00  0.00    +0.072 A 
ATOM      8  N   UNL     1       6.268  -8.375   5.636  0.00  0.00    -0.247 NA
ATOM      9  C   UNL     1       6.479  -7.092   5.363  0.00  0.00    +0.072 A 
ATOM     10  C   UNL     1       5.936  -6.497   4.212  0.00  0.00    -0.009 A 
ATOM     11  C   UNL     1       6.341  -5.045   4.149  0.00  0.00    +0.043 C 
ATOM     12  C   UNL     1       7.209  -4.786   5.388  0.00  0.00    +0.042 C 
ATOM     13  C   UNL     1       7.260  -6.100   6.127  0.00  0.00    -0.021 C 
ATOM     14  C   UNL     1       7.918  -6.332   7.276  0.00  0.00    +0.013 C 
ENDROOT
BRANCH   1  22
ATOM     15  N   UNL     1       2.495  -3.263   1.857  0.00  0.00    +0.386 N 
ATOM     16  C   UNL     1       2.819  -3.607   3.240  0.00  0.00    -0.077 C 
ATOM     17  C   UNL     1       1.915  -4.729   3.700  0.00  0.00    +0.000 C 
ATOM     18  C   UNL     1       2.615  -6.080   3.467  0.00  0.00    +0.106 C 
ATOM     19  N   UNL     1       3.343  -6.086   2.181  0.00  0.00    -0.299 N 
ATOM     20  C   UNL     1       2.789  -5.506   0.975  0.00  0.00    +0.089 C 
ATOM     21  C   UNL     1       3.185  -4.015   0.879  0.00  0.00    -0.059 C 
ATOM     22  C   UNL     1       4.566  -6.650   2.129  0.00  0.00    +0.248 C 
ATOM     23  O   UNL     1       5.183  -6.667   1.083  0.00  0.00    -0.270 OA
ATOM     24  H   UNL     1       1.504  -3.398   1.721  0.00  0.00    -0.081 HD
BRANCH  15  25
ATOM     25  C   UNL     1       2.801  -1.841   1.649  0.00  0.00    +0.019 C 
BRANCH  25  27
ATOM     26  N   UNL     1       2.406  -0.122  -0.085  0.00  0.00    -0.317 N 
ATOM     27  C   UNL     1       2.245  -1.397   0.320  0.00  0.00    +0.196 C 
ATOM     28  O   UNL     1       1.652  -2.187  -0.384  0.00  0.00    -0.278 OA
ATOM     29  H   UNL     1       2.880   0.510   0.478  0.00  0.00    +0.149 HD
BRANCH  26  31
ATOM     30  C   UNL     1       2.183   1.790  -1.593  0.00  0.00    +0.024 C 
ATOM     31  C   UNL     1       1.865   0.310  -1.377  0.00  0.00    +0.101 C 
ENDBRANCH  26  31
ENDBRANCH  25  27
ENDBRANCH  15  25
ENDBRANCH   1  22
BRANCH  14  32
ATOM     32  C   UNL     1       8.544  -5.215   8.005  0.00  0.00    -0.025 A 
ATOM     33  C   UNL     1       7.871  -3.997   8.136  0.00  0.00    +0.008 A 
ATOM     34  C   UNL     1       8.463  -2.956   8.820  0.00  0.00    +0.001 A 
ATOM     35  C   UNL     1       9.721  -3.115   9.374  0.00  0.00    +0.000 A 
ATOM     36  C   UNL     1      10.394  -4.317   9.248  0.00  0.00    +0.001 A 
ATOM     37  C   UNL     1       9.812  -5.369   8.572  0.00  0.00    +0.008 A 
ENDBRANCH  14  32
TORSDOF 5
