REMARK  Name = ZINC34829959
REMARK  7 active torsions:
REMARK  status: ('A' for Active; 'I' for Inactive)
REMARK    1  A    between atoms: C_1  and  C_2
REMARK    2  A    between atoms: C_5  and  C_8
REMARK    3  A    between atoms: N_17  and  C_18
REMARK    4  A    between atoms: C_18  and  C_19
REMARK    5  A    between atoms: C_25  and  C_28
REMARK    6  A    between atoms: N_31  and  C_32
REMARK    7  A    between atoms: C_35  and  C_38
REMARK                            x       y       z     vdW  Elec       q    Type
REMARK                         _______ _______ _______ _____ _____    ______ ____
ROOT
ATOM      1  C   UNL     1      -3.086  -4.897   1.347  0.00  0.00    +0.199 C 
ATOM      2  O   UNL     1      -2.715  -5.851   1.998  0.00  0.00    -0.278 OA
ATOM      3  N   UNL     1      -4.402  -4.629   1.236  0.00  0.00    -0.300 N 
ATOM      4  C   UNL     1      -4.867  -3.480   0.446  0.00  0.00    +0.126 C 
ATOM      5  C   UNL     1      -5.749  -2.597   1.338  0.00  0.00    +0.128 C 
ATOM      6  N   UNL     1      -6.745  -3.448   2.004  0.00  0.00    -0.280 N 
ATOM      7  C   UNL     1      -6.280  -4.597   2.793  0.00  0.00    +0.092 C 
ATOM      8  C   UNL     1      -5.399  -5.483   1.897  0.00  0.00    +0.130 C 
ATOM      9  C   UNL     1      -5.470  -4.102   3.993  0.00  0.00    +0.030 C 
ATOM     10  C   UNL     1      -8.061  -3.180   1.892  0.00  0.00    +0.307 C 
ATOM     11  O   UNL     1      -8.880  -3.945   2.365  0.00  0.00    -0.252 OA
ATOM     12  N   UNL     1      -8.470  -2.064   1.258  0.00  0.00    -0.269 N 
ATOM     13  H   UNL     1      -7.826  -1.507   0.793  0.00  0.00    +0.156 HD
ENDROOT
BRANCH  12  14
ATOM     14  C   UNL     1      -9.824  -1.708   1.269  0.00  0.00    +0.035 A 
ATOM     15  C   UNL     1     -10.607  -1.988   2.381  0.00  0.00    +0.023 A 
ATOM     16  C   UNL     1     -11.943  -1.636   2.389  0.00  0.00    +0.005 A 
ATOM     17  C   UNL     1     -12.499  -1.004   1.292  0.00  0.00    -0.050 A 
ATOM     18  C   UNL     1     -11.722  -0.724   0.183  0.00  0.00    +0.005 A 
ATOM     19  C   UNL     1     -10.384  -1.069   0.171  0.00  0.00    +0.023 A 
ATOM     20  C   UNL     1     -13.957  -0.621   1.305  0.00  0.00    +0.044 C 
ENDBRANCH  12  14
BRANCH   1  21
ATOM     21  C   UNL     1      -2.076  -4.012   0.664  0.00  0.00    +0.020 C 
BRANCH  21  30
ATOM     22  C   UNL     1       0.260  -3.580   0.369  0.00  0.00    -0.005 C 
ATOM     23  C   UNL     1       1.658  -4.158   0.566  0.00  0.00    -0.047 A 
ATOM     24  C   UNL     1       2.828  -3.404   0.513  0.00  0.00    +0.010 A 
ATOM     25  C   UNL     1       4.027  -4.001   0.703  0.00  0.00    +0.045 A 
ATOM     26  S   UNL     1       3.554  -5.704   0.971  0.00  0.00    -0.101 S 
ATOM     27  C   UNL     1       1.804  -5.491   0.810  0.00  0.00    -0.010 A 
ATOM     28  C   UNL     1       0.707  -6.500   0.906  0.00  0.00    +0.024 C 
ATOM     29  C   UNL     1      -0.571  -5.851   0.349  0.00  0.00    -0.072 C 
ATOM     30  N   UNL     1      -0.723  -4.512   0.936  0.00  0.00    +0.393 N 
ATOM     31  H   UNL     1      -0.586  -4.572   1.934  0.00  0.00    -0.080 HD
BRANCH  22  36
ATOM     32  C   UNL     1      -0.130   1.518   3.063  0.00  0.00    +0.044 C 
ATOM     33  C   UNL     1      -0.028   0.188   2.360  0.00  0.00    -0.050 A 
ATOM     34  C   UNL     1       0.179   0.142   0.994  0.00  0.00    +0.003 A 
ATOM     35  C   UNL     1       0.273  -1.077   0.350  0.00  0.00    +0.002 A 
ATOM     36  C   UNL     1       0.159  -2.251   1.072  0.00  0.00    -0.057 A 
ATOM     37  C   UNL     1      -0.047  -2.205   2.438  0.00  0.00    +0.002 A 
ATOM     38  C   UNL     1      -0.136  -0.985   3.083  0.00  0.00    +0.003 A 
ENDBRANCH  22  36
ENDBRANCH  21  30
ENDBRANCH   1  21
TORSDOF 4
