REMARK  Name = ZINC14584742
REMARK  7 active torsions:
REMARK  status: ('A' for Active; 'I' for Inactive)
REMARK    1  A    between atoms: C_1  and  C_2
REMARK    2  A    between atoms: C_2  and  N_3
REMARK    3  A    between atoms: N_3  and  C_4
REMARK    4  A    between atoms: C_5  and  N_20
REMARK    5  A    between atoms: N_6  and  C_13
REMARK    6  A    between atoms: C_13  and  C_14
REMARK    7  A    between atoms: C_21  and  C_23
REMARK                            x       y       z     vdW  Elec       q    Type
REMARK                         _______ _______ _______ _____ _____    ______ ____
ROOT
ATOM      1  C   UNL     1       1.311   2.251  -0.147  0.00  0.00    +0.140 A 
ATOM      2  C   UNL     1       2.549   1.646  -0.213  0.00  0.00    +0.128 A 
ATOM      3  N   UNL     1       2.626   0.304  -0.506  0.00  0.00    -0.276 N 
ATOM      4  C   UNL     1       1.507  -0.410  -0.726  0.00  0.00    +0.331 A 
ATOM      5  O   UNL     1       1.596  -1.595  -0.984  0.00  0.00    -0.246 OA
ATOM      6  N   UNL     1       0.292   0.163  -0.667  0.00  0.00    -0.273 N 
ATOM      7  H   UNL     1      -0.524  -0.390  -0.834  0.00  0.00    +0.173 HD
ATOM      8  C   UNL     1       0.161   1.474  -0.384  0.00  0.00    +0.277 A 
ATOM      9  O   UNL     1      -0.945   1.984  -0.338  0.00  0.00    -0.266 OA
ENDROOT
BRANCH   1  10
ATOM     10  N   UNL     1       1.199   3.625   0.150  0.00  0.00    -0.258 N 
ATOM     11  C   UNL     1       0.606   4.021   1.294  0.00  0.00    +0.286 C 
ATOM     12  O   UNL     1       0.099   3.197   2.033  0.00  0.00    -0.266 OA
BRANCH  11  13
ATOM     13  C   UNL     1       0.572   5.444   1.648  0.00  0.00    +0.190 A 
ATOM     14  C   UNL     1       0.111   5.968   2.821  0.00  0.00    +0.054 A 
ATOM     15  C   UNL     1       0.266   7.360   2.730  0.00  0.00    +0.042 A 
ATOM     16  C   UNL     1       0.807   7.622   1.520  0.00  0.00    +0.196 A 
ATOM     17  O   UNL     1       0.995   6.464   0.873  0.00  0.00    -0.458 OA
ENDBRANCH  11  13
BRANCH  10  19
ATOM     18  C   UNL     1       0.596   5.131  -1.680  0.00  0.00    +0.025 C 
ATOM     19  C   UNL     1       1.727   4.622  -0.785  0.00  0.00    +0.111 C 
ENDBRANCH  10  19
ENDBRANCH   1  10
BRANCH   2  20
ATOM     20  N   UNL     1       3.692   2.375   0.013  0.00  0.00    -0.343 N 
ATOM     21  H   UNL     1       4.554   1.930   0.037  0.00  0.00    +0.144 HD
ATOM     22  H   UNL     1       3.637   3.334   0.147  0.00  0.00    +0.144 HD
ENDBRANCH   2  20
BRANCH   3  23
ATOM     23  C   UNL     1       3.934  -0.352  -0.579  0.00  0.00    +0.163 C 
BRANCH  23  24
ATOM     24  C   UNL     1       4.459  -0.269  -1.990  0.00  0.00    -0.028 A 
ATOM     25  C   UNL     1       4.169  -1.273  -2.895  0.00  0.00    +0.005 A 
ATOM     26  C   UNL     1       4.647  -1.195  -4.190  0.00  0.00    +0.000 A 
ATOM     27  C   UNL     1       5.422  -0.118  -4.577  0.00  0.00    +0.000 A 
ATOM     28  C   UNL     1       5.716   0.883  -3.670  0.00  0.00    +0.000 A 
ATOM     29  C   UNL     1       5.235   0.808  -2.376  0.00  0.00    +0.005 A 
ENDBRANCH  23  24
ENDBRANCH   3  23
TORSDOF 6
