REMARK  Name = ZINC59364347
REMARK  7 active torsions:
REMARK  status: ('A' for Active; 'I' for Inactive)
REMARK    1  A    between atoms: C_4  and  C_7
REMARK    2  A    between atoms: C_7  and  C_8
REMARK    3  A    between atoms: C_10  and  C_18
REMARK    4  A    between atoms: C_12  and  N_14
REMARK    5  A    between atoms: N_19  and  C_20
REMARK    6  A    between atoms: C_23  and  O_35
REMARK    7  A    between atoms: C_24  and  C_26
REMARK                            x       y       z     vdW  Elec       q    Type
REMARK                         _______ _______ _______ _____ _____    ______ ____
ROOT
ATOM      1  C   UNL     1       6.209   0.727   4.030  0.00  0.00    +0.123 C 
ATOM      2  N   UNL     1       6.598   0.506   5.254  0.00  0.00    -0.255 NA
ENDROOT
BRANCH   1   5
ATOM      3  C   UNL     1       4.164  -0.959   1.377  0.00  0.00    -0.040 A 
ATOM      4  C   UNL     1       4.950  -0.028   2.022  0.00  0.00    +0.017 A 
ATOM      5  C   UNL     1       5.370  -0.261   3.335  0.00  0.00    +0.042 A 
ATOM      6  C   UNL     1       4.988  -1.445   3.986  0.00  0.00    +0.217 A 
ATOM      7  C   UNL     1       4.198  -2.369   3.321  0.00  0.00    +0.173 A 
ATOM      8  C   UNL     1       3.785  -2.123   2.025  0.00  0.00    +0.040 A 
ATOM      9  O   UNL     1       5.390  -1.683   5.260  0.00  0.00    -0.285 OA
BRANCH   7  10
ATOM     10  N   UNL     1       3.792  -3.619   4.002  0.00  0.00    +0.060 N 
ATOM     11  O   UNL     1       3.103  -4.426   3.422  0.00  0.00    -0.126 OA
ATOM     12  O   UNL     1       4.149  -3.833   5.137  0.00  0.00    -0.126 OA
ENDBRANCH   7  10
BRANCH   3  13
ATOM     13  C   UNL     1       3.711  -0.707  -0.038  0.00  0.00    +0.070 C 
BRANCH  13  17
ATOM     14  C   UNL     1      -0.017   1.378   0.010  0.00  0.00    +0.000 A 
ATOM     15  C   UNL     1       1.171   2.086   0.002  0.00  0.00    +0.000 A 
ATOM     16  C   UNL     1       2.377   1.411  -0.013  0.00  0.00    +0.004 A 
ATOM     17  C   UNL     1       2.396   0.029  -0.020  0.00  0.00    -0.043 A 
ATOM     18  C   UNL     1       1.208  -0.679  -0.012  0.00  0.00    +0.004 A 
ATOM     19  C   UNL     1       0.002  -0.004   0.002  0.00  0.00    +0.000 A 
ENDBRANCH  13  17
ENDBRANCH   3  13
ENDBRANCH   1   5
BRANCH   2  20
ATOM     20  C   UNL     1       7.379   1.426   5.901  0.00  0.00    +0.065 A 
ATOM     21  C   UNL     1       8.464   2.011   5.240  0.00  0.00    +0.031 A 
ATOM     22  C   UNL     1       9.252   2.938   5.888  0.00  0.00    +0.048 A 
ATOM     23  C   UNL     1       8.975   3.297   7.199  0.00  0.00    +0.127 A 
ATOM     24  C   UNL     1       7.891   2.717   7.871  0.00  0.00    +0.051 A 
ATOM     25  C   UNL     1       7.089   1.784   7.216  0.00  0.00    +0.042 A 
BRANCH  24  26
ATOM     26  C   UNL     1       7.595   3.097   9.268  0.00  0.00    +0.113 A 
ATOM     27  N   UNL     1       6.636   2.662  10.056  0.00  0.00    -0.239 NA
ATOM     28  C   UNL     1       6.483   3.101  11.321  0.00  0.00    +0.079 A 
ATOM     29  C   UNL     1       5.502   2.718  12.267  0.00  0.00    +0.029 A 
ATOM     30  C   UNL     1       5.487   3.262  13.513  0.00  0.00    +0.002 A 
ATOM     31  C   UNL     1       6.423   4.206  13.908  0.00  0.00    +0.001 A 
ATOM     32  C   UNL     1       7.399   4.608  13.015  0.00  0.00    +0.017 A 
ATOM     33  C   UNL     1       7.424   4.065  11.754  0.00  0.00    +0.040 A 
ATOM     34  S   UNL     1       8.454   4.260  10.319  0.00  0.00    -0.067 S 
ENDBRANCH  24  26
BRANCH  23  35
ATOM     35  O   UNL     1       9.755   4.211   7.831  0.00  0.00    -0.506 OA
ATOM     36  H   UNL     1       9.455   5.124   7.726  0.00  0.00    +0.292 HD
ENDBRANCH  23  35
ENDBRANCH   2  20
TORSDOF 7
