REMARK  Name = ZINC08173305
REMARK  10 active torsions:
REMARK  status: ('A' for Active; 'I' for Inactive)
REMARK    1  A    between atoms: C_1  and  C_2
REMARK    2  A    between atoms: C_2  and  C_4
REMARK    3  A    between atoms: C_2  and  S_11
REMARK    4  A    between atoms: N_6  and  C_7
REMARK    5  A    between atoms: C_7  and  C_8
REMARK    6  A    between atoms: C_7  and  C_9
REMARK    7  A    between atoms: C_7  and  C_10
REMARK    8  A    between atoms: S_11  and  C_12
REMARK    9  A    between atoms: C_15  and  C_18
REMARK   10  A    between atoms: N_16  and  N_17
REMARK                            x       y       z     vdW  Elec       q    Type
REMARK                         _______ _______ _______ _____ _____    ______ ____
ROOT
ATOM      1  C   UNL     1       1.754   5.664   0.177  0.00  0.00    +0.209 A 
ATOM      2  N   UNL     1       0.485   5.572  -0.151  0.00  0.00    -0.121 NA
ATOM      3  N   UNL     1       0.143   4.338  -0.254  0.00  0.00    -0.127 NA
ATOM      4  C   UNL     1       1.171   3.565   0.011  0.00  0.00    +0.182 A 
ATOM      5  N   UNL     1       2.235   4.391   0.291  0.00  0.00    -0.224 N 
ENDROOT
BRANCH   4   6
ATOM      6  C   UNL     1       1.184   2.087   0.002  0.00  0.00    +0.022 A 
ATOM      7  C   UNL     1      -0.017   1.375   0.010  0.00  0.00    +0.012 A 
ATOM      8  C   UNL     1       0.002  -0.004   0.002  0.00  0.00    +0.002 A 
ATOM      9  C   UNL     1       1.208  -0.683  -0.013  0.00  0.00    +0.015 A 
ATOM     10  C   UNL     1       2.402   0.017  -0.021  0.00  0.00    +0.019 A 
ATOM     11  C   UNL     1       2.397   1.397  -0.013  0.00  0.00    +0.027 A 
ATOM     12 BR   UNL     1       4.045  -0.921  -0.042  0.00  0.00    -0.050 Br
ENDBRANCH   4   6
BRANCH   5  13
ATOM     13  N   UNL     1       3.508   4.016   0.617  0.00  0.00    -0.295 N 
ATOM     14  H   UNL     1       4.080   3.922  -0.208  0.00  0.00    +0.163 HD
ATOM     15  H   UNL     1       3.919   4.664   1.272  0.00  0.00    +0.163 HD
ENDBRANCH   5  13
BRANCH   1  16
ATOM     16  S   UNL     1       2.666   7.152   0.424  0.00  0.00    -0.072 S 
BRANCH  16  18
ATOM     17  C   UNL     1       0.934   8.275  -1.365  0.00  0.00    +0.029 C 
ATOM     18  C   UNL     1       1.369   8.372   0.098  0.00  0.00    +0.137 C 
BRANCH  18  19
ATOM     19  C   UNL     1       1.900   9.755   0.374  0.00  0.00    +0.227 C 
ATOM     20  O   UNL     1       3.092   9.972   0.307  0.00  0.00    -0.275 OA
ATOM     21  N   UNL     1       1.052  10.751   0.695  0.00  0.00    -0.310 N 
ATOM     22  H   UNL     1       0.099  10.578   0.749  0.00  0.00    +0.149 HD
BRANCH  21  23
ATOM     23  C   UNL     1       1.568  12.096   0.963  0.00  0.00    +0.026 C 
ATOM     24  C   UNL     1       2.299  12.618  -0.275  0.00  0.00    +0.031 C 
ATOM     25  C   UNL     1       0.405  13.031   1.302  0.00  0.00    +0.031 C 
ATOM     26  C   UNL     1       2.540  12.043   2.144  0.00  0.00    +0.031 C 
ENDBRANCH  21  23
ENDBRANCH  18  19
ENDBRANCH  16  18
ENDBRANCH   1  16
TORSDOF 6
