REMARK  Name = ZINC51328569
REMARK  7 active torsions:
REMARK  status: ('A' for Active; 'I' for Inactive)
REMARK    1  A    between atoms: C_4  and  N_21
REMARK    2  A    between atoms: C_5  and  C_7
REMARK    3  A    between atoms: C_7  and  C_9
REMARK    4  A    between atoms: C_7  and  O_20
REMARK    5  A    between atoms: C_9  and  S_10
REMARK    6  A    between atoms: S_10  and  C_11
REMARK    7  A    between atoms: C_17  and  N_19
REMARK                            x       y       z     vdW  Elec       q    Type
REMARK                         _______ _______ _______ _____ _____    ______ ____
ROOT
ATOM      1  C   UNL     1       1.372  -2.703   1.411  0.00  0.00    +0.113 C 
ENDROOT
BRANCH   1   2
ATOM      2  C   UNL     1       1.226  -2.187  -0.022  0.00  0.00    +0.156 C 
BRANCH   2   7
ATOM      3  C   UNL     1      -0.017   1.378   0.010  0.00  0.00    +0.000 A 
ATOM      4  C   UNL     1       1.170   2.089   0.002  0.00  0.00    +0.002 A 
ATOM      5  C   UNL     1       2.377   1.420  -0.013  0.00  0.00    +0.023 A 
ATOM      6  C   UNL     1       2.400   0.031  -0.021  0.00  0.00    +0.030 A 
ATOM      7  C   UNL     1       1.207  -0.680  -0.013  0.00  0.00    +0.002 A 
ATOM      8  C   UNL     1       0.002  -0.004   0.002  0.00  0.00    +0.008 A 
BRANCH   6   9
ATOM      9  N   UNL     1       3.620  -0.649  -0.036  0.00  0.00    -0.358 N 
ATOM     10  H   UNL     1       4.452  -0.152  -0.042  0.00  0.00    +0.142 HD
ATOM     11  H   UNL     1       3.634  -1.619  -0.042  0.00  0.00    +0.142 HD
ENDBRANCH   6   9
ENDBRANCH   2   7
BRANCH   2  12
ATOM     12  O   UNL     1       0.006  -2.676  -0.582  0.00  0.00    -0.386 OA
ATOM     13  H   UNL     1      -0.786  -2.403  -0.098  0.00  0.00    +0.210 HD
ENDBRANCH   2  12
ENDBRANCH   1   2
BRANCH   1  14
ATOM     14  S   UNL     1       1.544  -4.509   1.388  0.00  0.00    -0.085 S 
BRANCH  14  15
ATOM     15  C   UNL     1       1.701  -4.944   3.089  0.00  0.00    +0.171 A 
ATOM     16  N   UNL     1       1.855  -6.253   3.431  0.00  0.00    -0.302 N 
ATOM     17  H   UNL     1       1.878  -6.934   2.741  0.00  0.00    +0.171 HD
ATOM     18  C   UNL     1       1.976  -6.604   4.728  0.00  0.00    +0.254 A 
ATOM     19  O   UNL     1       2.116  -7.775   5.044  0.00  0.00    -0.268 OA
ATOM     20  C   UNL     1       1.941  -5.604   5.705  0.00  0.00    +0.113 A 
ATOM     21  C   UNL     1       1.781  -4.285   5.304  0.00  0.00    +0.124 A 
ATOM     22  N   UNL     1       1.671  -3.995   4.002  0.00  0.00    -0.209 NA
BRANCH  21  23
ATOM     23  N   UNL     1       1.742  -3.275   6.244  0.00  0.00    -0.343 N 
ATOM     24  H   UNL     1       1.826  -3.486   7.187  0.00  0.00    +0.144 HD
ATOM     25  H   UNL     1       1.631  -2.353   5.962  0.00  0.00    +0.144 HD
ENDBRANCH  21  23
ENDBRANCH  14  15
ENDBRANCH   1  14
TORSDOF 7
