REMARK  Name = ZINC66203261
REMARK  11 active torsions:
REMARK  status: ('A' for Active; 'I' for Inactive)
REMARK    1  A    between atoms: C_1  and  C_2
REMARK    2  A    between atoms: C_2  and  C_3
REMARK    3  A    between atoms: C_3  and  C_5
REMARK    4  A    between atoms: C_3  and  N_6
REMARK    5  A    between atoms: N_6  and  C_7
REMARK    6  A    between atoms: N_6  and  C_8
REMARK    7  A    between atoms: C_8  and  C_9
REMARK    8  A    between atoms: C_9  and  N_10
REMARK    9  A    between atoms: N_13  and  N_14
REMARK   10  A    between atoms: C_15  and  C_17
REMARK   11  A    between atoms: N_21  and  C_22
REMARK                            x       y       z     vdW  Elec       q    Type
REMARK                         _______ _______ _______ _____ _____    ______ ____
ROOT
ATOM      1  N   UNL     1      -1.260   2.975  -4.074  0.00  0.00    -0.300 N 
ATOM      2  C   UNL     1      -1.987   3.460  -5.100  0.00  0.00    +0.316 C 
ATOM      3  O   UNL     1      -2.635   2.704  -5.797  0.00  0.00    -0.251 OA
ATOM      4  N   UNL     1      -1.994   4.784  -5.354  0.00  0.00    -0.218 N 
ATOM      5  H   UNL     1      -0.743   3.578  -3.518  0.00  0.00    +0.150 HD
ATOM      6  H   UNL     1      -2.517   5.133  -6.093  0.00  0.00    +0.174 HD
ENDROOT
BRANCH   4   7
ATOM      7  N   UNL     1      -1.247   5.655  -4.551  0.00  0.00    -0.228 N 
ATOM      8  C   UNL     1      -1.254   6.979  -4.805  0.00  0.00    +0.277 C 
ATOM      9  O   UNL     1      -1.981   7.428  -5.671  0.00  0.00    -0.267 OA
ATOM     10  H   UNL     1      -0.724   5.306  -3.812  0.00  0.00    +0.173 HD
BRANCH   8  11
ATOM     11  C   UNL     1      -0.387   7.878  -4.036  0.00  0.00    +0.107 A 
ATOM     12  C   UNL     1       0.550   7.501  -3.097  0.00  0.00    +0.047 A 
ATOM     13  C   UNL     1       1.145   8.672  -2.617  0.00  0.00    +0.036 A 
ATOM     14  C   UNL     1       0.574   9.721  -3.257  0.00  0.00    +0.101 A 
ATOM     15  N   UNL     1      -0.355   9.251  -4.126  0.00  0.00    -0.345 N 
ATOM     16  C   UNL     1      -1.188  10.069  -5.011  0.00  0.00    +0.149 C 
ATOM     17 BR   UNL     1       2.504   8.773  -1.306  0.00  0.00    -0.049 Br
ENDBRANCH   8  11
ENDBRANCH   4   7
BRANCH   1  18
ATOM     18  C   UNL     1      -1.252   1.536  -3.798  0.00  0.00    +0.087 C 
BRANCH  18  19
ATOM     19  C   UNL     1      -0.356   1.253  -2.590  0.00  0.00    -0.060 C 
BRANCH  19  20
ATOM     20  N   UNL     1      -0.348  -0.189  -2.314  0.00  0.00    +0.381 N 
ATOM     21  C   UNL     1       0.256  -0.902  -3.447  0.00  0.00    -0.096 C 
ATOM     22  H   UNL     1      -1.295  -0.511  -2.180  0.00  0.00    -0.082 HD
BRANCH  20  23
ATOM     23  C   UNL     1       0.434  -0.450  -1.098  0.00  0.00    -0.072 C 
ATOM     24  C   UNL     1       1.897  -0.075  -1.343  0.00  0.00    -0.013 C 
BRANCH  23  26
ATOM     25  C   UNL     1      -1.102  -2.282  -0.370  0.00  0.00    +0.002 C 
ATOM     26  C   UNL     1       0.342  -1.935  -0.741  0.00  0.00    -0.019 C 
ENDBRANCH  23  26
ENDBRANCH  20  23
ENDBRANCH  19  20
ENDBRANCH  18  19
ENDBRANCH   1  18
TORSDOF 7
