REMARK  Name = ZINC53146463
REMARK  2 active torsions:
REMARK  status: ('A' for Active; 'I' for Inactive)
REMARK    1  A    between atoms: C_6  and  C_11
REMARK    2  A    between atoms: C_9  and  N_10
REMARK                            x       y       z     vdW  Elec       q    Type
REMARK                         _______ _______ _______ _____ _____    ______ ____
ROOT
ATOM      1  C   UNL     1       0.015   1.414   0.423  0.00  0.00    +0.028 A 
ATOM      2  C   UNL     1       1.171   2.100   0.222  0.00  0.00    +0.050 A 
ATOM      3  C   UNL     1       2.379   1.392   0.077  0.00  0.00    +0.161 A 
ATOM      4  N   UNL     1       3.634   1.768  -0.125  0.00  0.00    -0.129 NA
ATOM      5  N   UNL     1       4.393   0.731  -0.190  0.00  0.00    -0.128 NA
ATOM      6  C   UNL     1       3.677  -0.365  -0.035  0.00  0.00    +0.174 A 
ATOM      7  N   UNL     1       2.376   0.020   0.139  0.00  0.00    -0.281 N 
ATOM      8  C   UNL     1       1.211  -0.663   0.341  0.00  0.00    +0.117 A 
ATOM      9  C   UNL     1       0.040   0.005   0.483  0.00  0.00    +0.041 A 
ENDROOT
BRANCH   6  10
ATOM     10  C   UNL     1       4.186  -1.752  -0.048  0.00  0.00    +0.096 A 
ATOM     11  C   UNL     1       5.301  -2.098   0.721  0.00  0.00    +0.175 A 
ATOM     12  C   UNL     1       5.773  -3.398   0.705  0.00  0.00    +0.197 A 
ATOM     13  C   UNL     1       5.142  -4.358  -0.072  0.00  0.00    +0.199 A 
ATOM     14  C   UNL     1       4.035  -4.021  -0.837  0.00  0.00    +0.197 A 
ATOM     15  C   UNL     1       3.550  -2.726  -0.824  0.00  0.00    +0.175 A 
ATOM     16  F   UNL     1       2.468  -2.400  -1.565  0.00  0.00    -0.202 F 
ATOM     17  F   UNL     1       3.426  -4.961  -1.592  0.00  0.00    -0.199 F 
ATOM     18  F   UNL     1       5.607  -5.626  -0.084  0.00  0.00    -0.199 F 
ATOM     19  F   UNL     1       6.851  -3.733   1.447  0.00  0.00    -0.199 F 
ATOM     20  F   UNL     1       5.917  -1.163   1.478  0.00  0.00    -0.202 F 
ENDBRANCH   6  10
BRANCH   9  21
ATOM     21  N   UNL     1      -1.150  -0.706   0.689  0.00  0.00    -0.357 N 
ATOM     22  H   UNL     1      -1.988  -0.229   0.791  0.00  0.00    +0.142 HD
ATOM     23  H   UNL     1      -1.134  -1.675   0.731  0.00  0.00    +0.142 HD
ENDBRANCH   9  21
TORSDOF 2
