REMARK  Name = ZINC08809434
REMARK  4 active torsions:
REMARK  status: ('A' for Active; 'I' for Inactive)
REMARK    1  A    between atoms: C_12  and  C_16
REMARK    2  A    between atoms: C_19  and  C_21
REMARK    3  A    between atoms: C_21  and  C_30
REMARK    4  A    between atoms: C_22  and  C_23
REMARK                            x       y       z     vdW  Elec       q    Type
REMARK                         _______ _______ _______ _____ _____    ______ ____
ROOT
ATOM      1  C   UNL     1      -2.751   8.692  -0.925  0.00  0.00    +0.086 A 
ATOM      2  C   UNL     1      -2.382   9.299   0.250  0.00  0.00    +0.075 A 
ATOM      3  S   UNL     1      -3.888   9.128   1.198  0.00  0.00    -0.074 S 
ATOM      4  C   UNL     1      -4.843   8.278  -0.050  0.00  0.00    +0.119 A 
ATOM      5  N   UNL     1      -3.971   8.203  -1.045  0.00  0.00    -0.238 NA
ENDROOT
BRANCH   1  17
ATOM      6  C   UNL     1      -2.132   6.086  -7.986  0.00  0.00    +0.001 A 
ATOM      7  C   UNL     1      -3.094   6.143  -6.981  0.00  0.00    +0.001 A 
ATOM      8  C   UNL     1      -2.815   6.721  -5.777  0.00  0.00    +0.009 A 
ATOM      9  C   UNL     1      -1.551   7.274  -5.553  0.00  0.00    -0.007 A 
ATOM     10  C   UNL     1      -0.572   7.223  -6.573  0.00  0.00    -0.017 A 
ATOM     11  C   UNL     1      -0.891   6.615  -7.798  0.00  0.00    +0.008 A 
ATOM     12  C   UNL     1       0.700   7.782  -6.342  0.00  0.00    +0.012 A 
ATOM     13  C   UNL     1       1.002   8.369  -5.157  0.00  0.00    +0.047 A 
ATOM     14  C   UNL     1       0.074   8.448  -4.113  0.00  0.00    +0.140 A 
ATOM     15  C   UNL     1      -1.209   7.912  -4.280  0.00  0.00    +0.026 A 
ATOM     16  C   UNL     1      -2.155   7.984  -3.235  0.00  0.00    +0.029 A 
ATOM     17  C   UNL     1      -1.792   8.593  -2.049  0.00  0.00    +0.086 A 
ATOM     18  C   UNL     1      -0.438   9.139  -1.926  0.00  0.00    +0.347 A 
ATOM     19  O   UNL     1      -0.092   9.680  -0.892  0.00  0.00    -0.244 OA
ATOM     20  O   UNL     1       0.423   9.042  -2.952  0.00  0.00    -0.422 OA
ENDBRANCH   1  17
BRANCH   4  21
ATOM     21  C   UNL     1      -6.234   7.793   0.009  0.00  0.00    +0.084 C 
ATOM     22  C   UNL     1      -7.255   8.674   0.216  0.00  0.00    +0.032 C 
BRANCH  22  23
ATOM     23  C   UNL     1      -6.990  10.116   0.222  0.00  0.00    +0.011 A 
ATOM     24  C   UNL     1      -5.957  10.646  -0.563  0.00  0.00    +0.011 A 
ATOM     25  C   UNL     1      -5.717  12.002  -0.555  0.00  0.00    +0.001 A 
ATOM     26  C   UNL     1      -6.487  12.843   0.232  0.00  0.00    +0.003 A 
ATOM     27  C   UNL     1      -7.505  12.331   1.015  0.00  0.00    +0.039 A 
ATOM     28  C   UNL     1      -7.764  10.973   1.017  0.00  0.00    +0.131 A 
ATOM     29  F   UNL     1      -8.759  10.474   1.782  0.00  0.00    -0.205 F 
ENDBRANCH  22  23
BRANCH  21  30
ATOM     30  C   UNL     1      -6.514   6.398  -0.151  0.00  0.00    +0.102 C 
ATOM     31  N   UNL     1      -6.736   5.291  -0.278  0.00  0.00    -0.191 NA
ENDBRANCH  21  30
ENDBRANCH   4  21
TORSDOF 4
