REMARK  Name = ZINC08474184
REMARK  10 active torsions:
REMARK  status: ('A' for Active; 'I' for Inactive)
REMARK    1  A    between atoms: C_1  and  C_2
REMARK    2  A    between atoms: C_5  and  N_9
REMARK    3  A    between atoms: C_6  and  C_8
REMARK    4  A    between atoms: C_10  and  C_12
REMARK    5  A    between atoms: C_12  and  C_14
REMARK    6  A    between atoms: C_12  and  N_61
REMARK    7  A    between atoms: N_17  and  S_20
REMARK    8  A    between atoms: S_20  and  C_23
REMARK    9  A    between atoms: C_26  and  C_30
REMARK   10  A    between atoms: C_28  and  C_29
REMARK                            x       y       z     vdW  Elec       q    Type
REMARK                         _______ _______ _______ _____ _____    ______ ____
ROOT
ATOM      1  C   UNL     1       3.597   2.237  -1.430  0.00  0.00    -0.060 C 
ATOM      2  C   UNL     1       4.558   3.427  -1.329  0.00  0.00    +0.091 C 
ATOM      3  N   UNL     1       5.840   2.947  -0.791  0.00  0.00    -0.180 NA
ATOM      4  C   UNL     1       5.822   2.150   0.445  0.00  0.00    +0.091 C 
ATOM      5  C   UNL     1       4.811   1.011   0.274  0.00  0.00    -0.060 C 
ATOM      6  N   UNL     1       3.503   1.589  -0.104  0.00  0.00    +0.389 N 
ATOM      7  H   UNL     1       3.237   2.294   0.593  0.00  0.00    -0.081 HD
ENDROOT
BRANCH   3   8
ATOM      8  S   UNL     1       7.267   3.296  -1.556  0.00  0.00    +0.061 S 
ATOM      9  O   UNL     1       7.085   4.549  -2.202  0.00  0.00    -0.153 OA
ATOM     10  O   UNL     1       8.302   3.071  -0.609  0.00  0.00    -0.153 OA
BRANCH   8  11
ATOM     11  C   UNL     1       7.481   2.099  -2.830  0.00  0.00    +0.108 A 
ATOM     12  C   UNL     1       7.427   2.484  -4.157  0.00  0.00    +0.029 A 
ATOM     13  C   UNL     1       7.595   1.544  -5.157  0.00  0.00    +0.005 A 
ATOM     14  C   UNL     1       7.819   0.220  -4.830  0.00  0.00    -0.050 A 
ATOM     15  C   UNL     1       7.874  -0.165  -3.504  0.00  0.00    +0.008 A 
ATOM     16  C   UNL     1       7.710   0.775  -2.504  0.00  0.00    -0.024 A 
ATOM     17  C   UNL     1       7.776   0.357  -1.058  0.00  0.00    +0.046 C 
ATOM     18  C   UNL     1       8.003  -0.804  -5.920  0.00  0.00    +0.044 C 
ENDBRANCH   8  11
ENDBRANCH   3   8
BRANCH   6  19
ATOM     19  C   UNL     1       2.473   0.530  -0.132  0.00  0.00    +0.017 C 
ATOM     20  C   UNL     1       2.796  -0.506  -1.210  0.00  0.00    -0.004 C 
BRANCH  19  22
ATOM     21  N   UNL     1       0.028   0.394  -0.482  0.00  0.00    -0.287 N 
ATOM     22  C   UNL     1       1.136   1.160  -0.425  0.00  0.00    +0.203 C 
ATOM     23  O   UNL     1       1.056   2.356  -0.610  0.00  0.00    -0.277 OA
ATOM     24  H   UNL     1       0.102  -0.571  -0.412  0.00  0.00    +0.155 HD
BRANCH  21  29
ATOM     25  C   UNL     1      -5.059   2.810  -1.161  0.00  0.00    +0.044 C 
ATOM     26  C   UNL     1      -3.708   2.168  -0.980  0.00  0.00    -0.050 A 
ATOM     27  C   UNL     1      -2.668   2.893  -0.429  0.00  0.00    +0.005 A 
ATOM     28  C   UNL     1      -1.428   2.308  -0.262  0.00  0.00    +0.024 A 
ATOM     29  C   UNL     1      -1.227   0.989  -0.649  0.00  0.00    +0.036 A 
ATOM     30  C   UNL     1      -2.272   0.265  -1.206  0.00  0.00    -0.029 A 
ATOM     31  C   UNL     1      -3.511   0.855  -1.366  0.00  0.00    +0.008 A 
ATOM     32  C   UNL     1      -2.057  -1.164  -1.633  0.00  0.00    +0.045 C 
ENDBRANCH  21  29
ENDBRANCH  19  22
ENDBRANCH   6  19
TORSDOF 5
