REMARK  Name = ZINC18350563
REMARK  8 active torsions:
REMARK  status: ('A' for Active; 'I' for Inactive)
REMARK    1  A    between atoms: C_1  and  C_2
REMARK    2  A    between atoms: N_11  and  C_15
REMARK    3  A    between atoms: C_15  and  C_16
REMARK    4  A    between atoms: N_18  and  C_19
REMARK    5  A    between atoms: C_22  and  S_25
REMARK    6  A    between atoms: S_25  and  N_28
REMARK    7  A    between atoms: C_30  and  C_37
REMARK    8  A    between atoms: C_33  and  C_36
REMARK                            x       y       z     vdW  Elec       q    Type
REMARK                         _______ _______ _______ _____ _____    ______ ____
ROOT
ATOM      1  C   UNL     1       1.159   2.288   6.941  0.00  0.00    +0.235 C 
ATOM      2  O   UNL     1       1.583   2.755   7.976  0.00  0.00    -0.274 OA
ATOM      3  N   UNL     1       1.032   0.953   6.806  0.00  0.00    -0.284 N 
ATOM      4  H   UNL     1       0.630   0.582   6.005  0.00  0.00    +0.155 HD
ENDROOT
BRANCH   3   5
ATOM      5  C   UNL     1       1.480   0.102   7.823  0.00  0.00    +0.034 A 
ATOM      6  C   UNL     1       2.041  -1.128   7.504  0.00  0.00    +0.025 A 
ATOM      7  C   UNL     1       2.482  -1.966   8.510  0.00  0.00    +0.030 A 
ATOM      8  C   UNL     1       2.364  -1.581   9.833  0.00  0.00    +0.106 A 
ATOM      9  C   UNL     1       1.805  -0.358  10.154  0.00  0.00    +0.030 A 
ATOM     10  C   UNL     1       1.368   0.487   9.152  0.00  0.00    +0.025 A 
BRANCH   8  11
ATOM     11  S   UNL     1       2.928  -2.653  11.113  0.00  0.00    +0.061 S 
ATOM     12  O   UNL     1       2.208  -2.299  12.286  0.00  0.00    -0.153 OA
ATOM     13  O   UNL     1       2.911  -3.970  10.577  0.00  0.00    -0.153 OA
BRANCH  11  14
ATOM     14  N   UNL     1       4.515  -2.280  11.400  0.00  0.00    -0.176 NA
ATOM     15  C   UNL     1       5.589  -2.955  10.659  0.00  0.00    +0.112 C 
ATOM     16  C   UNL     1       6.490  -1.893  10.020  0.00  0.00    +0.002 C 
ATOM     17  C   UNL     1       6.983  -0.930  11.102  0.00  0.00    +0.009 C 
ATOM     18  C   UNL     1       5.785  -0.225  11.743  0.00  0.00    +0.002 C 
ATOM     19  C   UNL     1       4.877  -1.263  12.398  0.00  0.00    +0.112 C 
ATOM     20  C   UNL     1       6.281   0.763  12.802  0.00  0.00    +0.009 C 
ATOM     21  C   UNL     1       7.689  -2.574   9.356  0.00  0.00    +0.009 C 
ENDBRANCH  11  14
ENDBRANCH   8  11
ENDBRANCH   3   5
BRANCH   1  22
ATOM     22  C   UNL     1       0.774   3.199   5.804  0.00  0.00    +0.214 C 
BRANCH  22  32
ATOM     23  C   UNL     1       1.079   7.396   4.338  0.00  0.00    +0.010 C 
ATOM     24  C   UNL     1       2.082   7.687   5.456  0.00  0.00    +0.018 C 
ATOM     25  C   UNL     1       1.812   9.078   6.034  0.00  0.00    +0.006 C 
ATOM     26  C   UNL     1       2.803   9.360   7.166  0.00  0.00    +0.000 C 
ATOM     27  C   UNL     1       2.629   8.315   8.270  0.00  0.00    +0.003 C 
ATOM     28  C   UNL     1       2.901   6.921   7.700  0.00  0.00    +0.035 C 
ATOM     29  C   UNL     1       1.934   6.641   6.555  0.00  0.00    +0.115 C 
ATOM     30  C   UNL     1       2.162   5.254   5.999  0.00  0.00    +0.247 C 
ATOM     31  O   UNL     1       3.173   4.827   5.485  0.00  0.00    -0.273 OA
ATOM     32  N   UNL     1       1.003   4.592   6.196  0.00  0.00    -0.215 N 
ATOM     33  C   UNL     1       0.089   5.366   6.794  0.00  0.00    +0.310 C 
ATOM     34  O   UNL     1      -1.033   4.992   7.076  0.00  0.00    -0.252 OA
ATOM     35  N   UNL     1       0.551   6.605   7.048  0.00  0.00    -0.285 N 
ATOM     36  H   UNL     1       0.067   7.330   7.472  0.00  0.00    +0.151 HD
ENDBRANCH  22  32
ENDBRANCH   1  22
TORSDOF 5
