REMARK  Name = ZINC05398078
REMARK  8 active torsions:
REMARK  status: ('A' for Active; 'I' for Inactive)
REMARK    1  A    between atoms: C_4  and  S_7
REMARK    2  A    between atoms: S_7  and  N_10
REMARK    3  A    between atoms: C_14  and  C_17
REMARK    4  A    between atoms: N_19  and  C_20
REMARK    5  A    between atoms: C_20  and  C_22
REMARK    6  A    between atoms: C_20  and  C_29
REMARK    7  A    between atoms: C_22  and  C_23
REMARK    8  A    between atoms: C_32  and  C_34
REMARK                            x       y       z     vdW  Elec       q    Type
REMARK                         _______ _______ _______ _____ _____    ______ ____
ROOT
ATOM      1  N   UNL     1       1.965   4.044  -2.732  0.00  0.00    -0.173 NA
ATOM      2  C   UNL     1       2.823   3.115  -3.481  0.00  0.00    +0.128 C 
ATOM      3  C   UNL     1       4.258   3.646  -3.465  0.00  0.00    +0.125 C 
ATOM      4  N   UNL     1       4.239   5.063  -3.854  0.00  0.00    -0.287 N 
ATOM      5  C   UNL     1       3.385   5.993  -3.102  0.00  0.00    +0.177 C 
ATOM      6  C   UNL     1       1.946   5.461  -3.121  0.00  0.00    +0.141 C 
ATOM      7  C   UNL     1       4.992   5.502  -4.882  0.00  0.00    +0.219 C 
ATOM      8  O   UNL     1       4.910   6.657  -5.243  0.00  0.00    -0.275 OA
ENDROOT
BRANCH   7   9
ATOM      9  C   UNL     1       5.936   4.559  -5.581  0.00  0.00    +0.075 C 
ATOM     10  C   UNL     1       7.237   4.454  -4.783  0.00  0.00    +0.013 C 
ATOM     11  C   UNL     1       8.196   3.496  -5.493  0.00  0.00    +0.001 C 
ATOM     12  C   UNL     1       8.499   4.026  -6.896  0.00  0.00    +0.000 C 
ATOM     13  C   UNL     1       7.199   4.131  -7.694  0.00  0.00    +0.001 C 
ATOM     14  C   UNL     1       6.240   5.089  -6.984  0.00  0.00    +0.013 C 
ENDBRANCH   7   9
BRANCH   5  15
ATOM     15  C   UNL     1       3.870   6.087  -1.678  0.00  0.00    +0.235 C 
ATOM     16  O   UNL     1       4.844   5.455  -1.326  0.00  0.00    -0.274 OA
ATOM     17  N   UNL     1       3.223   6.874  -0.796  0.00  0.00    -0.302 N 
ATOM     18  H   UNL     1       2.444   7.379  -1.077  0.00  0.00    +0.150 HD
BRANCH  17  19
ATOM     19  C   UNL     1       3.695   6.965   0.588  0.00  0.00    +0.159 C 
BRANCH  19  20
ATOM     20  C   UNL     1       3.114   5.831   1.393  0.00  0.00    +0.231 C 
ATOM     21  O   UNL     1       2.379   5.026   0.863  0.00  0.00    -0.274 OA
ATOM     22  N   UNL     1       3.413   5.712   2.702  0.00  0.00    -0.328 N 
ATOM     23  H   UNL     1       4.001   6.356   3.126  0.00  0.00    +0.145 HD
ATOM     24  H   UNL     1       3.039   4.982   3.220  0.00  0.00    +0.145 HD
ENDBRANCH  19  20
BRANCH  19  25
ATOM     25  C   UNL     1       3.250   8.299   1.191  0.00  0.00    +0.035 C 
BRANCH  25  26
ATOM     26  C   UNL     1       3.938   9.448   0.452  0.00  0.00    -0.009 C 
ATOM     27  C   UNL     1       5.447   9.379   0.693  0.00  0.00    +0.003 C 
ATOM     28  C   UNL     1       6.136  10.528  -0.046  0.00  0.00    +0.000 C 
ATOM     29  C   UNL     1       5.597  11.863   0.472  0.00  0.00    +0.000 C 
ATOM     30  C   UNL     1       4.088  11.932   0.231  0.00  0.00    +0.000 C 
ATOM     31  C   UNL     1       3.400  10.783   0.971  0.00  0.00    +0.003 C 
ENDBRANCH  25  26
ENDBRANCH  19  25
ENDBRANCH  17  19
ENDBRANCH   5  15
BRANCH   1  32
ATOM     32  S   UNL     1       1.040   3.504  -1.469  0.00  0.00    +0.061 S 
ATOM     33  O   UNL     1       0.799   4.627  -0.633  0.00  0.00    -0.153 OA
ATOM     34  O   UNL     1       1.657   2.317  -0.991  0.00  0.00    -0.153 OA
BRANCH  32  38
ATOM     35  C   UNL     1      -2.968   2.279  -3.180  0.00  0.00    +0.000 A 
ATOM     36  C   UNL     1      -1.945   1.355  -3.087  0.00  0.00    +0.002 A 
ATOM     37  C   UNL     1      -0.721   1.729  -2.566  0.00  0.00    +0.028 A 
ATOM     38  C   UNL     1      -0.521   3.027  -2.133  0.00  0.00    +0.105 A 
ATOM     39  C   UNL     1      -1.546   3.950  -2.221  0.00  0.00    +0.028 A 
ATOM     40  C   UNL     1      -2.771   3.576  -2.743  0.00  0.00    +0.002 A 
ENDBRANCH  32  38
ENDBRANCH   1  32
TORSDOF 8
