REMARK  Name = ZINC63529288
REMARK  5 active torsions:
REMARK  status: ('A' for Active; 'I' for Inactive)
REMARK    1  A    between atoms: C_1  and  O_2
REMARK    2  A    between atoms: O_2  and  C_3
REMARK    3  A    between atoms: C_10  and  C_27
REMARK    4  A    between atoms: N_20  and  C_21
REMARK    5  A    between atoms: C_31  and  N_33
REMARK                            x       y       z     vdW  Elec       q    Type
REMARK                         _______ _______ _______ _____ _____    ______ ____
ROOT
ATOM      1  C   UNL     1       0.546  -2.172   0.505  0.00  0.00    +0.121 A 
ATOM      2  C   UNL     1      -0.221  -1.236  -0.210  0.00  0.00    +0.047 A 
ATOM      3  C   UNL     1      -1.444  -1.524  -0.702  0.00  0.00    +0.029 A 
ATOM      4  C   UNL     1      -2.017  -2.857  -0.498  0.00  0.00    +0.043 A 
ATOM      5  N   UNL     1      -3.170  -3.378  -0.849  0.00  0.00    -0.375 N 
ATOM      6  C   UNL     1      -3.185  -4.783  -0.447  0.00  0.00    +0.131 C 
ATOM      7  C   UNL     1      -4.366  -5.099   0.479  0.00  0.00    +0.134 C 
ATOM      8  N   UNL     1      -4.087  -6.381   1.145  0.00  0.00    -0.276 N 
ATOM      9  C   UNL     1      -2.896  -6.542   1.986  0.00  0.00    +0.114 C 
ATOM     10  C   UNL     1      -1.637  -6.243   1.150  0.00  0.00    +0.052 C 
ATOM     11  C   UNL     1      -1.908  -4.989   0.351  0.00  0.00    -0.035 C 
ATOM     12  C   UNL     1      -1.213  -3.846   0.263  0.00  0.00    +0.003 A 
ATOM     13  C   UNL     1       0.109  -3.431   0.747  0.00  0.00    +0.055 A 
ATOM     14  C   UNL     1      -4.933  -7.417   0.981  0.00  0.00    +0.307 C 
ATOM     15  O   UNL     1      -5.895  -7.306   0.246  0.00  0.00    -0.252 OA
ATOM     16  N   UNL     1      -4.713  -8.577   1.632  0.00  0.00    -0.269 N 
ATOM     17  H   UNL     1      -3.943  -8.667   2.216  0.00  0.00    +0.156 HD
ATOM     18  H   UNL     1      -3.890  -2.910  -1.299  0.00  0.00    +0.160 HD
ENDROOT
BRANCH   7  19
ATOM     19  C   UNL     1      -4.513  -4.009   1.509  0.00  0.00    -0.022 A 
ATOM     20  C   UNL     1      -3.427  -3.637   2.280  0.00  0.00    +0.007 A 
ATOM     21  C   UNL     1      -3.561  -2.637   3.225  0.00  0.00    +0.022 A 
ATOM     22  C   UNL     1      -4.781  -2.009   3.399  0.00  0.00    +0.071 A 
ATOM     23  C   UNL     1      -5.867  -2.382   2.627  0.00  0.00    +0.145 A 
ATOM     24  C   UNL     1      -5.731  -3.379   1.679  0.00  0.00    +0.039 A 
ATOM     25 CL   UNL     1      -4.950  -0.753   4.586  0.00  0.00    -0.081 Cl
BRANCH  23  26
ATOM     26  N   UNL     1      -7.173  -1.711   2.813  0.00  0.00    +0.058 N 
ATOM     27  O   UNL     1      -8.122  -2.037   2.138  0.00  0.00    -0.126 OA
ATOM     28  O   UNL     1      -7.291  -0.836   3.639  0.00  0.00    -0.126 OA
ENDBRANCH  23  26
ENDBRANCH   7  19
BRANCH  16  29
ATOM     29  C   UNL     1      -5.594  -9.651   1.465  0.00  0.00    +0.035 A 
ATOM     30  C   UNL     1      -6.919  -9.417   1.119  0.00  0.00    +0.023 A 
ATOM     31  C   UNL     1      -7.786 -10.479   0.955  0.00  0.00    +0.002 A 
ATOM     32  C   UNL     1      -7.337 -11.775   1.135  0.00  0.00    +0.000 A 
ATOM     33  C   UNL     1      -6.019 -12.011   1.479  0.00  0.00    +0.002 A 
ATOM     34  C   UNL     1      -5.145 -10.953   1.639  0.00  0.00    +0.023 A 
ENDBRANCH  16  29
BRANCH   1  36
ATOM     35  C   UNL     1       2.192  -0.467   0.688  0.00  0.00    +0.277 C 
ATOM     36  O   UNL     1       1.771  -1.804   0.965  0.00  0.00    -0.495 OA
ENDBRANCH   1  36
TORSDOF 4
