REMARK  Name = ZINC66277774
REMARK  9 active torsions:
REMARK  status: ('A' for Active; 'I' for Inactive)
REMARK    1  A    between atoms: C_1  and  C_2
REMARK    2  A    between atoms: C_2  and  O_3
REMARK    3  A    between atoms: O_3  and  C_4
REMARK    4  A    between atoms: C_7  and  C_10
REMARK    5  A    between atoms: C_16  and  C_18
REMARK    6  A    between atoms: C_18  and  C_19
REMARK    7  A    between atoms: C_19  and  C_21
REMARK    8  A    between atoms: C_19  and  N_22
REMARK    9  A    between atoms: C_23  and  C_25
REMARK                            x       y       z     vdW  Elec       q    Type
REMARK                         _______ _______ _______ _____ _____    ______ ____
ROOT
ATOM      1  C   UNL     1      -2.001  -6.092  -0.011  0.00  0.00    +0.106 C 
ATOM      2  C   UNL     1      -2.362  -6.572  -1.433  0.00  0.00    +0.029 C 
ATOM      3  C   UNL     1      -3.403  -7.691  -1.168  0.00  0.00    +0.021 C 
ATOM      4  C   UNL     1      -4.155  -7.131   0.066  0.00  0.00    +0.108 C 
ATOM      5  N   UNL     1      -3.112  -6.468   0.875  0.00  0.00    -0.294 N 
ATOM      6  C   UNL     1      -3.168  -6.244   2.203  0.00  0.00    +0.218 C 
ATOM      7  O   UNL     1      -2.247  -5.688   2.764  0.00  0.00    -0.276 OA
ENDROOT
BRANCH   1  11
ATOM      8  C   UNL     1      -1.498  -1.848   0.006  0.00  0.00    +0.121 A 
ATOM      9  C   UNL     1      -0.388  -2.679  -0.003  0.00  0.00    +0.046 A 
ATOM     10  C   UNL     1      -0.553  -4.051  -0.008  0.00  0.00    +0.009 A 
ATOM     11  C   UNL     1      -1.823  -4.596  -0.005  0.00  0.00    -0.027 A 
ATOM     12  C   UNL     1      -2.932  -3.769   0.004  0.00  0.00    +0.009 A 
ATOM     13  C   UNL     1      -2.772  -2.397   0.016  0.00  0.00    +0.046 A 
BRANCH   8  14
ATOM     14  O   UNL     1      -1.339  -0.499   0.012  0.00  0.00    -0.492 OA
BRANCH  14  16
ATOM     15  C   UNL     1      -0.019   1.526   0.010  0.00  0.00    +0.048 C 
ATOM     16  C   UNL     1       0.002  -0.004   0.002  0.00  0.00    +0.225 C 
ENDBRANCH  14  16
ENDBRANCH   8  14
ENDBRANCH   1  11
BRANCH   6  17
ATOM     17  C   UNL     1      -4.374  -6.685   2.992  0.00  0.00    +0.118 C 
BRANCH  17  18
ATOM     18  C   UNL     1      -4.184  -6.314   4.464  0.00  0.00    +0.079 C 
ATOM     19  C   UNL     1      -5.350  -6.870   5.284  0.00  0.00    +0.028 C 
BRANCH  18  20
ATOM     20  N   UNL     1      -4.145  -4.855   4.599  0.00  0.00    -0.312 N 
ATOM     21  C   UNL     1      -3.509  -4.292   5.645  0.00  0.00    +0.216 C 
ATOM     22  O   UNL     1      -2.968  -4.993   6.474  0.00  0.00    -0.276 OA
ATOM     23  H   UNL     1      -4.577  -4.295   3.935  0.00  0.00    +0.149 HD
BRANCH  21  24
ATOM     24  C   UNL     1      -3.468  -2.792   5.784  0.00  0.00    +0.075 C 
ATOM     25  C   UNL     1      -2.777  -2.185   4.561  0.00  0.00    +0.013 C 
ATOM     26  C   UNL     1      -2.736  -0.662   4.701  0.00  0.00    +0.001 C 
ATOM     27  C   UNL     1      -1.958  -0.288   5.964  0.00  0.00    +0.000 C 
ATOM     28  C   UNL     1      -2.649  -0.895   7.187  0.00  0.00    +0.001 C 
ATOM     29  C   UNL     1      -2.690  -2.418   7.047  0.00  0.00    +0.013 C 
ENDBRANCH  21  24
ENDBRANCH  18  20
ENDBRANCH  17  18
ENDBRANCH   6  17
TORSDOF 7
