REMARK  Name = ZINC37376877
REMARK  5 active torsions:
REMARK  status: ('A' for Active; 'I' for Inactive)
REMARK    1  A    between atoms: C_3  and  C_8
REMARK    2  A    between atoms: C_10  and  N_30
REMARK    3  A    between atoms: N_11  and  C_22
REMARK    4  A    between atoms: N_17  and  C_18
REMARK    5  A    between atoms: C_18  and  C_19
REMARK                            x       y       z     vdW  Elec       q    Type
REMARK                         _______ _______ _______ _____ _____    ______ ____
ROOT
ATOM      1  C   UNL     1       4.109   1.672  -0.660  0.00  0.00    +0.089 A 
ATOM      2  C   UNL     1       4.961   1.515   0.456  0.00  0.00    +0.086 A 
ATOM      3  C   UNL     1       4.977   0.713   1.591  0.00  0.00    +0.131 A 
ATOM      4  N   UNL     1       6.077   1.035   2.299  0.00  0.00    -0.213 N 
ATOM      5  N   UNL     1       6.789   2.045   1.641  0.00  0.00    -0.144 NA
ATOM      6  C   UNL     1       6.161   2.368   0.531  0.00  0.00    +0.189 A 
ATOM      7  N   UNL     1       6.374   3.245  -0.469  0.00  0.00    -0.193 NA
ATOM      8  C   UNL     1       5.526   3.326  -1.474  0.00  0.00    +0.218 A 
ATOM      9  N   UNL     1       4.436   2.571  -1.579  0.00  0.00    -0.214 NA
ATOM     10  N   UNL     1       5.786   4.243  -2.476  0.00  0.00    -0.313 N 
ATOM     11  H   UNL     1       5.179   4.324  -3.228  0.00  0.00    +0.149 HD
ENDROOT
BRANCH   4  12
ATOM     12  C   UNL     1       6.453   0.447   3.514  0.00  0.00    +0.105 A 
ATOM     13  C   UNL     1       5.767  -0.661   3.991  0.00  0.00    +0.069 A 
ATOM     14  C   UNL     1       6.140  -1.239   5.191  0.00  0.00    +0.126 A 
ATOM     15  C   UNL     1       7.196  -0.713   5.916  0.00  0.00    +0.041 A 
ATOM     16  C   UNL     1       7.881   0.391   5.443  0.00  0.00    +0.043 A 
ATOM     17  C   UNL     1       7.516   0.970   4.241  0.00  0.00    +0.149 A 
ATOM     18  F   UNL     1       8.190   2.045   3.777  0.00  0.00    -0.203 F 
ATOM     19  F   UNL     1       5.473  -2.318   5.657  0.00  0.00    -0.205 F 
ENDBRANCH   4  12
BRANCH   1  22
ATOM     20  C   UNL     1       0.911  -0.125   0.157  0.00  0.00    +0.003 A 
ATOM     21  C   UNL     1       2.050   0.641   0.295  0.00  0.00    +0.010 A 
ATOM     22  C   UNL     1       2.885   0.851  -0.803  0.00  0.00    +0.004 A 
ATOM     23  C   UNL     1       2.563   0.284  -2.036  0.00  0.00    +0.048 A 
ATOM     24  C   UNL     1       1.419  -0.481  -2.163  0.00  0.00    +0.124 A 
ATOM     25  C   UNL     1       0.595  -0.685  -1.067  0.00  0.00    +0.038 A 
ATOM     26  F   UNL     1       1.104  -1.031  -3.356  0.00  0.00    -0.205 F 
ENDBRANCH   1  22
BRANCH   3  27
ATOM     27  N   UNL     1       4.037  -0.241   1.931  0.00  0.00    -0.342 N 
ATOM     28  H   UNL     1       3.683  -0.838   1.253  0.00  0.00    +0.144 HD
ATOM     29  H   UNL     1       3.730  -0.314   2.848  0.00  0.00    +0.144 HD
ENDBRANCH   3  27
BRANCH  10  30
ATOM     30  C   UNL     1       6.978   5.091  -2.402  0.00  0.00    +0.108 C 
BRANCH  30  31
ATOM     31  C   UNL     1       7.029   6.008  -3.626  0.00  0.00    +0.006 C 
ATOM     32  C   UNL     1       8.201   5.832  -4.593  0.00  0.00    +0.005 C 
ATOM     33  C   UNL     1       8.141   7.056  -3.678  0.00  0.00    +0.005 C 
ENDBRANCH  30  31
ENDBRANCH  10  30
TORSDOF 5
