REMARK  Name = ZINC21033291
REMARK  6 active torsions:
REMARK  status: ('A' for Active; 'I' for Inactive)
REMARK    1  A    between atoms: C_1  and  C_2
REMARK    2  A    between atoms: C_4  and  C_18
REMARK    3  A    between atoms: C_4  and  C_22
REMARK    4  A    between atoms: N_8  and  C_9
REMARK    5  A    between atoms: C_9  and  C_11
REMARK    6  A    between atoms: C_9  and  C_12
REMARK                            x       y       z     vdW  Elec       q    Type
REMARK                         _______ _______ _______ _____ _____    ______ ____
ROOT
ATOM      1  C   UNL     1       5.764   2.772  -1.746  0.00  0.00    +0.083 C 
ATOM      2  C   UNL     1       4.938   3.859  -1.108  0.00  0.00    +0.100 C 
ATOM      3  N   UNL     1       5.215   5.092  -1.372  0.00  0.00    -0.230 NA
ATOM      4  C   UNL     1       4.411   6.151  -0.743  0.00  0.00    +0.321 C 
ATOM      5  N   UNL     1       3.322   5.733   0.155  0.00  0.00    -0.260 N 
ATOM      6  C   UNL     1       3.131   4.410   0.344  0.00  0.00    +0.310 C 
ATOM      7  O   UNL     1       2.241   4.030   1.079  0.00  0.00    -0.252 OA
ATOM      8  N   UNL     1       3.913   3.508  -0.271  0.00  0.00    -0.237 N 
ATOM      9  H   UNL     1       2.695   6.490   0.648  0.00  0.00    +0.153 HD
ENDROOT
BRANCH   4  10
ATOM     10  C   UNL     1       3.799   7.000  -1.859  0.00  0.00    +0.440 C 
ATOM     11  F   UNL     1       3.173   8.120  -1.302  0.00  0.00    -0.166 F 
ATOM     12  F   UNL     1       4.807   7.417  -2.735  0.00  0.00    -0.166 F 
ATOM     13  F   UNL     1       2.857   6.240  -2.560  0.00  0.00    -0.166 F 
ENDBRANCH   4  10
BRANCH   4  14
ATOM     14  C   UNL     1       5.360   7.048   0.054  0.00  0.00    +0.440 C 
ATOM     15  F   UNL     1       5.875   6.332   1.141  0.00  0.00    -0.166 F 
ATOM     16  F   UNL     1       6.410   7.466  -0.769  0.00  0.00    -0.166 F 
ATOM     17  F   UNL     1       4.661   8.166   0.522  0.00  0.00    -0.166 F 
ENDBRANCH   4  14
BRANCH   8  18
ATOM     18  C   UNL     1       3.662   2.085  -0.030  0.00  0.00    +0.111 C 
ATOM     19  C   UNL     1       3.747   1.799   1.470  0.00  0.00    +0.033 C 
BRANCH  18  20
ATOM     20  C   UNL     1       2.288   1.725  -0.534  0.00  0.00    -0.027 A 
ATOM     21  C   UNL     1       2.127   1.247  -1.821  0.00  0.00    +0.005 A 
ATOM     22  C   UNL     1       0.866   0.917  -2.283  0.00  0.00    +0.000 A 
ATOM     23  C   UNL     1      -0.233   1.067  -1.458  0.00  0.00    +0.000 A 
ATOM     24  C   UNL     1      -0.072   1.546  -0.172  0.00  0.00    +0.000 A 
ATOM     25  C   UNL     1       1.188   1.876   0.290  0.00  0.00    +0.005 A 
ENDBRANCH  18  20
ENDBRANCH   8  18
TORSDOF 4
