REMARK  Name = ZINC25583822
REMARK  10 active torsions:
REMARK  status: ('A' for Active; 'I' for Inactive)
REMARK    1  A    between atoms: C_1  and  N_2
REMARK    2  A    between atoms: N_2  and  C_3
REMARK    3  A    between atoms: N_2  and  C_4
REMARK    4  A    between atoms: C_7  and  C_10
REMARK    5  A    between atoms: C_14  and  C_17
REMARK    6  A    between atoms: C_17  and  S_18
REMARK    7  A    between atoms: S_18  and  C_19
REMARK    8  A    between atoms: C_20  and  C_35
REMARK    9  A    between atoms: C_21  and  C_31
REMARK   10  A    between atoms: C_23  and  C_25
REMARK                            x       y       z     vdW  Elec       q    Type
REMARK                         _______ _______ _______ _____ _____    ______ ____
ROOT
ATOM      1  S   UNL     1       5.854  -0.047   4.519  0.00  0.00    -0.102 S 
ENDROOT
BRANCH   1   2
ATOM      2  C   UNL     1       7.174  -0.831   5.383  0.00  0.00    +0.116 A 
ATOM      3  C   UNL     1       7.032  -1.134   6.750  0.00  0.00    +0.095 A 
ATOM      4  C   UNL     1       8.092  -1.758   7.420  0.00  0.00    +0.077 A 
ATOM      5  C   UNL     1       9.239  -2.052   6.709  0.00  0.00    +0.042 A 
ATOM      6  C   UNL     1       9.309  -1.723   5.356  0.00  0.00    +0.073 A 
ATOM      7  N   UNL     1       8.290  -1.136   4.741  0.00  0.00    -0.239 NA
BRANCH   6   8
ATOM      8  C   UNL     1      10.539  -2.038   4.591  0.00  0.00    +0.000 A 
ATOM      9  C   UNL     1      11.618  -2.653   5.224  0.00  0.00    +0.010 A 
ATOM     10  C   UNL     1      12.759  -2.949   4.505  0.00  0.00    +0.001 A 
ATOM     11  C   UNL     1      12.837  -2.627   3.163  0.00  0.00    +0.000 A 
ATOM     12  C   UNL     1      11.772  -2.010   2.531  0.00  0.00    +0.001 A 
ATOM     13  C   UNL     1      10.624  -1.714   3.237  0.00  0.00    +0.010 A 
ENDBRANCH   6   8
BRANCH   4  14
ATOM     14  C   UNL     1       7.983  -2.101   8.884  0.00  0.00    +0.419 C 
ATOM     15  F   UNL     1       9.168  -2.712   9.309  0.00  0.00    -0.166 F 
ATOM     16  F   UNL     1       7.771  -0.932   9.622  0.00  0.00    -0.166 F 
ATOM     17  F   UNL     1       6.910  -2.977   9.079  0.00  0.00    -0.166 F 
ENDBRANCH   4  14
BRANCH   3  18
ATOM     18  C   UNL     1       5.822  -0.810   7.445  0.00  0.00    +0.102 C 
ATOM     19  N   UNL     1       4.863  -0.552   7.996  0.00  0.00    -0.191 NA
ENDBRANCH   3  18
ENDBRANCH   1   2
BRANCH   1  20
ATOM     20  C   UNL     1       6.589   0.081   2.870  0.00  0.00    +0.105 C 
BRANCH  20  24
ATOM     21  C   UNL     1       4.038   0.005   0.356  0.00  0.00    +0.094 C 
ATOM     22  N   UNL     1       4.973   0.912  -0.344  0.00  0.00    +0.401 N 
ATOM     23  C   UNL     1       6.201   0.873   0.498  0.00  0.00    -0.046 C 
ATOM     24  C   UNL     1       5.596   0.751   1.919  0.00  0.00    +0.110 C 
ATOM     25  O   UNL     1       4.437  -0.081   1.730  0.00  0.00    -0.388 OA
ATOM     26  H   UNL     1       5.155   0.536  -1.362  0.00  0.00    -0.081 HD
ATOM     27  H   UNL     1       4.536   1.920  -0.398  0.00  0.00    -0.081 HD
BRANCH  21  31
ATOM     28  C   UNL     1       0.064   1.559   0.106  0.00  0.00    +0.029 A 
ATOM     29  C   UNL     1       0.496   0.937   1.270  0.00  0.00    +0.023 A 
ATOM     30  C   UNL     1       1.781   0.436   1.348  0.00  0.00    +0.006 A 
ATOM     31  C   UNL     1       2.637   0.553   0.268  0.00  0.00    -0.036 A 
ATOM     32  C   UNL     1       2.210   1.173  -0.892  0.00  0.00    +0.006 A 
ATOM     33  C   UNL     1       0.927   1.676  -0.977  0.00  0.00    +0.023 A 
BRANCH  28  35
ATOM     34  C   UNL     1      -1.641   2.852  -1.145  0.00  0.00    +0.129 C 
ATOM     35  N   UNL     1      -1.232   2.072   0.026  0.00  0.00    -0.336 N 
ATOM     36  C   UNL     1      -2.184   1.831   1.113  0.00  0.00    +0.129 C 
ENDBRANCH  28  35
ENDBRANCH  21  31
ENDBRANCH  20  24
ENDBRANCH   1  20
TORSDOF 8
