REMARK  Name = ZINC52594684
REMARK  7 active torsions:
REMARK  status: ('A' for Active; 'I' for Inactive)
REMARK    1  A    between atoms: C_1  and  N_2
REMARK    2  A    between atoms: N_2  and  C_3
REMARK    3  A    between atoms: C_3  and  C_4
REMARK    4  A    between atoms: C_10  and  C_12
REMARK    5  A    between atoms: C_12  and  C_14
REMARK    6  A    between atoms: C_12  and  N_24
REMARK    7  A    between atoms: C_14  and  C_15
REMARK                            x       y       z     vdW  Elec       q    Type
REMARK                         _______ _______ _______ _____ _____    ______ ____
ROOT
ATOM      1  C   UNL     1      -0.114   0.095  -2.487  0.00  0.00    +0.165 C 
ENDROOT
BRANCH   1   2
ATOM      2  N   UNL     1      -0.237  -0.830  -3.617  0.00  0.00    -0.288 N 
ATOM      3  C   UNL     1       0.335  -0.529  -4.800  0.00  0.00    +0.303 C 
ATOM      4  O   UNL     1       1.032   0.462  -4.903  0.00  0.00    -0.253 OA
ATOM      5  N   UNL     1       0.135  -1.326  -5.868  0.00  0.00    -0.286 N 
ATOM      6  C   UNL     1       0.846  -1.080  -7.130  0.00  0.00    +0.110 C 
ATOM      7  C   UNL     1       1.570  -2.364  -7.546  0.00  0.00    +0.030 C 
ATOM      8  C   UNL     1       0.572  -3.518  -7.589  0.00  0.00    -0.001 C 
ATOM      9  C   UNL     1      -0.522  -3.228  -8.634  0.00  0.00    +0.016 C 
ATOM     10  C   UNL     1      -0.820  -4.635  -9.197  0.00  0.00    +0.036 C 
ATOM     11  C   UNL     1       0.453  -5.427  -8.982  0.00  0.00    -0.044 A 
ATOM     12  C   UNL     1       1.253  -4.783  -8.056  0.00  0.00    -0.038 A 
ATOM     13  C   UNL     1       2.474  -5.332  -7.702  0.00  0.00    +0.004 A 
ATOM     14  C   UNL     1       2.896  -6.518  -8.271  0.00  0.00    +0.000 A 
ATOM     15  C   UNL     1       2.096  -7.160  -9.198  0.00  0.00    +0.000 A 
ATOM     16  C   UNL     1       0.877  -6.615  -9.551  0.00  0.00    +0.004 A 
ATOM     17  C   UNL     1      -0.061  -3.733  -6.218  0.00  0.00    +0.030 C 
ATOM     18  C   UNL     1      -0.794  -2.462  -5.789  0.00  0.00    +0.110 C 
ATOM     19  H   UNL     1      -0.730  -1.658  -3.514  0.00  0.00    +0.151 HD
ENDBRANCH   1   2
BRANCH   1  22
ATOM     20  C   UNL     1       0.502   1.314  -0.002  0.00  0.00    +0.132 C 
ATOM     21  N   UNL     1       0.088  -0.091  -0.029  0.00  0.00    -0.299 N 
ATOM     22  C   UNL     1      -0.262  -0.667  -1.196  0.00  0.00    +0.236 C 
ATOM     23  O   UNL     1      -0.696  -1.800  -1.207  0.00  0.00    -0.274 OA
BRANCH  21  24
ATOM     24  C   UNL     1       0.053  -0.868   1.212  0.00  0.00    +0.142 C 
BRANCH  24  25
ATOM     25  C   UNL     1      -1.308  -0.741   1.847  0.00  0.00    -0.030 A 
ATOM     26  C   UNL     1      -1.559   0.280   2.745  0.00  0.00    +0.005 A 
ATOM     27  C   UNL     1      -2.807   0.397   3.327  0.00  0.00    +0.000 A 
ATOM     28  C   UNL     1      -3.805  -0.507   3.010  0.00  0.00    +0.000 A 
ATOM     29  C   UNL     1      -3.554  -1.527   2.111  0.00  0.00    +0.000 A 
ATOM     30  C   UNL     1      -2.307  -1.641   1.526  0.00  0.00    +0.005 A 
ENDBRANCH  24  25
ENDBRANCH  21  24
ENDBRANCH   1  22
BRANCH   1  31
ATOM     31  C   UNL     1      -1.207   1.161  -2.579  0.00  0.00    +0.065 C 
BRANCH  31  32
ATOM     32  C   UNL     1      -0.983   2.006  -3.806  0.00  0.00    -0.039 C 
ATOM     33  C   UNL     1      -1.553   1.841  -5.022  0.00  0.00    -0.001 A 
ATOM     34  C   UNL     1      -2.513   0.863  -5.546  0.00  0.00    +0.010 A 
ATOM     35  C   UNL     1      -2.906   0.956  -6.837  0.00  0.00    +0.001 A 
ATOM     36  C   UNL     1      -2.420   1.960  -7.685  0.00  0.00    +0.002 A 
ATOM     37  C   UNL     1      -1.535   2.894  -7.276  0.00  0.00    +0.026 A 
ATOM     38  C   UNL     1      -1.055   2.893  -5.938  0.00  0.00    +0.043 A 
ATOM     39  N   UNL     1      -0.210   3.676  -5.313  0.00  0.00    -0.380 N 
ATOM     40  C   UNL     1      -0.082   3.214  -3.926  0.00  0.00    +0.144 C 
ATOM     41  H   UNL     1       0.250   4.437  -5.701  0.00  0.00    +0.160 HD
ENDBRANCH  31  32
ENDBRANCH   1  31
TORSDOF 6
