REMARK  Name = ZINC36152902
REMARK  7 active torsions:
REMARK  status: ('A' for Active; 'I' for Inactive)
REMARK    1  A    between atoms: C_1  and  C_2
REMARK    2  A    between atoms: C_5  and  C_9
REMARK    3  A    between atoms: C_7  and  C_8
REMARK    4  A    between atoms: C_16  and  C_19
REMARK    5  A    between atoms: C_19  and  C_20
REMARK    6  A    between atoms: C_20  and  O_21
REMARK    7  A    between atoms: O_21  and  C_22
REMARK                            x       y       z     vdW  Elec       q    Type
REMARK                         _______ _______ _______ _____ _____    ______ ____
ROOT
ATOM      1  C   UNL     1       0.059  -4.275  -0.021  0.00  0.00    +0.128 C 
ATOM      2  C   UNL     1      -1.367  -4.797  -0.251  0.00  0.00    +0.106 C 
ATOM      3  S   UNL     1      -1.331  -6.600   0.045  0.00  0.00    -0.082 S 
ATOM      4  C   UNL     1       0.198  -7.026  -0.735  0.00  0.00    +0.209 A 
ATOM      5  N   UNL     1       0.679  -8.200  -1.014  0.00  0.00    -0.121 NA
ATOM      6  N   UNL     1       1.834  -8.065  -1.572  0.00  0.00    -0.132 NA
ATOM      7  C   UNL     1       2.139  -6.799  -1.677  0.00  0.00    +0.154 A 
ATOM      8  N   UNL     1       1.100  -6.085  -1.155  0.00  0.00    -0.225 N 
ATOM      9  N   UNL     1       0.960  -4.738  -1.076  0.00  0.00    -0.273 N 
ATOM     10  H   UNL     1       0.702  -4.348  -1.969  0.00  0.00    +0.167 HD
ENDROOT
BRANCH   1  15
ATOM     11  C   UNL     1      -0.018   1.503   0.010  0.00  0.00    +0.044 C 
ATOM     12  C   UNL     1       0.002  -0.004   0.002  0.00  0.00    -0.048 A 
ATOM     13  C   UNL     1       0.006  -0.689  -1.199  0.00  0.00    +0.004 A 
ATOM     14  C   UNL     1       0.025  -2.071  -1.207  0.00  0.00    +0.006 A 
ATOM     15  C   UNL     1       0.040  -2.768  -0.013  0.00  0.00    -0.025 A 
ATOM     16  C   UNL     1       0.037  -2.084   1.188  0.00  0.00    +0.009 A 
ATOM     17  C   UNL     1       0.023  -0.702   1.195  0.00  0.00    -0.047 A 
ATOM     18  C   UNL     1       0.025   0.045   2.504  0.00  0.00    +0.044 C 
ENDBRANCH   1  15
BRANCH   7  19
ATOM     19  C   UNL     1       3.404  -6.232  -2.267  0.00  0.00    +0.106 C 
BRANCH  19  20
ATOM     20  C   UNL     1       3.208  -5.997  -3.766  0.00  0.00    +0.167 C 
BRANCH  20  21
ATOM     21  O   UNL     1       4.408  -5.459  -4.325  0.00  0.00    -0.383 OA
ATOM     22  C   UNL     1       4.330  -5.202  -5.729  0.00  0.00    +0.194 C 
ENDBRANCH  20  21
ENDBRANCH  19  20
ENDBRANCH   7  19
TORSDOF 4
