REMARK  Name = ZINC08944082
REMARK  5 active torsions:
REMARK  status: ('A' for Active; 'I' for Inactive)
REMARK    1  A    between atoms: C_3  and  C_6
REMARK    2  A    between atoms: C_16  and  C_18
REMARK    3  A    between atoms: C_23  and  C_25
REMARK    4  A    between atoms: C_25  and  N_57
REMARK    5  A    between atoms: C_29  and  C_31
REMARK                            x       y       z     vdW  Elec       q    Type
REMARK                         _______ _______ _______ _____ _____    ______ ____
ROOT
ATOM      1  C   UNL     1       8.771   0.731   0.789  0.00  0.00    +0.020 C 
ATOM      2  C   UNL     1       8.782  -0.049  -0.317  0.00  0.00    -0.023 C 
ATOM      3  C   UNL     1      10.052  -0.728  -0.731  0.00  0.00    +0.037 C 
ATOM      4  C   UNL     1       9.990  -1.387  -2.093  0.00  0.00    +0.005 C 
ATOM      5  C   UNL     1       8.615  -1.956  -2.432  0.00  0.00    +0.012 C 
ATOM      6  C   UNL     1       7.613  -0.800  -2.475  0.00  0.00    +0.067 C 
ATOM      7  C   UNL     1       7.596  -0.211  -1.066  0.00  0.00    +0.068 C 
ATOM      8  N   UNL     1       6.376   0.075  -0.768  0.00  0.00    -0.181 NA
ATOM      9  N   UNL     1       5.443  -0.430  -1.682  0.00  0.00    -0.186 N 
ATOM     10  C   UNL     1       6.167  -1.312  -2.625  0.00  0.00    +0.146 C 
ATOM     11  C   UNL     1       4.122  -0.165  -1.696  0.00  0.00    +0.219 C 
ATOM     12  O   UNL     1       3.412  -0.667  -2.543  0.00  0.00    -0.276 OA
ENDROOT
BRANCH   1  15
ATOM     13  C   UNL     1      11.450   1.660   3.285  0.00  0.00    +0.008 A 
ATOM     14  C   UNL     1      10.195   1.651   2.724  0.00  0.00    +0.015 A 
ATOM     15  C   UNL     1       9.993   0.905   1.573  0.00  0.00    +0.012 A 
ATOM     16  S   UNL     1      11.614   0.207   1.301  0.00  0.00    -0.097 S 
ATOM     17  C   UNL     1      12.446   0.943   2.699  0.00  0.00    +0.046 A 
ENDBRANCH   1  15
BRANCH  10  18
ATOM     18  C   UNL     1       5.670  -1.120  -4.034  0.00  0.00    +0.013 A 
ATOM     19  C   UNL     1       5.476  -2.046  -5.005  0.00  0.00    +0.013 A 
ATOM     20  C   UNL     1       5.006  -1.635  -6.239  0.00  0.00    +0.008 A 
ATOM     21  C   UNL     1       4.754  -0.319  -6.441  0.00  0.00    +0.045 A 
ATOM     22  S   UNL     1       5.178   0.386  -4.857  0.00  0.00    -0.100 S 
ENDBRANCH  10  18
BRANCH  11  23
ATOM     23  C   UNL     1       3.526   0.753  -0.661  0.00  0.00    +0.022 C 
BRANCH  23  28
ATOM     24  C   UNL     1       1.381  -0.385  -0.569  0.00  0.00    -0.077 C 
ATOM     25  C   UNL     1       0.002  -0.004   0.002  0.00  0.00    -0.020 C 
ATOM     26  C   UNL     1      -0.019   1.542   0.011  0.00  0.00    -0.008 C 
ATOM     27  C   UNL     1       1.486   1.909  -0.002  0.00  0.00    +0.020 C 
ATOM     28  N   UNL     1       2.054   0.877  -0.884  0.00  0.00    +0.393 N 
ATOM     29  H   UNL     1       1.881   1.126  -1.865  0.00  0.00    -0.080 HD
BRANCH  27  30
ATOM     30  C   UNL     1       1.693   3.288  -0.573  0.00  0.00    +0.197 C 
ATOM     31  O   UNL     1       2.353   3.434  -1.581  0.00  0.00    -0.278 OA
ATOM     32  N   UNL     1       1.145   4.358   0.035  0.00  0.00    -0.331 N 
ATOM     33  H   UNL     1       0.617   4.241   0.840  0.00  0.00    +0.145 HD
ATOM     34  H   UNL     1       1.278   5.246  -0.333  0.00  0.00    +0.145 HD
ENDBRANCH  27  30
ENDBRANCH  23  28
ENDBRANCH  11  23
TORSDOF 5
