REMARK  Name = ZINC20532188
REMARK  13 active torsions:
REMARK  status: ('A' for Active; 'I' for Inactive)
REMARK    1  A    between atoms: C_1  and  C_2
REMARK    2  A    between atoms: C_2  and  C_3
REMARK    3  A    between atoms: C_6  and  N_9
REMARK    4  A    between atoms: N_12  and  C_13
REMARK    5  A    between atoms: C_13  and  C_15
REMARK    6  A    between atoms: C_13  and  C_20
REMARK    7  A    between atoms: C_15  and  C_16
REMARK    8  A    between atoms: C_16  and  C_17
REMARK    9  A    between atoms: C_17  and  C_18
REMARK   10  A    between atoms: C_17  and  C_19
REMARK   11  A    between atoms: C_24  and  N_25
REMARK   12  A    between atoms: N_31  and  C_34
REMARK   13  A    between atoms: C_34  and  C_35
REMARK                            x       y       z     vdW  Elec       q    Type
REMARK                         _______ _______ _______ _____ _____    ______ ____
ROOT
ATOM      1  C   UNL     1       3.245   6.054   0.635  0.00  0.00    +0.108 C 
ENDROOT
BRANCH   1   2
ATOM      2  C   UNL     1       3.198   7.424   1.260  0.00  0.00    +0.007 A 
ATOM      3  C   UNL     1       4.074   7.752   2.292  0.00  0.00    -0.034 A 
ATOM      4  C   UNL     1       3.973   9.010   2.805  0.00  0.00    -0.021 A 
ATOM      5  S   UNL     1       2.660   9.744   1.871  0.00  0.00    -0.077 S 
ATOM      6  C   UNL     1       2.296   8.343   0.823  0.00  0.00    +0.090 A 
ATOM      7  C   UNL     1       4.793   9.597   3.906  0.00  0.00    -0.035 C 
ATOM      8  N   UNL     1       5.502   8.498   4.589  0.00  0.00    +0.383 N 
ATOM      9  C   UNL     1       6.167   7.625   3.612  0.00  0.00    -0.074 C 
ATOM     10  C   UNL     1       5.129   6.798   2.848  0.00  0.00    +0.018 C 
ATOM     11  H   UNL     1       4.763   7.895   5.137  0.00  0.00    -0.081 HD
BRANCH   6  12
ATOM     12  N   UNL     1       1.333   8.223  -0.186  0.00  0.00    -0.317 N 
ATOM     13  C   UNL     1       1.198   7.162  -1.035  0.00  0.00    +0.092 A 
ATOM     14  C   UNL     1       0.161   7.413  -1.861  0.00  0.00    +0.019 A 
ATOM     15  C   UNL     1      -0.358   8.677  -1.516  0.00  0.00    +0.019 A 
ATOM     16  C   UNL     1       0.377   9.150  -0.489  0.00  0.00    +0.092 A 
ENDBRANCH   6  12
BRANCH   8  17
ATOM     17  C   UNL     1       6.464   9.020   5.568  0.00  0.00    -0.082 C 
ATOM     18  C   UNL     1       7.578   9.773   4.838  0.00  0.00    -0.017 C 
ENDBRANCH   8  17
ENDBRANCH   1   2
BRANCH   1  22
ATOM     19  N   UNL     1       0.453   3.674   0.383  0.00  0.00    -0.269 N 
ATOM     20  C   UNL     1       1.702   4.176   0.458  0.00  0.00    +0.304 C 
ATOM     21  O   UNL     1       2.660   3.428   0.440  0.00  0.00    -0.252 OA
ATOM     22  N   UNL     1       1.888   5.508   0.553  0.00  0.00    -0.292 N 
ATOM     23  H   UNL     1      -0.408   4.353   0.293  0.00  0.00    +0.156 HD
ATOM     24  H   UNL     1       1.021   6.185   0.569  0.00  0.00    +0.151 HD
BRANCH  19  28
ATOM     25  C   UNL     1      -0.143  -0.448   0.486  0.00  0.00    -0.048 A 
ATOM     26  C   UNL     1       0.907   0.115   1.187  0.00  0.00    +0.005 A 
ATOM     27  C   UNL     1       1.108   1.481   1.155  0.00  0.00    +0.023 A 
ATOM     28  C   UNL     1       0.253   2.290   0.417  0.00  0.00    +0.035 A 
ATOM     29  C   UNL     1      -0.801   1.721  -0.285  0.00  0.00    +0.023 A 
ATOM     30  C   UNL     1      -0.996   0.354  -0.249  0.00  0.00    +0.005 A 
BRANCH  25  32
ATOM     31  C   UNL     1      -1.284  -2.292   1.690  0.00  0.00    +0.009 C 
ATOM     32  C   UNL     1      -0.359  -1.939   0.523  0.00  0.00    +0.032 C 
ENDBRANCH  25  32
ENDBRANCH  19  28
ENDBRANCH   1  22
BRANCH   1  33
ATOM     33  C   UNL     1       3.840   6.155  -0.771  0.00  0.00    +0.027 C 
BRANCH  33  34
ATOM     34  C   UNL     1       4.003   4.751  -1.357  0.00  0.00    +0.005 C 
BRANCH  34  35
ATOM     35  C   UNL     1       4.598   4.852  -2.763  0.00  0.00    -0.017 C 
ATOM     36  C   UNL     1       4.877   3.447  -3.301  0.00  0.00    +0.007 C 
ATOM     37  C   UNL     1       3.607   5.564  -3.686  0.00  0.00    +0.007 C 
ENDBRANCH  34  35
ENDBRANCH  33  34
ENDBRANCH   1  33
TORSDOF 9
