REMARK  Name = ZINC16667820
REMARK  6 active torsions:
REMARK  status: ('A' for Active; 'I' for Inactive)
REMARK    1  A    between atoms: C_1  and  C_2
REMARK    2  A    between atoms: C_2  and  N_3
REMARK    3  A    between atoms: C_15  and  C_22
REMARK    4  A    between atoms: C_17  and  O_19
REMARK    5  A    between atoms: O_19  and  C_20
REMARK    6  A    between atoms: C_20  and  C_21
REMARK                            x       y       z     vdW  Elec       q    Type
REMARK                         _______ _______ _______ _____ _____    ______ ____
ROOT
ATOM      1  N   UNL     1       0.120   5.109  -0.128  0.00  0.00    -0.321 N 
ATOM      2  C   UNL     1       0.221   3.733  -0.419  0.00  0.00    +0.051 A 
ATOM      3  C   UNL     1      -0.946   3.035  -0.709  0.00  0.00    +0.025 A 
ATOM      4  C   UNL     1      -0.897   1.681  -0.980  0.00  0.00    +0.002 A 
ATOM      5  C   UNL     1       0.311   1.008  -0.960  0.00  0.00    +0.002 A 
ATOM      6  C   UNL     1       1.480   1.694  -0.683  0.00  0.00    +0.025 A 
ATOM      7  C   UNL     1       1.438   3.052  -0.416  0.00  0.00    +0.050 A 
ATOM      8  N   UNL     1       2.653   3.738  -0.157  0.00  0.00    -0.320 N 
ATOM      9  C   UNL     1       2.528   5.187  -0.222  0.00  0.00    +0.214 C 
ATOM     10  C   UNL     1       1.275   5.520   0.651  0.00  0.00    +0.132 C 
ATOM     11  C   UNL     1       1.520   7.031   0.783  0.00  0.00    +0.128 C 
ATOM     12  C   UNL     1       3.043   7.069   0.916  0.00  0.00    +0.196 C 
ATOM     13  N   UNL     1       3.565   6.011   0.362  0.00  0.00    -0.230 NA
ATOM     14  H   UNL     1       3.486   3.284   0.043  0.00  0.00    +0.148 HD
ENDROOT
BRANCH  11  15
ATOM     15  C   UNL     1       1.064   7.765  -0.452  0.00  0.00    -0.034 A 
ATOM     16  C   UNL     1       1.837   7.737  -1.597  0.00  0.00    +0.004 A 
ATOM     17  C   UNL     1       1.416   8.406  -2.732  0.00  0.00    +0.000 A 
ATOM     18  C   UNL     1       0.228   9.112  -2.717  0.00  0.00    +0.000 A 
ATOM     19  C   UNL     1      -0.543   9.144  -1.569  0.00  0.00    +0.000 A 
ATOM     20  C   UNL     1      -0.124   8.470  -0.437  0.00  0.00    +0.004 A 
ENDBRANCH  11  15
BRANCH   1  22
ATOM     21  C   UNL     1      -1.195   4.571   1.867  0.00  0.00    +0.024 C 
ATOM     22  C   UNL     1      -1.129   5.406   0.586  0.00  0.00    +0.102 C 
ENDBRANCH   1  22
BRANCH  12  23
ATOM     23  O   UNL     1       3.743   8.052   1.519  0.00  0.00    -0.479 OA
BRANCH  23  24
ATOM     24  C   UNL     1       5.165   7.913   1.546  0.00  0.00    +0.227 C 
ATOM     25  C   UNL     1       5.781   9.115   2.265  0.00  0.00    +0.048 C 
ENDBRANCH  23  24
ENDBRANCH  12  23
TORSDOF 4
