REMARK  Name = ZINC27349757
REMARK  9 active torsions:
REMARK  status: ('A' for Active; 'I' for Inactive)
REMARK    1  A    between atoms: C_1  and  C_2
REMARK    2  A    between atoms: C_2  and  N_3
REMARK    3  A    between atoms: N_3  and  C_4
REMARK    4  A    between atoms: N_3  and  C_18
REMARK    5  A    between atoms: C_4  and  C_5
REMARK    6  A    between atoms: N_7  and  C_8
REMARK    7  A    between atoms: C_18  and  C_19
REMARK    8  A    between atoms: N_21  and  C_22
REMARK    9  A    between atoms: C_22  and  C_27
REMARK                            x       y       z     vdW  Elec       q    Type
REMARK                         _______ _______ _______ _____ _____    ______ ____
ROOT
ATOM      1  C   UNL     1       6.028   2.125   0.418  0.00  0.00    +0.019 C 
ENDROOT
BRANCH   1   2
ATOM      2  C   UNL     1       4.845   1.327  -0.068  0.00  0.00    +0.197 C 
ATOM      3  O   UNL     1       4.140   1.766  -0.952  0.00  0.00    -0.278 OA
ATOM      4  N   UNL     1       4.572   0.126   0.479  0.00  0.00    -0.307 N 
ATOM      5  H   UNL     1       5.161  -0.235   1.335  0.00  0.00    +0.149 HD
BRANCH   4   6
ATOM      6  C   UNL     1       3.490  -0.698  -0.065  0.00  0.00    +0.060 C 
ATOM      7  C   UNL     1       3.744  -0.986  -1.559  0.00  0.00    +0.030 C 
ATOM      8  C   UNL     1       4.436  -2.371  -1.566  0.00  0.00    +0.002 C 
ATOM      9  C   UNL     1       3.692  -3.131  -0.440  0.00  0.00    +0.002 C 
ATOM     10  C   UNL     1       3.457  -2.062   0.646  0.00  0.00    +0.030 C 
BRANCH   6  11
ATOM     11  C   UNL     1       2.168   0.007   0.107  0.00  0.00    -0.020 A 
ATOM     12  C   UNL     1       2.048   1.033   1.025  0.00  0.00    +0.009 A 
ATOM     13  C   UNL     1       0.838   1.681   1.187  0.00  0.00    +0.050 A 
ATOM     14  C   UNL     1      -0.260   1.302   0.428  0.00  0.00    +0.162 A 
ATOM     15  C   UNL     1      -0.138   0.272  -0.498  0.00  0.00    +0.162 A 
ATOM     16  C   UNL     1       1.079  -0.374  -0.654  0.00  0.00    +0.055 A 
ATOM     17  O   UNL     1      -1.200  -0.110  -1.259  0.00  0.00    -0.485 OA
ATOM     18  C   UNL     1      -2.494   0.306  -0.811  0.00  0.00    +0.270 C 
ATOM     19  C   UNL     1      -2.420   1.793  -0.437  0.00  0.00    +0.270 C 
ATOM     20  O   UNL     1      -1.447   1.943   0.604  0.00  0.00    -0.485 OA
ENDBRANCH   6  11
ENDBRANCH   4   6
ENDBRANCH   1   2
BRANCH   1  21
ATOM     21  N   UNL     1       6.157   3.348  -0.386  0.00  0.00    +0.391 N 
ATOM     22  H   UNL     1       5.979   3.081  -1.438  0.00  0.00    -0.080 HD
BRANCH  21  24
ATOM     23  C   UNL     1       8.471   3.071  -1.137  0.00  0.00    -0.017 C 
ATOM     24  C   UNL     1       7.513   3.904  -0.284  0.00  0.00    -0.081 C 
ENDBRANCH  21  24
BRANCH  21  25
ATOM     25  C   UNL     1       5.149   4.343   0.004  0.00  0.00    +0.020 C 
BRANCH  25  26
ATOM     26  C   UNL     1       5.149   5.474  -0.992  0.00  0.00    +0.201 C 
ATOM     27  O   UNL     1       5.912   5.453  -1.933  0.00  0.00    -0.278 OA
ATOM     28  N   UNL     1       4.299   6.509  -0.835  0.00  0.00    -0.287 N 
ATOM     29  H   UNL     1       3.668   6.572   0.064  0.00  0.00    +0.155 HD
BRANCH  28  30
ATOM     30  C   UNL     1       4.219   7.504  -1.818  0.00  0.00    +0.037 A 
ATOM     31  C   UNL     1       3.934   8.814  -1.458  0.00  0.00    +0.027 A 
ATOM     32  C   UNL     1       3.860   9.797  -2.426  0.00  0.00    +0.051 A 
ATOM     33  C   UNL     1       4.058   9.476  -3.761  0.00  0.00    +0.162 A 
ATOM     34  C   UNL     1       4.340   8.165  -4.125  0.00  0.00    +0.164 A 
ATOM     35  C   UNL     1       4.420   7.180  -3.152  0.00  0.00    +0.072 A 
ATOM     36  O   UNL     1       4.547   7.833  -5.429  0.00  0.00    -0.485 OA
ATOM     37  C   UNL     1       4.093   8.769  -6.412  0.00  0.00    +0.270 C 
ATOM     38  C   UNL     1       4.544  10.172  -5.983  0.00  0.00    +0.270 C 
ATOM     39  O   UNL     1       3.969  10.456  -4.703  0.00  0.00    -0.485 OA
ENDBRANCH  28  30
ENDBRANCH  25  26
ENDBRANCH  21  25
ENDBRANCH   1  21
TORSDOF 8
