REMARK  Name = ZINC00709737
REMARK  7 active torsions:
REMARK  status: ('A' for Active; 'I' for Inactive)
REMARK    1  A    between atoms: C_1  and  O_2
REMARK    2  A    between atoms: O_2  and  C_3
REMARK    3  A    between atoms: C_6  and  C_11
REMARK    4  A    between atoms: C_8  and  O_9
REMARK    5  A    between atoms: O_9  and  C_10
REMARK    6  A    between atoms: C_16  and  C_26
REMARK    7  A    between atoms: C_31  and  N_32
REMARK                            x       y       z     vdW  Elec       q    Type
REMARK                         _______ _______ _______ _____ _____    ______ ____
ROOT
ATOM      1  C   UNL     1      -0.621  -4.166   3.269  0.00  0.00    +0.032 C 
ATOM      2  C   UNL     1       0.836  -3.763   3.490  0.00  0.00    +0.059 C 
ATOM      3  C   UNL     1       1.457  -3.325   2.174  0.00  0.00    +0.017 C 
ATOM      4  C   UNL     1       0.711  -2.706   1.243  0.00  0.00    +0.036 C 
ATOM      5  C   UNL     1       1.205  -2.188  -0.087  0.00  0.00    +0.138 C 
ATOM      6  N   UNL     1       2.535  -2.632  -0.446  0.00  0.00    -0.331 N 
ATOM      7  C   UNL     1       3.647  -2.254   0.304  0.00  0.00    +0.049 A 
ATOM      8  C   UNL     1       4.641  -1.449  -0.230  0.00  0.00    +0.025 A 
ATOM      9  C   UNL     1       5.705  -1.062   0.567  0.00  0.00    +0.002 A 
ATOM     10  C   UNL     1       5.776  -1.472   1.886  0.00  0.00    +0.002 A 
ATOM     11  C   UNL     1       4.794  -2.290   2.417  0.00  0.00    +0.025 A 
ATOM     12  C   UNL     1       3.741  -2.695   1.615  0.00  0.00    +0.052 A 
ATOM     13  N   UNL     1       2.781  -3.600   2.053  0.00  0.00    -0.316 N 
ATOM     14  C   UNL     1      -0.669  -2.492   1.464  0.00  0.00    +0.163 C 
ATOM     15  O   UNL     1      -1.316  -1.918   0.610  0.00  0.00    -0.292 OA
ATOM     16  C   UNL     1      -1.364  -2.946   2.712  0.00  0.00    +0.088 C 
ATOM     17  H   UNL     1       2.654  -3.201  -1.222  0.00  0.00    +0.147 HD
ATOM     18  H   UNL     1       3.078  -4.492   2.289  0.00  0.00    +0.152 HD
ENDROOT
BRANCH   5  19
ATOM     19  C   UNL     1       1.199  -0.681  -0.045  0.00  0.00    +0.011 A 
ATOM     20  C   UNL     1       1.214  -0.025   1.172  0.00  0.00    +0.057 A 
ATOM     21  C   UNL     1       1.208   1.359   1.214  0.00  0.00    +0.167 A 
ATOM     22  C   UNL     1       1.186   2.088   0.026  0.00  0.00    +0.168 A 
ATOM     23  C   UNL     1       1.171   1.424  -1.189  0.00  0.00    +0.082 A 
ATOM     24  C   UNL     1       1.177   0.041  -1.223  0.00  0.00    +0.135 A 
ATOM     25  O   UNL     1       1.185   3.418   0.331  0.00  0.00    -0.453 OA
ATOM     26  C   UNL     1       0.794   3.496   1.714  0.00  0.00    +0.466 C 
ATOM     27  O   UNL     1       1.220   2.234   2.261  0.00  0.00    -0.453 OA
BRANCH  24  28
ATOM     28  N   UNL     1       1.162  -0.666  -2.523  0.00  0.00    +0.057 N 
ATOM     29  O   UNL     1       1.034  -0.036  -3.557  0.00  0.00    -0.126 OA
ATOM     30  O   UNL     1       1.276  -1.878  -2.558  0.00  0.00    -0.126 OA
ENDBRANCH  24  28
ENDBRANCH   5  19
BRANCH   1  34
ATOM     31  C   UNL     1      -2.373  -5.354   6.985  0.00  0.00    +0.161 A 
ATOM     32  C   UNL     1      -1.866  -4.074   6.833  0.00  0.00    +0.049 A 
ATOM     33  C   UNL     1      -1.300  -3.693   5.630  0.00  0.00    +0.008 A 
ATOM     34  C   UNL     1      -1.239  -4.587   4.578  0.00  0.00    -0.040 A 
ATOM     35  C   UNL     1      -1.748  -5.864   4.721  0.00  0.00    +0.053 A 
ATOM     36  C   UNL     1      -2.312  -6.254   5.925  0.00  0.00    +0.162 A 
BRANCH  31  38
ATOM     37  C   UNL     1      -2.960  -4.755   9.210  0.00  0.00    +0.277 C 
ATOM     38  O   UNL     1      -2.931  -5.731   8.167  0.00  0.00    -0.491 OA
ENDBRANCH  31  38
BRANCH  36  39
ATOM     39  O   UNL     1      -2.808  -7.512   6.069  0.00  0.00    -0.491 OA
ATOM     40  C   UNL     1      -2.710  -8.382   4.939  0.00  0.00    +0.277 C 
ENDBRANCH  36  39
ENDBRANCH   1  34
TORSDOF 5
