REMARK  Name = ZINC11847318
REMARK  11 active torsions:
REMARK  status: ('A' for Active; 'I' for Inactive)
REMARK    1  A    between atoms: C_1  and  C_2
REMARK    2  A    between atoms: C_5  and  O_12
REMARK    3  A    between atoms: C_8  and  C_10
REMARK    4  A    between atoms: C_8  and  C_11
REMARK    5  A    between atoms: O_12  and  C_13
REMARK    6  A    between atoms: C_13  and  C_14
REMARK    7  A    between atoms: C_14  and  C_16
REMARK    8  A    between atoms: C_14  and  O_38
REMARK    9  A    between atoms: C_16  and  N_76
REMARK   10  A    between atoms: C_19  and  C_22
REMARK   11  A    between atoms: C_22  and  N_23
REMARK                            x       y       z     vdW  Elec       q    Type
REMARK                         _______ _______ _______ _____ _____    ______ ____
ROOT
ATOM      1  C   UNL     1       1.397  -1.046  -8.674  0.00  0.00    -0.078 C 
ATOM      2  C   UNL     1       2.182  -1.613  -9.859  0.00  0.00    -0.014 C 
ATOM      3  C   UNL     1       1.992  -0.699 -11.073  0.00  0.00    +0.003 C 
ATOM      4  C   UNL     1       2.455   0.716 -10.714  0.00  0.00    -0.014 C 
ATOM      5  C   UNL     1       1.663   1.215  -9.504  0.00  0.00    -0.078 C 
ATOM      6  N   UNL     1       1.907   0.306  -8.363  0.00  0.00    +0.381 N 
ATOM      7  H   UNL     1       2.918   0.250  -8.192  0.00  0.00    -0.082 HD
ENDROOT
BRANCH   6   8
ATOM      8  C   UNL     1       1.244   0.830  -7.151  0.00  0.00    -0.045 C 
BRANCH   8   9
ATOM      9  C   UNL     1       1.948   2.119  -6.722  0.00  0.00    +0.124 C 
BRANCH   9  10
ATOM     10  O   UNL     1       3.329   1.849  -6.478  0.00  0.00    -0.391 OA
ATOM     11  H   UNL     1       3.485   1.194  -5.783  0.00  0.00    +0.210 HD
ENDBRANCH   9  10
BRANCH   9  12
ATOM     12  C   UNL     1       1.298   2.654  -5.444  0.00  0.00    +0.189 C 
BRANCH  12  13
ATOM     13  O   UNL     1       1.877   3.916  -5.108  0.00  0.00    -0.374 OA
BRANCH  13  17
ATOM     14  C   UNL     1       2.383   4.218  -0.229  0.00  0.00    +0.007 C 
ATOM     15  C   UNL     1       1.572   4.678  -1.442  0.00  0.00    -0.011 C 
ATOM     16  C   UNL     1       2.149   4.046  -2.710  0.00  0.00    +0.035 C 
ATOM     17  C   UNL     1       1.338   4.506  -3.923  0.00  0.00    +0.119 C 
ATOM     18  C   UNL     1       1.407   6.030  -4.035  0.00  0.00    +0.038 C 
ATOM     19  C   UNL     1       0.830   6.662  -2.767  0.00  0.00    -0.032 C 
ATOM     20  C   UNL     1       1.641   6.202  -1.554  0.00  0.00    +0.009 C 
ATOM     21  C   UNL     1      -0.628   6.228  -2.599  0.00  0.00    +0.011 C 
ATOM     22  C   UNL     1       0.899   8.186  -2.879  0.00  0.00    +0.011 C 
ENDBRANCH  13  17
ENDBRANCH  12  13
ENDBRANCH   9  12
ENDBRANCH   8   9
ENDBRANCH   6   8
BRANCH   3  23
ATOM     23  C   UNL     1       2.822  -1.226 -12.246  0.00  0.00    +0.120 C 
BRANCH  23  24
ATOM     24  N   UNL     1       2.301  -2.529 -12.666  0.00  0.00    -0.234 N 
ATOM     25  C   UNL     1       2.804  -3.642 -12.098  0.00  0.00    +0.254 C 
ATOM     26  O   UNL     1       3.674  -3.550 -11.254  0.00  0.00    -0.270 OA
ATOM     27  C   UNL     1       2.303  -4.968 -12.491  0.00  0.00    +0.046 A 
ATOM     28  C   UNL     1       2.788  -6.139 -11.928  0.00  0.00    +0.014 A 
ATOM     29  C   UNL     1       2.286  -7.369 -12.335  0.00  0.00    +0.001 A 
ATOM     30  C   UNL     1       1.312  -7.465 -13.287  0.00  0.00    +0.008 A 
ATOM     31  C   UNL     1       0.793  -6.302 -13.882  0.00  0.00    -0.016 A 
ATOM     32  C   UNL     1       1.295  -5.047 -13.478  0.00  0.00    +0.006 A 
ATOM     33  C   UNL     1       0.793  -3.859 -14.056  0.00  0.00    +0.046 A 
ATOM     34  C   UNL     1      -0.197  -3.948 -15.024  0.00  0.00    +0.014 A 
ATOM     35  C   UNL     1      -0.683  -5.190 -15.414  0.00  0.00    +0.001 A 
ATOM     36  C   UNL     1      -0.210  -6.348 -14.866  0.00  0.00    +0.008 A 
ATOM     37  C   UNL     1       1.341  -2.570 -13.609  0.00  0.00    +0.254 C 
ATOM     38  O   UNL     1       0.924  -1.535 -14.093  0.00  0.00    -0.270 OA
ENDBRANCH  23  24
ENDBRANCH   3  23
TORSDOF 8
