REMARK  Name = ZINC21251098
REMARK  9 active torsions:
REMARK  status: ('A' for Active; 'I' for Inactive)
REMARK    1  A    between atoms: C_1  and  O_2
REMARK    2  A    between atoms: O_2  and  C_3
REMARK    3  A    between atoms: C_5  and  C_13
REMARK    4  A    between atoms: C_7  and  O_11
REMARK    5  A    between atoms: C_8  and  O_9
REMARK    6  A    between atoms: O_9  and  C_10
REMARK    7  A    between atoms: O_11  and  C_12
REMARK    8  A    between atoms: C_18  and  C_28
REMARK    9  A    between atoms: C_33  and  C_34
REMARK                            x       y       z     vdW  Elec       q    Type
REMARK                         _______ _______ _______ _____ _____    ______ ____
ROOT
ATOM      1  C   UNL     1       1.255   6.291   0.345  0.00  0.00    +0.032 C 
ATOM      2  C   UNL     1      -0.012   7.046  -0.053  0.00  0.00    +0.059 C 
ATOM      3  C   UNL     1       0.260   7.906  -1.276  0.00  0.00    +0.017 C 
ATOM      4  C   UNL     1       1.475   8.447  -1.472  0.00  0.00    +0.036 C 
ATOM      5  C   UNL     1       1.878   9.320  -2.636  0.00  0.00    +0.136 C 
ATOM      6  N   UNL     1       0.776   9.781  -3.452  0.00  0.00    -0.331 N 
ATOM      7  C   UNL     1      -0.002   8.883  -4.181  0.00  0.00    +0.049 A 
ATOM      8  C   UNL     1       0.026   8.861  -5.566  0.00  0.00    +0.025 A 
ATOM      9  C   UNL     1      -0.674   7.878  -6.245  0.00  0.00    +0.002 A 
ATOM     10  C   UNL     1      -1.397   6.926  -5.549  0.00  0.00    +0.002 A 
ATOM     11  C   UNL     1      -1.445   6.959  -4.166  0.00  0.00    +0.025 A 
ATOM     12  C   UNL     1      -0.760   7.952  -3.487  0.00  0.00    +0.052 A 
ATOM     13  N   UNL     1      -0.803   8.072  -2.103  0.00  0.00    -0.316 N 
ATOM     14  C   UNL     1       2.519   8.207  -0.548  0.00  0.00    +0.163 C 
ATOM     15  O   UNL     1       3.600   8.730  -0.736  0.00  0.00    -0.292 OA
ATOM     16  C   UNL     1       2.340   7.330   0.655  0.00  0.00    +0.088 C 
ATOM     17  H   UNL     1       0.541  10.854  -3.504  0.00  0.00    +0.147 HD
ATOM     18  H   UNL     1      -1.790   8.321  -1.686  0.00  0.00    +0.152 HD
ENDROOT
BRANCH   1  21
ATOM     19  C   UNL     1       0.920   3.308   2.640  0.00  0.00    +0.165 A 
ATOM     20  C   UNL     1       1.166   4.083   1.517  0.00  0.00    +0.053 A 
ATOM     21  C   UNL     1       0.987   5.452   1.568  0.00  0.00    -0.036 A 
ATOM     22  C   UNL     1       0.564   6.055   2.738  0.00  0.00    +0.053 A 
ATOM     23  C   UNL     1       0.316   5.287   3.866  0.00  0.00    +0.165 A 
ATOM     24  C   UNL     1       0.490   3.909   3.817  0.00  0.00    +0.204 A 
BRANCH  19  26
ATOM     25  C   UNL     1       1.535   1.410   1.346  0.00  0.00    +0.277 C 
ATOM     26  O   UNL     1       1.096   1.960   2.589  0.00  0.00    -0.491 OA
ENDBRANCH  19  26
BRANCH  24  27
ATOM     27  O   UNL     1       0.243   3.151   4.920  0.00  0.00    -0.488 OA
ATOM     28  C   UNL     1       1.335   2.933   5.815  0.00  0.00    +0.277 C 
ENDBRANCH  24  27
BRANCH  23  29
ATOM     29  O   UNL     1      -0.100   5.881   5.016  0.00  0.00    -0.491 OA
ATOM     30  C   UNL     1      -0.261   7.300   4.992  0.00  0.00    +0.277 C 
ENDBRANCH  23  29
ENDBRANCH   1  21
BRANCH   5  31
ATOM     31  C   UNL     1       2.827   8.541  -3.510  0.00  0.00    -0.011 A 
ATOM     32  C   UNL     1       2.888   7.164  -3.408  0.00  0.00    +0.006 A 
ATOM     33  C   UNL     1       3.755   6.449  -4.214  0.00  0.00    +0.000 A 
ATOM     34  C   UNL     1       4.568   7.112  -5.114  0.00  0.00    +0.001 A 
ATOM     35  C   UNL     1       4.510   8.490  -5.212  0.00  0.00    +0.013 A 
ATOM     36  C   UNL     1       3.639   9.204  -4.410  0.00  0.00    +0.060 A 
BRANCH  36  37
ATOM     37  C   UNL     1       3.577  10.706  -4.517  0.00  0.00    +0.418 C 
ATOM     38  F   UNL     1       4.536  11.149  -5.435  0.00  0.00    -0.166 F 
ATOM     39  F   UNL     1       2.304  11.090  -4.952  0.00  0.00    -0.166 F 
ATOM     40  F   UNL     1       3.833  11.274  -3.265  0.00  0.00    -0.166 F 
ENDBRANCH  36  37
ENDBRANCH   5  31
TORSDOF 6
