REMARK  Name = ZINC40035118
REMARK  9 active torsions:
REMARK  status: ('A' for Active; 'I' for Inactive)
REMARK    1  A    between atoms: C_1  and  C_2
REMARK    2  A    between atoms: C_2  and  C_3
REMARK    3  A    between atoms: C_3  and  C_36
REMARK    4  A    between atoms: N_15  and  C_30
REMARK    5  A    between atoms: N_18  and  N_19
REMARK    6  A    between atoms: C_20  and  C_21
REMARK    7  A    between atoms: C_26  and  O_27
REMARK    8  A    between atoms: O_27  and  C_28
REMARK    9  A    between atoms: C_28  and  C_29
REMARK                            x       y       z     vdW  Elec       q    Type
REMARK                         _______ _______ _______ _____ _____    ______ ____
ROOT
ATOM      1  C   UNL     1       0.590   0.113  -0.452  0.00  0.00    +0.004 C 
ATOM      2  C   UNL     1       0.409  -1.356  -0.078  0.00  0.00    +0.047 C 
ATOM      3  C   UNL     1       1.381  -1.750   1.000  0.00  0.00    -0.037 A 
ATOM      4  C   UNL     1       1.014  -2.655   1.976  0.00  0.00    +0.004 A 
ATOM      5  C   UNL     1       1.916  -3.015   2.961  0.00  0.00    +0.000 A 
ATOM      6  C   UNL     1       3.189  -2.475   2.977  0.00  0.00    +0.001 A 
ATOM      7  C   UNL     1       3.569  -1.568   2.008  0.00  0.00    +0.010 A 
ATOM      8  C   UNL     1       2.664  -1.201   1.016  0.00  0.00    +0.004 A 
ATOM      9  C   UNL     1       3.038  -0.224  -0.032  0.00  0.00    +0.084 A 
ATOM     10  C   UNL     1       2.033   0.410  -0.747  0.00  0.00    +0.050 A 
ATOM     11  C   UNL     1       2.389   1.328  -1.744  0.00  0.00    +0.264 A 
ATOM     12  O   UNL     1       1.532   1.904  -2.395  0.00  0.00    -0.267 OA
ATOM     13  N   UNL     1       3.699   1.562  -1.968  0.00  0.00    -0.248 N 
ATOM     14  C   UNL     1       4.649   0.916  -1.232  0.00  0.00    +0.223 A 
ATOM     15  N   UNL     1       4.320   0.051  -0.294  0.00  0.00    -0.214 NA
ATOM     16  N   UNL     1       5.973   1.172  -1.473  0.00  0.00    -0.206 N 
ATOM     17  C   UNL     1      -0.253   0.424  -1.691  0.00  0.00    +0.016 C 
ATOM     18  H   UNL     1       6.226   1.843  -2.127  0.00  0.00    +0.177 HD
ENDROOT
BRANCH  13  19
ATOM     19  C   UNL     1       4.086   2.472  -2.961  0.00  0.00    +0.053 A 
ATOM     20  C   UNL     1       4.735   2.022  -4.103  0.00  0.00    +0.026 A 
ATOM     21  C   UNL     1       5.114   2.921  -5.080  0.00  0.00    +0.002 A 
ATOM     22  C   UNL     1       4.848   4.269  -4.921  0.00  0.00    +0.000 A 
ATOM     23  C   UNL     1       4.201   4.720  -3.785  0.00  0.00    +0.002 A 
ATOM     24  C   UNL     1       3.815   3.825  -2.807  0.00  0.00    +0.026 A 
ENDBRANCH  13  19
BRANCH   1  26
ATOM     25  C   UNL     1       0.274   2.465   0.329  0.00  0.00    +0.005 C 
ATOM     26  C   UNL     1       0.121   0.991   0.710  0.00  0.00    +0.008 C 
ENDBRANCH   1  26
BRANCH  16  27
ATOM     27  N   UNL     1       6.962   0.466  -0.776  0.00  0.00    -0.187 NA
ATOM     28  C   UNL     1       8.211   0.792  -0.912  0.00  0.00    +0.142 C 
BRANCH  28  29
ATOM     29  C   UNL     1       9.262  -0.051  -0.315  0.00  0.00    +0.036 A 
ATOM     30  C   UNL     1      10.599   0.349  -0.369  0.00  0.00    +0.013 A 
ATOM     31  C   UNL     1      11.578  -0.444   0.192  0.00  0.00    +0.001 A 
ATOM     32  C   UNL     1      11.241  -1.637   0.808  0.00  0.00    +0.004 A 
ATOM     33  C   UNL     1       9.921  -2.045   0.868  0.00  0.00    +0.046 A 
ATOM     34  C   UNL     1       8.925  -1.257   0.316  0.00  0.00    +0.129 A 
BRANCH  34  35
ATOM     35  O   UNL     1       7.628  -1.654   0.379  0.00  0.00    -0.492 OA
BRANCH  35  36
ATOM     36  C   UNL     1       7.357  -2.880   1.061  0.00  0.00    +0.226 C 
ATOM     37  C   UNL     1       5.882  -3.247   0.884  0.00  0.00    +0.048 C 
ENDBRANCH  35  36
ENDBRANCH  34  35
ENDBRANCH  28  29
ENDBRANCH  16  27
TORSDOF 6
