REMARK  Name = ZINC12680541
REMARK  17 active torsions:
REMARK  status: ('A' for Active; 'I' for Inactive)
REMARK    1  A    between atoms: C_1  and  C_2
REMARK    2  A    between atoms: C_2  and  C_4
REMARK    3  A    between atoms: C_2  and  O_33
REMARK    4  A    between atoms: C_4  and  C_6
REMARK    5  A    between atoms: C_4  and  N_13
REMARK    6  A    between atoms: C_6  and  O_8
REMARK    7  A    between atoms: O_8  and  C_9
REMARK    8  A    between atoms: C_9  and  C_10
REMARK    9  A    between atoms: C_9  and  C_11
REMARK   10  A    between atoms: C_9  and  C_12
REMARK   11  A    between atoms: C_14  and  C_16
REMARK   12  A    between atoms: C_20  and  S_22
REMARK   13  A    between atoms: S_22  and  N_25
REMARK   14  A    between atoms: O_33  and  C_34
REMARK   15  A    between atoms: C_34  and  C_35
REMARK   16  A    between atoms: C_34  and  C_36
REMARK   17  A    between atoms: C_34  and  C_37
REMARK                            x       y       z     vdW  Elec       q    Type
REMARK                         _______ _______ _______ _____ _____    ______ ____
ROOT
ATOM      1  N   UNL     1       0.232  -0.062  -0.086  0.00  0.00    -0.296 N 
ATOM      2  C   UNL     1       0.669  -1.043   0.728  0.00  0.00    +0.245 C 
ATOM      3  O   UNL     1       0.807  -0.829   1.917  0.00  0.00    -0.270 OA
ATOM      4  H   UNL     1       0.051  -0.252  -1.020  0.00  0.00    +0.150 HD
ENDROOT
BRANCH   2   5
ATOM      5  C   UNL     1       0.981  -2.378   0.176  0.00  0.00    +0.039 A 
ATOM      6  C   UNL     1       0.817  -2.628  -1.188  0.00  0.00    +0.014 A 
ATOM      7  C   UNL     1       1.116  -3.873  -1.698  0.00  0.00    +0.023 A 
ATOM      8  C   UNL     1       1.565  -4.879  -0.858  0.00  0.00    +0.067 A 
ATOM      9  C   UNL     1       1.724  -4.639   0.497  0.00  0.00    +0.124 A 
ATOM     10  C   UNL     1       1.434  -3.395   1.018  0.00  0.00    +0.043 A 
ATOM     11 CL   UNL     1       1.932  -6.447  -1.506  0.00  0.00    -0.082 Cl
BRANCH   9  12
ATOM     12  S   UNL     1       2.296  -5.925   1.557  0.00  0.00    +0.062 S 
ATOM     13  O   UNL     1       3.446  -6.482   0.935  0.00  0.00    -0.153 OA
ATOM     14  O   UNL     1       2.328  -5.384   2.870  0.00  0.00    -0.153 OA
BRANCH  12  15
ATOM     15  N   UNL     1       1.138  -7.109   1.560  0.00  0.00    -0.177 NA
ATOM     16  C   UNL     1       0.088  -7.048   2.551  0.00  0.00    +0.109 C 
ATOM     17  C   UNL     1       0.525  -7.798   3.827  0.00  0.00    +0.017 C 
ATOM     18  C   UNL     1       0.546  -9.248   3.584  0.00  0.00    +0.001 C 
ATOM     19  C   UNL     1       1.547  -9.693   2.522  0.00  0.00    +0.001 C 
ATOM     20  C   UNL     1       0.915  -9.568   1.157  0.00  0.00    +0.017 C 
ATOM     21  C   UNL     1       1.225  -8.186   0.555  0.00  0.00    +0.109 C 
ENDBRANCH  12  15
ENDBRANCH   9  12
ENDBRANCH   2   5
BRANCH   1  22
ATOM     22  C   UNL     1       0.028   1.290   0.439  0.00  0.00    +0.211 C 
BRANCH  22  24
ATOM     23  C   UNL     1       1.155   3.455   0.973  0.00  0.00    +0.040 C 
ATOM     24  C   UNL     1       1.321   2.095   0.292  0.00  0.00    +0.147 C 
BRANCH  24  25
ATOM     25  O   UNL     1       2.397   1.383   0.907  0.00  0.00    -0.369 OA
BRANCH  25  26
ATOM     26  C   UNL     1       3.590   1.340   0.120  0.00  0.00    +0.062 C 
ATOM     27  C   UNL     1       4.045   2.767  -0.192  0.00  0.00    +0.041 C 
ATOM     28  C   UNL     1       4.688   0.613   0.899  0.00  0.00    +0.041 C 
ATOM     29  C   UNL     1       3.312   0.595  -1.187  0.00  0.00    +0.041 C 
ENDBRANCH  25  26
ENDBRANCH  24  25
ENDBRANCH  22  24
BRANCH  22  30
ATOM     30  C   UNL     1      -1.075   1.968  -0.332  0.00  0.00    +0.331 C 
ATOM     31  O   UNL     1      -1.634   1.381  -1.229  0.00  0.00    -0.249 OA
BRANCH  30  32
ATOM     32  O   UNL     1      -1.437   3.223  -0.023  0.00  0.00    -0.458 OA
BRANCH  32  33
ATOM     33  C   UNL     1      -2.507   3.813  -0.808  0.00  0.00    +0.105 C 
ATOM     34  C   UNL     1      -3.775   2.970  -0.656  0.00  0.00    +0.055 C 
ATOM     35  C   UNL     1      -2.778   5.235  -0.314  0.00  0.00    +0.055 C 
ATOM     36  C   UNL     1      -2.096   3.854  -2.281  0.00  0.00    +0.055 C 
ENDBRANCH  32  33
ENDBRANCH  30  32
ENDBRANCH  22  30
ENDBRANCH   1  22
TORSDOF 10
