REMARK  Name = ZINC38766099
REMARK  5 active torsions:
REMARK  status: ('A' for Active; 'I' for Inactive)
REMARK    1  A    between atoms: C_1  and  C_2
REMARK    2  A    between atoms: C_2  and  N_3
REMARK    3  A    between atoms: C_16  and  C_18
REMARK    4  A    between atoms: C_20  and  O_38
REMARK    5  A    between atoms: N_22  and  C_28
REMARK                            x       y       z     vdW  Elec       q    Type
REMARK                         _______ _______ _______ _____ _____    ______ ____
ROOT
ATOM      1  C   UNL     1      -0.771  -2.614   0.852  0.00  0.00    +0.146 C 
ATOM      2  C   UNL     1      -0.597  -4.045   0.337  0.00  0.00    +0.225 C 
ATOM      3  N   UNL     1      -1.856  -4.776   0.490  0.00  0.00    -0.228 N 
ATOM      4  C   UNL     1      -2.656  -4.559   1.546  0.00  0.00    +0.315 C 
ATOM      5  O   UNL     1      -3.641  -5.255   1.697  0.00  0.00    -0.252 OA
ATOM      6  N   UNL     1      -2.395  -3.590   2.439  0.00  0.00    -0.239 N 
ATOM      7  C   UNL     1      -1.465  -2.649   2.190  0.00  0.00    +0.229 C 
ATOM      8  O   UNL     1      -1.185  -1.831   3.040  0.00  0.00    -0.275 OA
ATOM      9  H   UNL     1      -2.884  -3.568   3.277  0.00  0.00    +0.159 HD
ENDROOT
BRANCH   1  23
ATOM     10  N   UNL     1      -0.982  -0.506  -0.386  0.00  0.00    -0.293 NA
ATOM     11  C   UNL     1      -1.034   0.347   0.809  0.00  0.00    +0.090 C 
ATOM     12  C   UNL     1      -2.477   0.814   1.042  0.00  0.00    +0.053 C 
ATOM     13  C   UNL     1      -3.376  -0.395   0.966  0.00  0.00    -0.016 A 
ATOM     14  C   UNL     1      -4.743  -0.549   1.409  0.00  0.00    +0.003 A 
ATOM     15  C   UNL     1      -5.647   0.321   2.025  0.00  0.00    +0.010 A 
ATOM     16  C   UNL     1      -6.894  -0.179   2.311  0.00  0.00    +0.001 A 
ATOM     17  C   UNL     1      -7.252  -1.482   2.010  0.00  0.00    +0.002 A 
ATOM     18  C   UNL     1      -6.377  -2.366   1.401  0.00  0.00    +0.026 A 
ATOM     19  C   UNL     1      -5.105  -1.887   1.098  0.00  0.00    +0.047 A 
ATOM     20  N   UNL     1      -4.021  -2.476   0.512  0.00  0.00    -0.356 N 
ATOM     21  C   UNL     1      -2.991  -1.578   0.436  0.00  0.00    +0.038 A 
ATOM     22  H   UNL     1      -3.986  -3.392   0.197  0.00  0.00    +0.166 HD
ATOM     23  C   UNL     1      -1.615  -1.812  -0.141  0.00  0.00    +0.120 C 
BRANCH  10  25
ATOM     24  C   UNL     1       0.929   0.673  -1.361  0.00  0.00    +0.020 C 
ATOM     25  C   UNL     1       0.400  -0.670  -0.856  0.00  0.00    +0.082 C 
ENDBRANCH  10  25
ENDBRANCH   1  23
BRANCH   3  26
ATOM     26  C   UNL     1      -2.230  -5.712  -0.476  0.00  0.00    +0.048 A 
ATOM     27  C   UNL     1      -1.885  -7.039  -0.329  0.00  0.00    +0.024 A 
ATOM     28  C   UNL     1      -2.253  -7.980  -1.286  0.00  0.00    +0.002 A 
ATOM     29  C   UNL     1      -2.962  -7.618  -2.392  0.00  0.00    +0.008 A 
ATOM     30  C   UNL     1      -3.333  -6.276  -2.579  0.00  0.00    -0.016 A 
ATOM     31  C   UNL     1      -2.969  -5.310  -1.609  0.00  0.00    +0.004 A 
ATOM     32  C   UNL     1      -3.344  -3.970  -1.795  0.00  0.00    +0.010 A 
ATOM     33  C   UNL     1      -4.057  -3.618  -2.901  0.00  0.00    +0.001 A 
ATOM     34  C   UNL     1      -4.420  -4.568  -3.853  0.00  0.00    +0.001 A 
ATOM     35  C   UNL     1      -4.064  -5.874  -3.711  0.00  0.00    +0.008 A 
ENDBRANCH   3  26
BRANCH   2  36
ATOM     36  O   UNL     1      -0.230  -4.013  -1.044  0.00  0.00    -0.373 OA
ATOM     37  H   UNL     1      -0.116  -4.887  -1.441  0.00  0.00    +0.212 HD
ENDBRANCH   2  36
TORSDOF 4
