REMARK  Name = ZINC35926555
REMARK  8 active torsions:
REMARK  status: ('A' for Active; 'I' for Inactive)
REMARK    1  A    between atoms: C_1  and  C_2
REMARK    2  A    between atoms: C_6  and  N_9
REMARK    3  A    between atoms: C_7  and  C_8
REMARK    4  A    between atoms: N_12  and  C_15
REMARK    5  A    between atoms: C_15  and  C_16
REMARK    6  A    between atoms: C_30  and  C_32
REMARK    7  A    between atoms: C_32  and  C_33
REMARK    8  A    between atoms: C_33  and  C_34
REMARK                            x       y       z     vdW  Elec       q    Type
REMARK                         _______ _______ _______ _____ _____    ______ ____
ROOT
ATOM      1  C   UNL     1       1.156  -3.634   7.439  0.00  0.00    +0.034 A 
ATOM      2  C   UNL     1       2.230  -2.870   7.791  0.00  0.00    +0.091 A 
ATOM      3  C   UNL     1       3.413  -3.510   8.201  0.00  0.00    +0.253 A 
ATOM      4  O   UNL     1       4.393  -2.858   8.524  0.00  0.00    -0.268 OA
ATOM      5  N   UNL     1       3.445  -4.859   8.232  0.00  0.00    -0.295 N 
ATOM      6  H   UNL     1       4.250  -5.321   8.512  0.00  0.00    +0.172 HD
ATOM      7  C   UNL     1       2.342  -5.569   7.869  0.00  0.00    +0.198 A 
ATOM      8  N   UNL     1       1.235  -4.962   7.490  0.00  0.00    -0.223 NA
ATOM      9  N   UNL     1       2.382  -6.937   7.902  0.00  0.00    -0.298 N 
ATOM     10  C   UNL     1       3.556  -7.638   8.441  0.00  0.00    +0.127 C 
ATOM     11  C   UNL     1       3.092  -8.588   9.552  0.00  0.00    +0.126 C 
ATOM     12  N   UNL     1       1.961  -9.381   9.051  0.00  0.00    -0.298 N 
ATOM     13  C   UNL     1       0.787  -8.680   8.512  0.00  0.00    +0.126 C 
ATOM     14  C   UNL     1       1.249  -7.730   7.406  0.00  0.00    +0.127 C 
ATOM     15  C   UNL     1       2.000 -10.728   9.084  0.00  0.00    +0.216 C 
ATOM     16  O   UNL     1       2.974 -11.296   9.530  0.00  0.00    -0.276 OA
ENDROOT
BRANCH   1  17
ATOM     17  C   UNL     1      -0.125  -2.974   6.996  0.00  0.00    -0.022 C 
BRANCH  17  21
ATOM     18  N   UNL     1      -0.906  -2.812   2.889  0.00  0.00    -0.333 N 
ATOM     19  C   UNL     1      -2.019  -3.208   3.765  0.00  0.00    +0.086 C 
ATOM     20  C   UNL     1      -1.692  -2.763   5.195  0.00  0.00    -0.059 C 
ATOM     21  N   UNL     1      -0.387  -3.307   5.590  0.00  0.00    +0.385 N 
ATOM     22  C   UNL     1       0.670  -2.734   4.747  0.00  0.00    -0.059 C 
ATOM     23  C   UNL     1       0.460  -3.182   3.292  0.00  0.00    +0.086 C 
ATOM     24  H   UNL     1      -0.395  -4.311   5.481  0.00  0.00    -0.081 HD
BRANCH  18  30
ATOM     25  C   UNL     1      -1.394   1.476   0.537  0.00  0.00    +0.044 C 
ATOM     26  C   UNL     1      -1.382  -0.031   0.534  0.00  0.00    -0.046 A 
ATOM     27  C   UNL     1      -1.602  -0.721  -0.644  0.00  0.00    +0.004 A 
ATOM     28  C   UNL     1      -1.592  -2.104  -0.651  0.00  0.00    +0.002 A 
ATOM     29  C   UNL     1      -1.361  -2.800   0.519  0.00  0.00    +0.023 A 
ATOM     30  C   UNL     1      -1.139  -2.111   1.704  0.00  0.00    +0.033 A 
ATOM     31  C   UNL     1      -1.145  -0.721   1.706  0.00  0.00    -0.027 A 
ATOM     32  C   UNL     1      -0.899   0.032   2.989  0.00  0.00    +0.046 C 
ENDBRANCH  18  30
ENDBRANCH  17  21
ENDBRANCH   1  17
BRANCH  15  33
ATOM     33  C   UNL     1       0.833 -11.528   8.566  0.00  0.00    +0.096 C 
BRANCH  33  34
ATOM     34  C   UNL     1       1.131 -13.021   8.717  0.00  0.00    +0.013 C 
BRANCH  34  35
ATOM     35  C   UNL     1      -0.054 -13.834   8.192  0.00  0.00    -0.011 C 
ATOM     36  C   UNL     1      -1.278 -13.638   9.109  0.00  0.00    +0.003 C 
ATOM     37  C   UNL     1      -1.958 -15.029   9.139  0.00  0.00    +0.000 C 
ATOM     38  C   UNL     1      -0.750 -15.999   9.157  0.00  0.00    +0.000 C 
ATOM     39  C   UNL     1       0.282 -15.335   8.222  0.00  0.00    +0.003 C 
ENDBRANCH  34  35
ENDBRANCH  33  34
ENDBRANCH  15  33
TORSDOF 6
