REMARK  Name = ZINC02993595
REMARK  6 active torsions:
REMARK  status: ('A' for Active; 'I' for Inactive)
REMARK    1  A    between atoms: C_3  and  C_18
REMARK    2  A    between atoms: C_5  and  O_7
REMARK    3  A    between atoms: O_7  and  C_8
REMARK    4  A    between atoms: C_8  and  C_9
REMARK    5  A    between atoms: C_9  and  O_10
REMARK    6  A    between atoms: O_10  and  C_11
REMARK                            x       y       z     vdW  Elec       q    Type
REMARK                         _______ _______ _______ _____ _____    ______ ____
ROOT
ATOM      1  C   UNL     1      -3.248   2.847   4.134  0.00  0.00    +0.004 A 
ATOM      2  C   UNL     1      -4.499   2.297   4.319  0.00  0.00    +0.008 A 
ATOM      3  C   UNL     1      -4.883   1.171   3.582  0.00  0.00    -0.020 A 
ATOM      4  C   UNL     1      -3.994   0.613   2.657  0.00  0.00    +0.053 A 
ATOM      5  C   UNL     1      -2.740   1.172   2.486  0.00  0.00    +0.121 A 
ATOM      6  C   UNL     1      -2.369   2.290   3.223  0.00  0.00    +0.045 A 
ENDROOT
BRANCH   3   7
ATOM      7  C   UNL     1      -6.215   0.582   3.775  0.00  0.00    +0.028 C 
ATOM      8  C   UNL     1      -6.523  -0.603   3.191  0.00  0.00    +0.077 C 
ATOM      9  C   UNL     1      -7.821  -1.307   3.115  0.00  0.00    +0.256 C 
ATOM     10  O   UNL     1      -8.829  -0.846   3.615  0.00  0.00    -0.269 OA
ATOM     11  N   UNL     1      -7.830  -2.464   2.474  0.00  0.00    -0.270 N 
ATOM     12  C   UNL     1      -6.710  -2.972   1.921  0.00  0.00    +0.118 C 
ATOM     13  S   UNL     1      -6.521  -4.439   1.058  0.00  0.00    -0.027 S 
ATOM     14  S   UNL     1      -5.473  -1.740   2.297  0.00  0.00    -0.061 S 
ATOM     15  H   UNL     1      -8.661  -2.959   2.401  0.00  0.00    +0.156 HD
ENDBRANCH   3   7
BRANCH   5  16
ATOM     16  O   UNL     1      -1.871   0.629   1.593  0.00  0.00    -0.489 OA
BRANCH  16  17
ATOM     17  C   UNL     1      -0.596   1.260   1.463  0.00  0.00    +0.270 C 
BRANCH  17  18
ATOM     18  C   UNL     1       0.238   0.515   0.419  0.00  0.00    +0.270 C 
BRANCH  18  19
ATOM     19  O   UNL     1      -0.379   0.643  -0.864  0.00  0.00    -0.489 OA
BRANCH  19  20
ATOM     20  C   UNL     1       0.240   0.034  -1.909  0.00  0.00    +0.121 A 
ATOM     21  C   UNL     1       1.419  -0.667  -1.706  0.00  0.00    +0.047 A 
ATOM     22  C   UNL     1       2.043  -1.291  -2.770  0.00  0.00    +0.019 A 
ATOM     23  C   UNL     1       1.498  -1.206  -4.039  0.00  0.00    +0.018 A 
ATOM     24  C   UNL     1       0.325  -0.502  -4.245  0.00  0.00    +0.019 A 
ATOM     25  C   UNL     1      -0.305   0.118  -3.183  0.00  0.00    +0.047 A 
ATOM     26 BR   UNL     1       2.358  -2.054  -5.494  0.00  0.00    -0.050 Br
ENDBRANCH  19  20
ENDBRANCH  18  19
ENDBRANCH  17  18
ENDBRANCH  16  17
ENDBRANCH   5  16
TORSDOF 6
