REMARK  Name = ZINC27828416
REMARK  8 active torsions:
REMARK  status: ('A' for Active; 'I' for Inactive)
REMARK    1  A    between atoms: C_4  and  C_7
REMARK    2  A    between atoms: C_7  and  C_8
REMARK    3  A    between atoms: C_8  and  C_10
REMARK    4  A    between atoms: C_8  and  N_22
REMARK    5  A    between atoms: C_13  and  C_16
REMARK    6  A    between atoms: C_23  and  C_25
REMARK    7  A    between atoms: C_25  and  C_26
REMARK    8  A    between atoms: C_26  and  N_27
REMARK                            x       y       z     vdW  Elec       q    Type
REMARK                         _______ _______ _______ _____ _____    ______ ____
ROOT
ATOM      1  C   UNL     1       0.083  -4.173   2.589  0.00  0.00    +0.107 C 
ENDROOT
BRANCH   1   2
ATOM      2  C   UNL     1      -0.498  -4.691   3.879  0.00  0.00    -0.027 A 
ATOM      3  C   UNL     1      -0.196  -4.060   5.073  0.00  0.00    +0.006 A 
ATOM      4  C   UNL     1      -0.730  -4.526   6.257  0.00  0.00    +0.009 A 
ATOM      5  C   UNL     1      -1.566  -5.641   6.250  0.00  0.00    -0.018 A 
ATOM      6  C   UNL     1      -1.862  -6.276   5.046  0.00  0.00    +0.009 A 
ATOM      7  C   UNL     1      -1.327  -5.798   3.867  0.00  0.00    +0.006 A 
BRANCH   5   8
ATOM      8  C   UNL     1      -2.139  -6.151   7.521  0.00  0.00    -0.018 A 
ATOM      9  C   UNL     1      -2.979  -7.262   7.513  0.00  0.00    +0.008 A 
ATOM     10  C   UNL     1      -3.505  -7.734   8.699  0.00  0.00    +0.001 A 
ATOM     11  C   UNL     1      -3.207  -7.100   9.891  0.00  0.00    +0.000 A 
ATOM     12  C   UNL     1      -2.378  -5.994   9.904  0.00  0.00    +0.001 A 
ATOM     13  C   UNL     1      -1.842  -5.516   8.725  0.00  0.00    +0.008 A 
ENDBRANCH   5   8
ENDBRANCH   1   2
BRANCH   1  14
ATOM     14  N   UNL     1       0.064  -2.709   2.597  0.00  0.00    -0.308 N 
ATOM     15  C   UNL     1       0.043  -2.029   1.433  0.00  0.00    +0.215 C 
ATOM     16  O   UNL     1       0.041  -2.629   0.380  0.00  0.00    -0.276 OA
ATOM     17  H   UNL     1       0.065  -2.164   3.552  0.00  0.00    +0.149 HD
BRANCH  15  18
ATOM     18  C   UNL     1       0.023  -0.522   1.442  0.00  0.00    +0.115 C 
BRANCH  18  19
ATOM     19  C   UNL     1       0.002  -0.004   0.002  0.00  0.00    +0.126 C 
BRANCH  19  20
ATOM     20  N   UNL     1      -0.018   1.461   0.010  0.00  0.00    -0.234 N 
ATOM     21  C   UNL     1      -1.137   2.207   0.019  0.00  0.00    +0.254 C 
ATOM     22  O   UNL     1      -2.274   1.779   0.022  0.00  0.00    -0.270 OA
ATOM     23  C   UNL     1      -0.752   3.634   0.027  0.00  0.00    +0.049 A 
ATOM     24  C   UNL     1      -1.457   4.827   0.040  0.00  0.00    +0.014 A 
ATOM     25  C   UNL     1      -0.771   6.031   0.039  0.00  0.00    +0.001 A 
ATOM     26  C   UNL     1       0.611   6.050   0.026  0.00  0.00    +0.001 A 
ATOM     27  C   UNL     1       1.330   4.864   0.014  0.00  0.00    +0.014 A 
ATOM     28  C   UNL     1       0.657   3.653   0.015  0.00  0.00    +0.049 A 
ATOM     29  C   UNL     1       1.081   2.237   0.004  0.00  0.00    +0.254 C 
ATOM     30  O   UNL     1       2.229   1.841  -0.009  0.00  0.00    -0.270 OA
ENDBRANCH  19  20
ENDBRANCH  18  19
ENDBRANCH  15  18
ENDBRANCH   1  14
BRANCH   1  31
ATOM     31  C   UNL     1       1.526  -4.663   2.447  0.00  0.00    +0.062 C 
BRANCH  31  35
ATOM     32  C   UNL     1       3.059  -3.492  -1.364  0.00  0.00    +0.000 A 
ATOM     33  C   UNL     1       3.206  -2.655  -0.274  0.00  0.00    +0.000 A 
ATOM     34  C   UNL     1       2.709  -3.034   0.960  0.00  0.00    +0.004 A 
ATOM     35  C   UNL     1       2.067  -4.250   1.102  0.00  0.00    -0.045 A 
ATOM     36  C   UNL     1       1.925  -5.088   0.012  0.00  0.00    +0.004 A 
ATOM     37  C   UNL     1       2.416  -4.707  -1.222  0.00  0.00    +0.000 A 
ENDBRANCH  31  35
ENDBRANCH   1  31
TORSDOF 8
