REMARK  Name = ZINC38848367
REMARK  7 active torsions:
REMARK  status: ('A' for Active; 'I' for Inactive)
REMARK    1  A    between atoms: C_4  and  O_7
REMARK    2  A    between atoms: O_7  and  C_8
REMARK    3  A    between atoms: C_11  and  C_14
REMARK    4  A    between atoms: N_16  and  C_17
REMARK    5  A    between atoms: C_17  and  C_18
REMARK    6  A    between atoms: C_18  and  C_19
REMARK    7  A    between atoms: C_19  and  N_20
REMARK                            x       y       z     vdW  Elec       q    Type
REMARK                         _______ _______ _______ _____ _____    ______ ____
ROOT
ATOM      1  C   UNL     1       3.615  -6.511  -0.190  0.00  0.00    +0.252 C 
ATOM      2  O   UNL     1       3.698  -5.300  -0.120  0.00  0.00    -0.270 OA
ATOM      3  N   UNL     1       4.678  -7.237  -0.589  0.00  0.00    -0.246 N 
ATOM      4  C   UNL     1       5.847  -6.601  -0.971  0.00  0.00    +0.168 A 
ATOM      5  N   UNL     1       6.942  -7.123  -1.472  0.00  0.00    -0.221 NA
ATOM      6  C   UNL     1       8.018  -6.375  -1.803  0.00  0.00    +0.116 A 
ATOM      7  C   UNL     1       9.251  -6.809  -2.347  0.00  0.00    +0.152 A 
ATOM      8  C   UNL     1      10.249  -5.911  -2.627  0.00  0.00    +0.079 A 
ATOM      9  C   UNL     1      10.088  -4.551  -2.390  0.00  0.00    +0.127 A 
ATOM     10  C   UNL     1       8.895  -4.093  -1.859  0.00  0.00    +0.055 A 
ATOM     11  C   UNL     1       7.891  -4.986  -1.576  0.00  0.00    +0.046 A 
ATOM     12  S   UNL     1       6.246  -4.860  -0.915  0.00  0.00    -0.052 S 
ATOM     13  F   UNL     1      11.086  -3.686  -2.674  0.00  0.00    -0.205 F 
ATOM     14  F   UNL     1       9.446  -8.123  -2.592  0.00  0.00    -0.203 F 
ENDROOT
BRANCH   1  18
ATOM     15  C   UNL     1      -0.025  -8.450   0.822  0.00  0.00    +0.128 A 
ATOM     16  C   UNL     1       0.412  -7.361   1.569  0.00  0.00    +0.047 A 
ATOM     17  C   UNL     1       1.591  -6.730   1.244  0.00  0.00    +0.016 A 
ATOM     18  C   UNL     1       2.351  -7.185   0.162  0.00  0.00    +0.038 A 
ATOM     19  C   UNL     1       1.909  -8.280  -0.586  0.00  0.00    +0.016 A 
ATOM     20  C   UNL     1       0.731  -8.909  -0.251  0.00  0.00    +0.047 A 
BRANCH  15  21
ATOM     21  O   UNL     1      -1.188  -9.070   1.145  0.00  0.00    -0.456 OA
BRANCH  21  25
ATOM     22  C   UNL     1      -4.723  -7.247   0.051  0.00  0.00    +0.000 A 
ATOM     23  C   UNL     1      -4.745  -8.493   0.648  0.00  0.00    +0.004 A 
ATOM     24  C   UNL     1      -3.563  -9.106   1.016  0.00  0.00    +0.046 A 
ATOM     25  C   UNL     1      -2.352  -8.469   0.785  0.00  0.00    +0.128 A 
ATOM     26  C   UNL     1      -2.332  -7.218   0.186  0.00  0.00    +0.046 A 
ATOM     27  C   UNL     1      -3.518  -6.609  -0.180  0.00  0.00    +0.004 A 
ENDBRANCH  21  25
ENDBRANCH  15  21
ENDBRANCH   1  18
BRANCH   3  28
ATOM     28  C   UNL     1       4.596  -8.700  -0.619  0.00  0.00    +0.117 C 
BRANCH  28  29
ATOM     29  C   UNL     1       4.453  -9.173  -2.067  0.00  0.00    +0.041 C 
BRANCH  29  30
ATOM     30  C   UNL     1       4.225 -10.686  -2.088  0.00  0.00    +0.124 C 
BRANCH  30  31
ATOM     31  N   UNL     1       4.088 -11.139  -3.474  0.00  0.00    -0.338 N 
ATOM     32  C   UNL     1       2.925 -11.222  -4.191  0.00  0.00    +0.104 A 
ATOM     33  C   UNL     1       3.252 -11.683  -5.413  0.00  0.00    +0.101 A 
ATOM     34  N   UNL     1       4.579 -11.877  -5.442  0.00  0.00    -0.352 N 
ATOM     35  C   UNL     1       5.087 -11.549  -4.286  0.00  0.00    +0.173 A 
ATOM     36  H   UNL     1       5.082 -12.206  -6.204  0.00  0.00    +0.166 HD
ENDBRANCH  30  31
ENDBRANCH  29  30
ENDBRANCH  28  29
ENDBRANCH   3  28
TORSDOF 7
