REMARK  Name = ZINC14957819
REMARK  8 active torsions:
REMARK  status: ('A' for Active; 'I' for Inactive)
REMARK    1  A    between atoms: C_1  and  C_2
REMARK    2  A    between atoms: C_5  and  N_9
REMARK    3  A    between atoms: N_9  and  S_10
REMARK    4  A    between atoms: S_10  and  C_13
REMARK    5  A    between atoms: C_14  and  C_30
REMARK    6  A    between atoms: C_22  and  C_24
REMARK    7  A    between atoms: C_30  and  O_32
REMARK    8  A    between atoms: O_32  and  C_33
REMARK                            x       y       z     vdW  Elec       q    Type
REMARK                         _______ _______ _______ _____ _____    ______ ____
ROOT
ATOM      1  C   UNL     1      -4.317   1.259  -6.723  0.00  0.00    +0.160 A 
ATOM      2  C   UNL     1      -2.981   0.973  -6.902  0.00  0.00    +0.096 A 
ATOM      3  C   UNL     1      -2.042   1.473  -5.913  0.00  0.00    -0.018 A 
ATOM      4  C   UNL     1      -2.599   2.181  -4.904  0.00  0.00    +0.013 A 
ATOM      5  S   UNL     1      -4.333   2.183  -5.257  0.00  0.00    -0.071 S 
ATOM      6  C   UNL     1      -1.885   2.814  -3.753  0.00  0.00    +0.150 C 
ATOM      7  N   UNL     1      -0.487   2.340  -3.789  0.00  0.00    -0.296 N 
ATOM      8  C   UNL     1       0.172   2.268  -5.101  0.00  0.00    +0.113 C 
ATOM      9  C   UNL     1      -0.539   1.234  -5.977  0.00  0.00    +0.056 C 
ATOM     10  C   UNL     1       0.158   1.982  -2.661  0.00  0.00    +0.219 C 
ATOM     11  O   UNL     1       1.305   1.591  -2.717  0.00  0.00    -0.275 OA
ENDROOT
BRANCH  10  12
ATOM     12  C   UNL     1      -0.544   2.067  -1.331  0.00  0.00    +0.075 C 
ATOM     13  C   UNL     1       0.404   1.607  -0.222  0.00  0.00    +0.013 C 
ATOM     14  C   UNL     1      -0.309   1.693   1.128  0.00  0.00    +0.001 C 
ATOM     15  C   UNL     1      -0.734   3.140   1.389  0.00  0.00    +0.000 C 
ATOM     16  C   UNL     1      -1.682   3.601   0.281  0.00  0.00    +0.001 C 
ATOM     17  C   UNL     1      -0.969   3.514  -1.070  0.00  0.00    +0.013 C 
ENDBRANCH  10  12
BRANCH   1  18
ATOM     18  S   UNL     1      -5.680   0.795  -7.739  0.00  0.00    +0.079 S 
ATOM     19  O   UNL     1      -5.385   1.258  -9.050  0.00  0.00    -0.149 OA
ATOM     20  O   UNL     1      -5.952  -0.571  -7.457  0.00  0.00    -0.149 OA
BRANCH  18  21
ATOM     21  N   UNL     1      -6.995   1.657  -7.218  0.00  0.00    -0.216 N 
ATOM     22  H   UNL     1      -7.434   2.282  -7.816  0.00  0.00    +0.174 HD
BRANCH  21  27
ATOM     23  C   UNL     1      -8.931   0.948  -1.933  0.00  0.00    +0.047 C 
ATOM     24  C   UNL     1      -8.417   1.137  -3.337  0.00  0.00    -0.015 A 
ATOM     25  C   UNL     1      -8.104   0.035  -4.112  0.00  0.00    +0.008 A 
ATOM     26  C   UNL     1      -7.638   0.204  -5.401  0.00  0.00    +0.025 A 
ATOM     27  C   UNL     1      -7.472   1.484  -5.916  0.00  0.00    +0.051 A 
ATOM     28  C   UNL     1      -7.786   2.589  -5.138  0.00  0.00    +0.063 A 
ATOM     29  C   UNL     1      -8.258   2.414  -3.849  0.00  0.00    +0.128 A 
ATOM     30  F   UNL     1      -8.564   3.488  -3.090  0.00  0.00    -0.205 F 
ENDBRANCH  21  27
ENDBRANCH  18  21
ENDBRANCH   1  18
BRANCH   2  31
ATOM     31  C   UNL     1      -2.520   0.189  -8.057  0.00  0.00    +0.342 C 
ATOM     32  O   UNL     1      -2.444  -1.022  -7.978  0.00  0.00    -0.245 OA
BRANCH  31  33
ATOM     33  O   UNL     1      -2.182   0.812  -9.203  0.00  0.00    -0.464 OA
ATOM     34  C   UNL     1      -1.736  -0.026 -10.302  0.00  0.00    +0.280 C 
ENDBRANCH  31  33
ENDBRANCH   2  31
TORSDOF 6
