REMARK  Name = ZINC50675511
REMARK  3 active torsions:
REMARK  status: ('A' for Active; 'I' for Inactive)
REMARK    1  A    between atoms: C_1  and  N_2
REMARK    2  A    between atoms: C_4  and  S_10
REMARK    3  A    between atoms: S_10  and  N_13
REMARK                            x       y       z     vdW  Elec       q    Type
REMARK                         _______ _______ _______ _____ _____    ______ ____
ROOT
ATOM      1  S   UNL     1       0.369  -2.971  -0.005  0.00  0.00    +0.104 S 
ATOM      2  O   UNL     1       1.170  -2.390   1.015  0.00  0.00    -0.146 OA
ATOM      3  O   UNL     1       0.056  -4.356  -0.032  0.00  0.00    -0.146 OA
ENDROOT
BRANCH   1   7
ATOM      4  C   UNL     1      -0.018   1.461   0.010  0.00  0.00    +0.127 C 
ATOM      5  N   UNL     1       0.002  -0.004   0.002  0.00  0.00    -0.331 N 
ATOM      6  C   UNL     1      -1.192  -0.716   0.010  0.00  0.00    +0.146 A 
ATOM      7  C   UNL     1      -1.166  -2.107   0.008  0.00  0.00    +0.153 A 
ATOM      8  C   UNL     1      -2.362  -2.802   0.015  0.00  0.00    +0.049 A 
ATOM      9  C   UNL     1      -3.549  -2.080   0.025  0.00  0.00    +0.038 A 
ATOM     10  C   UNL     1      -3.500  -0.700   0.026  0.00  0.00    +0.128 A 
ATOM     11  N   UNL     1      -2.344  -0.063   0.024  0.00  0.00    -0.237 NA
ATOM     12 BR   UNL     1      -5.213  -2.978   0.035  0.00  0.00    -0.049 Br
ATOM     13  H   UNL     1       0.849  -0.478  -0.009  0.00  0.00    +0.147 HD
ENDBRANCH   1   7
BRANCH   1  14
ATOM     14  N   UNL     1       1.113  -2.626  -1.444  0.00  0.00    -0.103 NA
ATOM     15  C   UNL     1       2.285  -3.145  -1.717  0.00  0.00    +0.192 A 
ATOM     16  N   UNL     1       3.058  -3.991  -0.964  0.00  0.00    -0.336 N 
ATOM     17  C   UNL     1       4.283  -4.424  -1.454  0.00  0.00    +0.028 A 
ATOM     18  C   UNL     1       4.654  -3.983  -2.656  0.00  0.00    +0.012 A 
ATOM     19  S   UNL     1       3.301  -2.948  -3.171  0.00  0.00    -0.053 S 
ATOM     20  C   UNL     1       5.996  -4.511  -3.077  0.00  0.00    +0.044 C 
ATOM     21  C   UNL     1       6.634  -5.030  -1.770  0.00  0.00    +0.011 C 
ATOM     22  C   UNL     1       5.386  -5.346  -0.922  0.00  0.00    +0.054 C 
ATOM     23  H   UNL     1       2.750  -4.286  -0.093  0.00  0.00    +0.168 HD
ENDBRANCH   1  14
TORSDOF 2
