REMARK  Name = ZINC21135514
REMARK  7 active torsions:
REMARK  status: ('A' for Active; 'I' for Inactive)
REMARK    1  A    between atoms: C_1  and  C_2
REMARK    2  A    between atoms: C_5  and  S_7
REMARK    3  A    between atoms: S_7  and  N_10
REMARK    4  A    between atoms: C_14  and  C_17
REMARK    5  A    between atoms: C_22  and  C_25
REMARK    6  A    between atoms: C_25  and  N_26
REMARK    7  A    between atoms: C_29  and  C_32
REMARK                            x       y       z     vdW  Elec       q    Type
REMARK                         _______ _______ _______ _____ _____    ______ ____
ROOT
ATOM      1  C   UNL     1      -6.913  -2.912  -3.433  0.00  0.00    +0.223 C 
ATOM      2  O   UNL     1      -7.815  -2.219  -3.012  0.00  0.00    -0.275 OA
ATOM      3  N   UNL     1      -5.654  -2.432  -3.465  0.00  0.00    -0.264 N 
ATOM      4  C   UNL     1      -5.390  -1.143  -3.014  0.00  0.00    +0.165 A 
ATOM      5  N   UNL     1      -4.238  -0.502  -2.965  0.00  0.00    -0.231 NA
ATOM      6  C   UNL     1      -4.161   0.730  -2.503  0.00  0.00    +0.034 A 
ATOM      7  C   UNL     1      -5.298   1.330  -2.072  0.00  0.00    +0.070 A 
ATOM      8  S   UNL     1      -6.491   0.035  -2.371  0.00  0.00    -0.060 S 
ATOM      9  H   UNL     1      -4.835  -3.059  -3.847  0.00  0.00    +0.157 HD
ENDROOT
BRANCH   1  14
ATOM     10  N   UNL     1      -8.936  -6.009  -4.131  0.00  0.00    -0.175 NA
ATOM     11  C   UNL     1      -8.154  -7.054  -3.456  0.00  0.00    +0.109 C 
ATOM     12  C   UNL     1      -6.664  -6.730  -3.606  0.00  0.00    +0.018 C 
ATOM     13  C   UNL     1      -6.399  -5.314  -3.090  0.00  0.00    +0.015 C 
ATOM     14  C   UNL     1      -7.199  -4.308  -3.921  0.00  0.00    +0.091 C 
ATOM     15  C   UNL     1      -8.695  -4.605  -3.775  0.00  0.00    +0.122 C 
BRANCH  10  16
ATOM     16  S   UNL     1     -10.066  -6.408  -5.274  0.00  0.00    +0.067 S 
ATOM     17  O   UNL     1     -10.226  -5.265  -6.103  0.00  0.00    -0.152 OA
ATOM     18  O   UNL     1      -9.693  -7.678  -5.790  0.00  0.00    -0.152 OA
BRANCH  16  23
ATOM     19  C   UNL     1     -14.925  -8.121  -2.365  0.00  0.00    +0.051 C 
ATOM     20  C   UNL     1     -13.805  -7.437  -3.106  0.00  0.00    -0.011 A 
ATOM     21  C   UNL     1     -13.697  -6.138  -3.478  0.00  0.00    +0.013 A 
ATOM     22  C   UNL     1     -12.563  -5.727  -4.153  0.00  0.00    +0.036 A 
ATOM     23  C   UNL     1     -11.598  -6.637  -4.433  0.00  0.00    +0.143 A 
ATOM     24  S   UNL     1     -12.278  -8.126  -3.721  0.00  0.00    -0.074 S 
ENDBRANCH  16  23
ENDBRANCH  10  16
ENDBRANCH   1  14
BRANCH   6  25
ATOM     25  C   UNL     1      -2.840   1.453  -2.452  0.00  0.00    -0.022 C 
BRANCH  25  26
ATOM     26  N   UNL     1      -2.138   1.101  -1.210  0.00  0.00    +0.383 N 
ATOM     27  C   UNL     1      -0.754   1.594  -1.231  0.00  0.00    -0.078 C 
ATOM     28  C   UNL     1      -0.013   1.086   0.008  0.00  0.00    -0.016 C 
ATOM     29  C   UNL     1      -0.731   1.580   1.267  0.00  0.00    -0.018 C 
ATOM     30  C   UNL     1      -2.184   1.095   1.239  0.00  0.00    -0.016 C 
ATOM     31  C   UNL     1      -2.862   1.602  -0.035  0.00  0.00    -0.078 C 
ATOM     32  C   UNL     1      -0.029   1.026   2.507  0.00  0.00    +0.007 C 
ATOM     33  H   UNL     1      -2.102   0.004  -1.140  0.00  0.00    -0.081 HD
ENDBRANCH  25  26
ENDBRANCH   6  25
TORSDOF 5
