REMARK  Name = ZINC08299842
REMARK  7 active torsions:
REMARK  status: ('A' for Active; 'I' for Inactive)
REMARK    1  A    between atoms: C_6  and  C_7
REMARK    2  A    between atoms: C_7  and  N_8
REMARK    3  A    between atoms: C_9  and  C_11
REMARK    4  A    between atoms: C_19  and  C_21
REMARK    5  A    between atoms: C_21  and  N_22
REMARK    6  A    between atoms: C_24  and  C_27
REMARK    7  A    between atoms: C_27  and  O_32
REMARK                            x       y       z     vdW  Elec       q    Type
REMARK                         _______ _______ _______ _____ _____    ______ ____
ROOT
ATOM      1  C   UNL     1       5.626   3.403  -3.084  0.00  0.00    +0.061 C 
ATOM      2  C   UNL     1       4.546   4.229  -3.789  0.00  0.00    -0.065 C 
ATOM      3  C   UNL     1       6.201   5.274  -5.217  0.00  0.00    -0.078 C 
ATOM      4  C   UNL     1       7.327   4.478  -4.552  0.00  0.00    -0.015 C 
ATOM      5  C   UNL     1       6.940   4.194  -3.095  0.00  0.00    -0.004 C 
ATOM      6  C   UNL     1       6.718   5.522  -2.362  0.00  0.00    -0.010 C 
ATOM      7  C   UNL     1       5.604   6.298  -3.105  0.00  0.00    -0.046 C 
ATOM      8  N   UNL     1       5.104   5.517  -4.256  0.00  0.00    +0.383 N 
ATOM      9  H   UNL     1       4.362   6.051  -4.724  0.00  0.00    -0.081 HD
ENDROOT
BRANCH   1  11
ATOM     10  N   UNL     1       4.076   2.453  -1.407  0.00  0.00    -0.311 N 
ATOM     11  C   UNL     1       5.209   3.137  -1.660  0.00  0.00    +0.215 C 
ATOM     12  O   UNL     1       5.893   3.539  -0.743  0.00  0.00    -0.276 OA
ATOM     13  H   UNL     1       3.529   2.132  -2.140  0.00  0.00    +0.149 HD
BRANCH  10  14
ATOM     14  C   UNL     1       3.671   2.195  -0.023  0.00  0.00    +0.139 C 
BRANCH  14  20
ATOM     15  C   UNL     1       1.171   2.089   0.002  0.00  0.00    +0.009 A 
ATOM     16  C   UNL     1      -0.017   1.381   0.010  0.00  0.00    +0.050 A 
ATOM     17  C   UNL     1       0.002  -0.004   0.002  0.00  0.00    +0.166 A 
ATOM     18  C   UNL     1       1.220  -0.680  -0.013  0.00  0.00    +0.167 A 
ATOM     19  C   UNL     1       2.405   0.035  -0.021  0.00  0.00    +0.054 A 
ATOM     20  C   UNL     1       2.379   1.418  -0.014  0.00  0.00    -0.027 A 
ATOM     21  O   UNL     1       0.973  -2.023  -0.019  0.00  0.00    -0.453 OA
ATOM     22  C   UNL     1      -0.396  -2.164   0.406  0.00  0.00    +0.466 C 
ATOM     23  O   UNL     1      -1.007  -0.923   0.006  0.00  0.00    -0.453 OA
ENDBRANCH  14  20
ENDBRANCH  10  14
ENDBRANCH   1  11
BRANCH   7  24
ATOM     24  C   UNL     1       4.446   6.557  -2.139  0.00  0.00    +0.130 C 
BRANCH  24  25
ATOM     25  N   UNL     1       3.437   7.390  -2.797  0.00  0.00    -0.253 N 
ATOM     26  C   UNL     1       2.126   7.086  -2.937  0.00  0.00    +0.136 A 
ATOM     27  C   UNL     1       1.566   8.126  -3.598  0.00  0.00    +0.114 A 
ATOM     28  N   UNL     1       2.551   9.000  -3.835  0.00  0.00    -0.132 NA
ATOM     29  N   UNL     1       3.647   8.534  -3.348  0.00  0.00    -0.065 NA
BRANCH  27  30
ATOM     30  C   UNL     1       0.119   8.269  -3.995  0.00  0.00    +0.111 C 
ATOM     31  C   UNL     1      -0.277   7.136  -4.964  0.00  0.00    +0.041 C 
ATOM     32  C   UNL     1      -1.242   7.816  -5.967  0.00  0.00    +0.003 C 
ATOM     33  C   UNL     1      -0.608   9.216  -6.157  0.00  0.00    +0.003 C 
ATOM     34  C   UNL     1      -0.091   9.591  -4.753  0.00  0.00    +0.041 C 
BRANCH  30  35
ATOM     35  O   UNL     1      -0.712   8.232  -2.833  0.00  0.00    -0.382 OA
ATOM     36  H   UNL     1      -0.632   7.418  -2.318  0.00  0.00    +0.211 HD
ENDBRANCH  30  35
ENDBRANCH  27  30
ENDBRANCH  24  25
ENDBRANCH   7  24
TORSDOF 7
