REMARK  Name = ZINC61952321
REMARK  5 active torsions:
REMARK  status: ('A' for Active; 'I' for Inactive)
REMARK    1  A    between atoms: C_1  and  N_2
REMARK    2  A    between atoms: N_2  and  C_3
REMARK    3  A    between atoms: C_6  and  C_9
REMARK    4  A    between atoms: N_10  and  O_11
REMARK    5  A    between atoms: C_13  and  C_15
REMARK                            x       y       z     vdW  Elec       q    Type
REMARK                         _______ _______ _______ _____ _____    ______ ____
ROOT
ATOM      1  C   UNL     1       0.491  -0.758   1.151  0.00  0.00    +0.036 A 
ATOM      2  C   UNL     1       0.428  -2.147   1.144  0.00  0.00    +0.024 A 
ATOM      3  C   UNL     1       0.632  -2.854   2.309  0.00  0.00    +0.013 A 
ATOM      4  C   UNL     1       0.903  -2.174   3.497  0.00  0.00    +0.018 A 
ATOM      5  C   UNL     1       0.966  -0.780   3.502  0.00  0.00    +0.013 A 
ATOM      6  C   UNL     1       0.766  -0.079   2.333  0.00  0.00    +0.024 A 
ENDROOT
BRANCH   4   7
ATOM      7  C   UNL     1       1.122  -2.930   4.750  0.00  0.00    +0.162 C 
ATOM      8  N   UNL     1       1.062  -4.230   4.744  0.00  0.00    -0.072 NA
ATOM      9  N   UNL     1       1.390  -2.255   5.928  0.00  0.00    -0.340 N 
ATOM     10  H   UNL     1       1.435  -1.286   5.933  0.00  0.00    +0.144 HD
ATOM     11  H   UNL     1       1.534  -2.750   6.750  0.00  0.00    +0.144 HD
BRANCH   8  12
ATOM     12  O   UNL     1       1.272  -4.954   5.943  0.00  0.00    -0.408 OA
ATOM     13  H   UNL     1       1.208  -5.913   5.840  0.00  0.00    +0.328 HD
ENDBRANCH   8  12
ENDBRANCH   4   7
BRANCH   1  15
ATOM     14  C   UNL     1       0.530   1.399  -0.068  0.00  0.00    +0.138 C 
ATOM     15  N   UNL     1       0.283  -0.044  -0.031  0.00  0.00    -0.274 N 
ATOM     16  C   UNL     1      -0.145  -0.683  -1.138  0.00  0.00    +0.223 C 
ATOM     17  O   UNL     1      -0.464  -1.852  -1.078  0.00  0.00    -0.275 OA
BRANCH  16  18
ATOM     18  C   UNL     1      -0.227   0.054  -2.449  0.00  0.00    +0.076 C 
ATOM     19  C   UNL     1      -1.475   0.938  -2.461  0.00  0.00    +0.013 C 
ATOM     20  C   UNL     1      -1.558   1.687  -3.792  0.00  0.00    +0.001 C 
ATOM     21  C   UNL     1      -1.637   0.678  -4.940  0.00  0.00    +0.000 C 
ATOM     22  C   UNL     1      -0.389  -0.206  -4.929  0.00  0.00    +0.001 C 
ATOM     23  C   UNL     1      -0.306  -0.955  -3.597  0.00  0.00    +0.013 C 
ENDBRANCH  16  18
ENDBRANCH   1  15
TORSDOF 4
