REMARK  Name = ZINC39685876
REMARK  12 active torsions:
REMARK  status: ('A' for Active; 'I' for Inactive)
REMARK    1  A    between atoms: C_1  and  C_2
REMARK    2  A    between atoms: C_2  and  C_3
REMARK    3  A    between atoms: C_2  and  C_4
REMARK    4  A    between atoms: C_4  and  C_6
REMARK    5  A    between atoms: C_4  and  N_13
REMARK    6  A    between atoms: N_8  and  C_9
REMARK    7  A    between atoms: C_9  and  C_10
REMARK    8  A    between atoms: C_9  and  C_11
REMARK    9  A    between atoms: C_9  and  C_12
REMARK   10  A    between atoms: C_14  and  C_16
REMARK   11  A    between atoms: C_27  and  C_29
REMARK   12  A    between atoms: C_32  and  C_34
REMARK                            x       y       z     vdW  Elec       q    Type
REMARK                         _______ _______ _______ _____ _____    ______ ____
ROOT
ATOM      1  C   UNL     1      -0.441  -3.956   1.571  0.00  0.00    +0.100 C 
ATOM      2  C   UNL     1      -1.546  -4.868   0.993  0.00  0.00    +0.121 C 
ATOM      3  N   UNL     1      -1.582  -6.036   1.904  0.00  0.00    -0.294 N 
ATOM      4  C   UNL     1      -1.395  -5.455   3.255  0.00  0.00    +0.115 C 
ATOM      5  C   UNL     1      -0.345  -4.343   3.056  0.00  0.00    -0.004 C 
ATOM      6  C   UNL     1       1.050  -4.872   3.375  0.00  0.00    -0.010 C 
ATOM      7  C   UNL     1       1.139  -5.198   4.868  0.00  0.00    -0.082 C 
ATOM      8  N   UNL     1       0.861  -3.988   5.652  0.00  0.00    +0.379 N 
ATOM      9  C   UNL     1      -0.515  -3.539   5.409  0.00  0.00    -0.082 C 
ATOM     10  C   UNL     1      -0.673  -3.143   3.938  0.00  0.00    -0.010 C 
ATOM     11  C   UNL     1      -1.748  -7.333   1.579  0.00  0.00    +0.282 C 
ATOM     12  O   UNL     1      -1.755  -8.183   2.450  0.00  0.00    -0.267 OA
ATOM     13  H   UNL     1       0.979  -4.190   6.633  0.00  0.00    -0.086 HD
ATOM     14  H   UNL     1       1.504  -3.259   5.381  0.00  0.00    -0.086 HD
ENDROOT
BRANCH  11  15
ATOM     15  C   UNL     1      -1.920  -7.720   0.176  0.00  0.00    +0.190 A 
ATOM     16  C   UNL     1      -2.103  -9.002  -0.292  0.00  0.00    +0.055 A 
ATOM     17  C   UNL     1      -2.221  -8.911  -1.683  0.00  0.00    +0.050 A 
ATOM     18  C   UNL     1      -2.107  -7.590  -2.009  0.00  0.00    +0.136 A 
ATOM     19  O   UNL     1      -1.931  -6.881  -0.881  0.00  0.00    -0.450 OA
BRANCH  18  20
ATOM     20  C   UNL     1      -2.171  -7.032  -3.375  0.00  0.00    +0.017 A 
ATOM     21  C   UNL     1      -2.370  -7.878  -4.469  0.00  0.00    +0.014 A 
ATOM     22  C   UNL     1      -2.430  -7.352  -5.742  0.00  0.00    +0.039 A 
ATOM     23  C   UNL     1      -2.293  -5.986  -5.937  0.00  0.00    +0.123 A 
ATOM     24  C   UNL     1      -2.096  -5.142  -4.855  0.00  0.00    +0.039 A 
ATOM     25  C   UNL     1      -2.040  -5.657  -3.578  0.00  0.00    +0.014 A 
ATOM     26  F   UNL     1      -2.353  -5.476  -7.187  0.00  0.00    -0.205 F 
ENDBRANCH  18  20
ENDBRANCH  11  15
BRANCH   1  28
ATOM     27  N   UNL     1      -2.060  -2.100   1.804  0.00  0.00    -0.303 N 
ATOM     28  C   UNL     1      -0.830  -2.506   1.431  0.00  0.00    +0.219 C 
ATOM     29  O   UNL     1      -0.037  -1.706   0.983  0.00  0.00    -0.275 OA
ATOM     30  H   UNL     1      -2.669  -2.725   2.227  0.00  0.00    +0.149 HD
BRANCH  27  31
ATOM     31  C   UNL     1      -2.476  -0.715   1.569  0.00  0.00    +0.161 C 
BRANCH  31  32
ATOM     32  C   UNL     1      -3.550  -0.339   2.557  0.00  0.00    +0.234 C 
ATOM     33  O   UNL     1      -4.151  -1.204   3.158  0.00  0.00    -0.274 OA
ATOM     34  N   UNL     1      -3.841   0.959   2.774  0.00  0.00    -0.309 N 
ATOM     35  H   UNL     1      -3.312   1.652   2.350  0.00  0.00    +0.149 HD
BRANCH  34  36
ATOM     36  C   UNL     1      -4.957   1.322   3.650  0.00  0.00    +0.026 C 
ATOM     37  C   UNL     1      -4.710   0.760   5.051  0.00  0.00    +0.031 C 
ATOM     38  C   UNL     1      -5.072   2.846   3.725  0.00  0.00    +0.031 C 
ATOM     39  C   UNL     1      -6.257   0.740   3.090  0.00  0.00    +0.031 C 
ENDBRANCH  34  36
ENDBRANCH  31  32
BRANCH  31  41
ATOM     40  C   UNL     1      -1.916  -0.905  -0.859  0.00  0.00    +0.009 C 
ATOM     41  C   UNL     1      -3.023  -0.582   0.146  0.00  0.00    +0.012 C 
ATOM     42  C   UNL     1      -4.187  -1.556  -0.047  0.00  0.00    +0.009 C 
ENDBRANCH  31  41
ENDBRANCH  27  31
ENDBRANCH   1  28
TORSDOF 7
