REMARK  Name = ZINC39658996
REMARK  8 active torsions:
REMARK  status: ('A' for Active; 'I' for Inactive)
REMARK    1  A    between atoms: C_1  and  C_2
REMARK    2  A    between atoms: C_2  and  C_33
REMARK    3  A    between atoms: C_5  and  C_8
REMARK    4  A    between atoms: C_8  and  N_9
REMARK    5  A    between atoms: C_10  and  C_12
REMARK    6  A    between atoms: C_23  and  C_25
REMARK    7  A    between atoms: C_25  and  C_26
REMARK    8  A    between atoms: C_26  and  C_27
REMARK                            x       y       z     vdW  Elec       q    Type
REMARK                         _______ _______ _______ _____ _____    ______ ____
ROOT
ATOM      1  C   UNL     1       3.644  -2.112   5.177  0.00  0.00    +0.100 C 
ATOM      2  C   UNL     1       3.410  -3.632   5.028  0.00  0.00    +0.121 C 
ATOM      3  N   UNL     1       4.751  -4.236   5.209  0.00  0.00    -0.300 N 
ATOM      4  C   UNL     1       5.371  -3.440   6.295  0.00  0.00    +0.115 C 
ATOM      5  C   UNL     1       4.930  -1.990   6.011  0.00  0.00    -0.004 C 
ATOM      6  C   UNL     1       6.008  -1.257   5.218  0.00  0.00    -0.010 C 
ATOM      7  C   UNL     1       7.257  -1.099   6.090  0.00  0.00    -0.082 C 
ATOM      8  N   UNL     1       6.917  -0.346   7.303  0.00  0.00    +0.379 N 
ATOM      9  C   UNL     1       5.949  -1.101   8.106  0.00  0.00    -0.082 C 
ATOM     10  C   UNL     1       4.644  -1.260   7.320  0.00  0.00    -0.010 C 
ATOM     11  C   UNL     1       5.286  -5.276   4.538  0.00  0.00    +0.216 C 
ATOM     12  O   UNL     1       6.405  -5.658   4.804  0.00  0.00    -0.276 OA
ATOM     13  H   UNL     1       7.753  -0.190   7.846  0.00  0.00    -0.086 HD
ATOM     14  H   UNL     1       6.517   0.543   7.044  0.00  0.00    -0.086 HD
ENDROOT
BRANCH   1  16
ATOM     15  N   UNL     1       3.494  -0.185   3.633  0.00  0.00    -0.312 N 
ATOM     16  C   UNL     1       3.835  -1.475   3.824  0.00  0.00    +0.218 C 
ATOM     17  O   UNL     1       4.294  -2.123   2.908  0.00  0.00    -0.275 OA
ATOM     18  H   UNL     1       3.127   0.334   4.365  0.00  0.00    +0.149 HD
BRANCH  15  19
ATOM     19  C   UNL     1       3.679   0.434   2.318  0.00  0.00    +0.138 C 
BRANCH  19  24
ATOM     20  C   UNL     1       5.739   4.151   2.056  0.00  0.00    +0.074 C 
ATOM     21  C   UNL     1       4.278   3.949   2.465  0.00  0.00    +0.165 C 
ATOM     22  O   UNL     1       3.446   3.939   1.292  0.00  0.00    -0.347 OA
ATOM     23  C   UNL     1       3.283   2.538   0.965  0.00  0.00    +0.196 C 
ATOM     24  C   UNL     1       3.218   1.892   2.371  0.00  0.00    +0.164 C 
ATOM     25  O   UNL     1       4.136   2.693   3.142  0.00  0.00    -0.342 OA
ATOM     26  C   UNL     1       3.842   5.085   3.392  0.00  0.00    +0.074 C 
ENDBRANCH  19  24
ENDBRANCH  15  19
ENDBRANCH   1  16
BRANCH  11  27
ATOM     27  C   UNL     1       4.492  -5.963   3.457  0.00  0.00    +0.100 C 
BRANCH  27  28
ATOM     28  C   UNL     1       5.323  -7.101   2.859  0.00  0.00    +0.044 C 
BRANCH  28  29
ATOM     29  C   UNL     1       4.530  -7.788   1.778  0.00  0.00    -0.047 A 
ATOM     30  C   UNL     1       3.710  -8.856   2.095  0.00  0.00    +0.003 A 
ATOM     31  C   UNL     1       2.983  -9.486   1.103  0.00  0.00    +0.000 A 
ATOM     32  C   UNL     1       3.074  -9.049  -0.205  0.00  0.00    +0.000 A 
ATOM     33  C   UNL     1       3.892  -7.981  -0.522  0.00  0.00    +0.000 A 
ATOM     34  C   UNL     1       4.617  -7.348   0.471  0.00  0.00    +0.003 A 
ENDBRANCH  28  29
ENDBRANCH  27  28
ENDBRANCH  11  27
TORSDOF 6
