REMARK  Name = ZINC33225970
REMARK  7 active torsions:
REMARK  status: ('A' for Active; 'I' for Inactive)
REMARK    1  A    between atoms: C_1  and  C_2
REMARK    2  A    between atoms: C_2  and  C_4
REMARK    3  A    between atoms: C_2  and  O_17
REMARK    4  A    between atoms: N_6  and  N_7
REMARK    5  A    between atoms: C_8  and  C_10
REMARK    6  A    between atoms: C_15  and  O_16
REMARK    7  A    between atoms: O_17  and  C_18
REMARK                            x       y       z     vdW  Elec       q    Type
REMARK                         _______ _______ _______ _____ _____    ______ ____
ROOT
ATOM      1  C   UNL     1       0.626  -0.284  -1.345  0.00  0.00    +0.270 C 
ATOM      2  O   UNL     1      -0.044  -0.756  -2.238  0.00  0.00    -0.270 OA
ATOM      3  N   UNL     1       1.927  -0.002  -1.556  0.00  0.00    -0.231 N 
ATOM      4  H   UNL     1       2.464   0.376  -0.841  0.00  0.00    +0.173 HD
ENDROOT
BRANCH   3   5
ATOM      5  N   UNL     1       2.505  -0.254  -2.807  0.00  0.00    -0.230 N 
ATOM      6  C   UNL     1       3.806   0.028  -3.018  0.00  0.00    +0.264 C 
ATOM      7  O   UNL     1       4.478   0.501  -2.122  0.00  0.00    -0.269 OA
ATOM      8  H   UNL     1       1.969  -0.632  -3.521  0.00  0.00    +0.173 HD
BRANCH   6   9
ATOM      9  C   UNL     1       4.414  -0.238  -4.335  0.00  0.00    +0.079 A 
ATOM     10  C   UNL     1       3.644  -0.776  -5.369  0.00  0.00    +0.017 A 
ATOM     11  C   UNL     1       4.218  -1.022  -6.597  0.00  0.00    +0.001 A 
ATOM     12  C   UNL     1       5.557  -0.738  -6.813  0.00  0.00    +0.004 A 
ATOM     13  C   UNL     1       6.330  -0.206  -5.800  0.00  0.00    +0.046 A 
ATOM     14  C   UNL     1       5.767   0.054  -4.559  0.00  0.00    +0.129 A 
BRANCH  14  15
ATOM     15  O   UNL     1       6.523   0.582  -3.565  0.00  0.00    -0.506 OA
ATOM     16  H   UNL     1       6.962  -0.078  -3.011  0.00  0.00    +0.292 HD
ENDBRANCH  14  15
ENDBRANCH   6   9
ENDBRANCH   3   5
BRANCH   1  18
ATOM     17  C   UNL     1       0.005   1.494   0.268  0.00  0.00    +0.062 C 
ATOM     18  C   UNL     1       0.005  -0.013   0.001  0.00  0.00    +0.257 C 
BRANCH  18  19
ATOM     19  O   UNL     1      -1.339  -0.499   0.012  0.00  0.00    -0.479 OA
BRANCH  19  20
ATOM     20  C   UNL     1      -1.870  -0.818   1.222  0.00  0.00    +0.136 A 
ATOM     21  C   UNL     1      -1.155  -0.561   2.383  0.00  0.00    +0.049 A 
ATOM     22  C   UNL     1      -1.696  -0.886   3.612  0.00  0.00    +0.042 A 
ATOM     23  C   UNL     1      -2.951  -1.467   3.686  0.00  0.00    +0.125 A 
ATOM     24  C   UNL     1      -3.665  -1.724   2.529  0.00  0.00    +0.057 A 
ATOM     25  C   UNL     1      -3.129  -1.395   1.298  0.00  0.00    +0.062 A 
ATOM     26 BR   UNL     1      -4.109  -1.739  -0.283  0.00  0.00    -0.046 Br
ATOM     27  F   UNL     1      -3.478  -1.784   4.889  0.00  0.00    -0.205 F 
ENDBRANCH  19  20
ENDBRANCH  18  19
ENDBRANCH   1  18
TORSDOF 6
