REMARK  Name = ZINC01291717
REMARK  9 active torsions:
REMARK  status: ('A' for Active; 'I' for Inactive)
REMARK    1  A    between atoms: C_1  and  C_2
REMARK    2  A    between atoms: C_2  and  O_3
REMARK    3  A    between atoms: O_3  and  C_4
REMARK    4  A    between atoms: C_6  and  C_12
REMARK    5  A    between atoms: C_9  and  O_10
REMARK    6  A    between atoms: C_14  and  C_23
REMARK    7  A    between atoms: C_15  and  C_22
REMARK    8  A    between atoms: C_23  and  O_25
REMARK    9  A    between atoms: O_25  and  C_26
REMARK                            x       y       z     vdW  Elec       q    Type
REMARK                         _______ _______ _______ _____ _____    ______ ____
ROOT
ATOM      1  C   UNL     1      -0.342  -4.986   0.487  0.00  0.00    +0.179 C 
ATOM      2  C   UNL     1       0.707  -5.806   1.190  0.00  0.00    +0.082 C 
ATOM      3  C   UNL     1       0.942  -7.096   0.903  0.00  0.00    +0.020 C 
ATOM      4  N   UNL     1       0.230  -7.774  -0.053  0.00  0.00    -0.287 N 
ATOM      5  C   UNL     1      -0.922  -7.171  -0.540  0.00  0.00    +0.218 A 
ATOM      6  N   UNL     1      -1.206  -5.868  -0.292  0.00  0.00    -0.221 N 
ATOM      7  N   UNL     1      -2.424  -5.602  -0.916  0.00  0.00    -0.156 NA
ATOM      8  C   UNL     1      -2.803  -6.715  -1.495  0.00  0.00    +0.247 A 
ATOM      9  N   UNL     1      -1.889  -7.663  -1.265  0.00  0.00    -0.201 NA
ATOM     10  C   UNL     1       2.025  -7.823   1.658  0.00  0.00    +0.061 C 
ATOM     11  H   UNL     1       0.519  -8.642  -0.377  0.00  0.00    +0.155 HD
ENDROOT
BRANCH   1  14
ATOM     12  C   UNL     1       0.738  -1.730  -1.096  0.00  0.00    +0.163 A 
ATOM     13  C   UNL     1       0.124  -2.641  -0.252  0.00  0.00    +0.055 A 
ATOM     14  C   UNL     1       0.327  -3.997  -0.433  0.00  0.00    -0.014 A 
ATOM     15  C   UNL     1       1.141  -4.447  -1.455  0.00  0.00    +0.025 A 
ATOM     16  C   UNL     1       1.758  -3.542  -2.301  0.00  0.00    +0.063 A 
ATOM     17  C   UNL     1       1.553  -2.182  -2.129  0.00  0.00    +0.173 A 
ATOM     18 BR   UNL     1       2.872  -4.162  -3.697  0.00  0.00    -0.046 Br
BRANCH  17  19
ATOM     19  O   UNL     1       2.153  -1.291  -2.963  0.00  0.00    -0.503 OA
ATOM     20  H   UNL     1       3.027  -1.001  -2.667  0.00  0.00    +0.292 HD
ENDBRANCH  17  19
BRANCH  12  21
ATOM     21  O   UNL     1       0.540  -0.396  -0.919  0.00  0.00    -0.489 OA
BRANCH  21  23
ATOM     22  C   UNL     1      -0.412   1.522   0.202  0.00  0.00    +0.048 C 
ATOM     23  C   UNL     1      -0.310  -0.004   0.162  0.00  0.00    +0.226 C 
ENDBRANCH  21  23
ENDBRANCH  12  21
ENDBRANCH   1  14
BRANCH   2  24
ATOM     24  C   UNL     1       1.480  -5.188   2.198  0.00  0.00    +0.339 C 
ATOM     25  O   UNL     1       1.030  -5.066   3.322  0.00  0.00    -0.245 OA
BRANCH  24  26
ATOM     26  O   UNL     1       2.720  -4.734   1.915  0.00  0.00    -0.458 OA
BRANCH  26  27
ATOM     27  C   UNL     1       3.445  -4.120   2.982  0.00  0.00    +0.177 C 
ATOM     28  C   UNL     1       3.151  -2.619   3.001  0.00  0.00    +0.044 C 
ATOM     29  C   UNL     1       3.928  -1.962   4.144  0.00  0.00    +0.004 C 
ATOM     30  C   UNL     1       5.427  -2.185   3.936  0.00  0.00    +0.000 C 
ATOM     31  C   UNL     1       5.721  -3.686   3.917  0.00  0.00    +0.004 C 
ATOM     32  C   UNL     1       4.944  -4.343   2.774  0.00  0.00    +0.044 C 
ENDBRANCH  26  27
ENDBRANCH  24  26
ENDBRANCH   2  24
TORSDOF 7
