REMARK  Name = ZINC39673200
REMARK  11 active torsions:
REMARK  status: ('A' for Active; 'I' for Inactive)
REMARK    1  A    between atoms: C_1  and  C_2
REMARK    2  A    between atoms: C_5  and  C_9
REMARK    3  A    between atoms: C_7  and  C_8
REMARK    4  A    between atoms: C_9  and  N_10
REMARK    5  A    between atoms: C_11  and  C_13
REMARK    6  A    between atoms: C_24  and  C_26
REMARK    7  A    between atoms: C_26  and  C_28
REMARK    8  A    between atoms: C_26  and  O_31
REMARK    9  A    between atoms: C_28  and  C_29
REMARK   10  A    between atoms: C_28  and  C_30
REMARK   11  A    between atoms: O_31  and  C_32
REMARK                            x       y       z     vdW  Elec       q    Type
REMARK                         _______ _______ _______ _____ _____    ______ ____
ROOT
ATOM      1  C   UNL     1       3.164  -6.662  -0.020  0.00  0.00    +0.100 C 
ATOM      2  C   UNL     1       3.830  -6.256  -1.354  0.00  0.00    +0.121 C 
ATOM      3  N   UNL     1       4.689  -7.409  -1.710  0.00  0.00    -0.297 N 
ATOM      4  C   UNL     1       3.886  -8.598  -1.335  0.00  0.00    +0.115 C 
ATOM      5  C   UNL     1       3.202  -8.200  -0.012  0.00  0.00    -0.004 C 
ATOM      6  C   UNL     1       1.785  -8.763   0.038  0.00  0.00    -0.010 C 
ATOM      7  C   UNL     1       1.850 -10.292   0.105  0.00  0.00    -0.082 C 
ATOM      8  N   UNL     1       2.604 -10.700   1.296  0.00  0.00    +0.379 N 
ATOM      9  C   UNL     1       3.992 -10.233   1.195  0.00  0.00    -0.082 C 
ATOM     10  C   UNL     1       4.017  -8.702   1.175  0.00  0.00    -0.010 C 
ATOM     11  C   UNL     1       5.923  -7.384  -2.252  0.00  0.00    +0.257 C 
ATOM     12  O   UNL     1       6.504  -8.422  -2.488  0.00  0.00    -0.272 OA
ATOM     13  H   UNL     1       2.175 -10.300   2.117  0.00  0.00    -0.086 HD
ATOM     14  H   UNL     1       2.594 -11.706   1.371  0.00  0.00    -0.086 HD
ENDROOT
BRANCH   1  16
ATOM     15  N   UNL     1       1.116  -6.022   1.212  0.00  0.00    -0.311 N 
ATOM     16  C   UNL     1       1.739  -6.173   0.026  0.00  0.00    +0.218 C 
ATOM     17  O   UNL     1       1.154  -5.913  -1.004  0.00  0.00    -0.275 OA
ATOM     18  H   UNL     1       1.585  -6.230   2.035  0.00  0.00    +0.149 HD
BRANCH  15  19
ATOM     19  C   UNL     1      -0.268  -5.546   1.256  0.00  0.00    +0.139 C 
BRANCH  19  24
ATOM     20  C   UNL     1      -2.027  -5.241   6.753  0.00  0.00    +0.044 C 
ATOM     21  C   UNL     1      -1.568  -5.321   5.319  0.00  0.00    -0.048 A 
ATOM     22  C   UNL     1      -0.966  -4.228   4.724  0.00  0.00    +0.004 A 
ATOM     23  C   UNL     1      -0.545  -4.301   3.410  0.00  0.00    +0.005 A 
ATOM     24  C   UNL     1      -0.726  -5.467   2.690  0.00  0.00    -0.030 A 
ATOM     25  C   UNL     1      -1.327  -6.560   3.285  0.00  0.00    +0.008 A 
ATOM     26  C   UNL     1      -1.744  -6.489   4.601  0.00  0.00    -0.047 A 
ATOM     27  C   UNL     1      -2.394  -7.682   5.252  0.00  0.00    +0.044 C 
ENDBRANCH  19  24
ENDBRANCH  15  19
ENDBRANCH   1  16
BRANCH  11  28
ATOM     28  C   UNL     1       6.582  -6.065  -2.564  0.00  0.00    +0.261 C 
BRANCH  28  29
ATOM     29  C   UNL     1       5.789  -5.345  -3.656  0.00  0.00    +0.033 C 
ATOM     30  C   UNL     1       6.458  -4.005  -3.974  0.00  0.00    +0.011 C 
ATOM     31  C   UNL     1       5.758  -6.210  -4.918  0.00  0.00    +0.011 C 
ENDBRANCH  28  29
BRANCH  28  32
ATOM     32  O   UNL     1       7.918  -6.295  -3.017  0.00  0.00    -0.479 OA
BRANCH  32  33
ATOM     33  C   UNL     1       8.847  -5.356  -2.699  0.00  0.00    +0.122 A 
ATOM     34  C   UNL     1       8.501  -4.280  -1.894  0.00  0.00    +0.045 A 
ATOM     35  C   UNL     1       9.449  -3.328  -1.571  0.00  0.00    +0.004 A 
ATOM     36  C   UNL     1      10.741  -3.446  -2.049  0.00  0.00    +0.000 A 
ATOM     37  C   UNL     1      11.088  -4.518  -2.852  0.00  0.00    +0.004 A 
ATOM     38  C   UNL     1      10.146  -5.476  -3.172  0.00  0.00    +0.045 A 
ENDBRANCH  32  33
ENDBRANCH  28  32
ENDBRANCH  11  28
TORSDOF 7
