REMARK  Name = ZINC21330652
REMARK  5 active torsions:
REMARK  status: ('A' for Active; 'I' for Inactive)
REMARK    1  A    between atoms: C_1  and  C_2
REMARK    2  A    between atoms: C_2  and  C_4
REMARK    3  A    between atoms: C_2  and  S_19
REMARK    4  A    between atoms: C_9  and  C_14
REMARK    5  A    between atoms: S_19  and  C_20
REMARK                            x       y       z     vdW  Elec       q    Type
REMARK                         _______ _______ _______ _____ _____    ______ ____
ROOT
ATOM      1  C   UNL     1      -0.016   1.302   0.009  0.00  0.00    +0.125 A 
ATOM      2  N   UNL     1       1.137   2.019   0.002  0.00  0.00    -0.194 NA
ATOM      3  C   UNL     1       2.338   1.413  -0.013  0.00  0.00    +0.282 A 
ATOM      4  O   UNL     1       3.364   2.071  -0.019  0.00  0.00    -0.265 OA
ATOM      5  C   UNL     1       2.393  -0.017  -0.021  0.00  0.00    +0.082 A 
ATOM      6  C   UNL     1       3.558  -0.896  -0.036  0.00  0.00    +0.039 A 
ATOM      7  C   UNL     1       3.360  -2.239  -0.041  0.00  0.00    +0.059 A 
ATOM      8  S   UNL     1       1.584  -2.395  -0.025  0.00  0.00    -0.078 S 
ATOM      9  C   UNL     1       1.152  -0.674  -0.013  0.00  0.00    +0.092 A 
ATOM     10  N   UNL     1       0.002  -0.004   0.002  0.00  0.00    -0.336 N 
ATOM     11  H   UNL     1      -0.943  -0.567   0.008  0.00  0.00    +0.168 HD
ENDROOT
BRANCH   6  12
ATOM     12  C   UNL     1       4.924  -0.336  -0.047  0.00  0.00    +0.136 A 
ATOM     13  C   UNL     1       5.938  -0.689   0.789  0.00  0.00    +0.050 A 
ATOM     14  C   UNL     1       7.055   0.090   0.423  0.00  0.00    +0.042 A 
ATOM     15  C   UNL     1       6.670   0.876  -0.600  0.00  0.00    +0.196 A 
ATOM     16  O   UNL     1       5.381   0.616  -0.882  0.00  0.00    -0.463 OA
ENDBRANCH   6  12
BRANCH   1  18
ATOM     17  C   UNL     1      -1.394   3.002  -1.157  0.00  0.00    +0.027 C 
ATOM     18  C   UNL     1      -1.338   2.025   0.019  0.00  0.00    +0.109 C 
BRANCH  18  19
ATOM     19  S   UNL     1      -2.686   0.820  -0.130  0.00  0.00    -0.146 S 
BRANCH  19  20
ATOM     20  C   UNL     1      -4.189   1.820   0.050  0.00  0.00    +0.047 C 
ATOM     21  C   UNL     1      -4.283   2.379   1.485  0.00  0.00    +0.014 C 
ATOM     22  C   UNL     1      -5.796   2.323   1.816  0.00  0.00    +0.001 C 
ATOM     23  C   UNL     1      -6.243   0.998   1.150  0.00  0.00    +0.001 C 
ATOM     24  C   UNL     1      -5.435   0.942  -0.163  0.00  0.00    +0.014 C 
ENDBRANCH  19  20
ENDBRANCH  18  19
ENDBRANCH   1  18
TORSDOF 4
