REMARK  Name = ZINC14978360
REMARK  8 active torsions:
REMARK  status: ('A' for Active; 'I' for Inactive)
REMARK    1  A    between atoms: C_1  and  C_2
REMARK    2  A    between atoms: C_4  and  C_7
REMARK    3  A    between atoms: C_7  and  C_9
REMARK    4  A    between atoms: C_7  and  N_60
REMARK    5  A    between atoms: C_10  and  C_11
REMARK    6  A    between atoms: C_10  and  N_60
REMARK    7  A    between atoms: N_19  and  C_22
REMARK    8  A    between atoms: C_22  and  C_23
REMARK                            x       y       z     vdW  Elec       q    Type
REMARK                         _______ _______ _______ _____ _____    ______ ____
ROOT
ATOM      1  C   UNL     1      -1.600   6.703   0.620  0.00  0.00    +0.001 A 
ATOM      2  C   UNL     1      -2.140   5.469   0.467  0.00  0.00    +0.017 A 
ATOM      3  C   UNL     1      -1.252   4.351   0.144  0.00  0.00    -0.001 A 
ATOM      4  C   UNL     1      -1.749   3.056  -0.029  0.00  0.00    +0.014 A 
ATOM      5  C   UNL     1      -0.895   2.029  -0.327  0.00  0.00    -0.043 A 
ATOM      6  C   UNL     1       0.467   2.265  -0.470  0.00  0.00    -0.042 A 
ATOM      7  C   UNL     1       0.976   3.539  -0.307  0.00  0.00    +0.030 A 
ATOM      8  C   UNL     1       0.127   4.595   0.002  0.00  0.00    +0.053 A 
ATOM      9  N   UNL     1       0.614   5.873   0.170  0.00  0.00    -0.304 N 
ATOM     10  C   UNL     1      -0.209   6.893   0.468  0.00  0.00    +0.253 A 
ATOM     11  O   UNL     1       0.256   8.011   0.611  0.00  0.00    -0.267 OA
ATOM     12  C   UNL     1       1.175   0.969  -0.803  0.00  0.00    +0.036 C 
ATOM     13  C   UNL     1       0.182  -0.146  -0.416  0.00  0.00    +0.009 C 
ATOM     14  C   UNL     1      -1.183   0.559  -0.555  0.00  0.00    +0.036 C 
ENDROOT
BRANCH   1  15
ATOM     15  C   UNL     1      -2.486   7.875   0.954  0.00  0.00    -0.040 C 
BRANCH  15  16
ATOM     16  N   UNL     1      -2.492   8.077   2.415  0.00  0.00    +0.387 N 
ATOM     17  H   UNL     1      -2.847   7.229   2.872  0.00  0.00    -0.085 HD
ATOM     18  H   UNL     1      -1.534   8.262   2.735  0.00  0.00    -0.085 HD
BRANCH  16  19
ATOM     19  C   UNL     1      -3.353   9.220   2.771  0.00  0.00    -0.024 C 
ATOM     20  C   UNL     1      -4.803   8.748   2.893  0.00  0.00    -0.007 C 
BRANCH  19  24
ATOM     21  C   UNL     1      -1.094   8.838   7.218  0.00  0.00    +0.073 C 
ATOM     22  C   UNL     1      -1.844   9.531   6.109  0.00  0.00    +0.075 A 
ATOM     23  N   UNL     1      -2.251   9.045   4.960  0.00  0.00    -0.251 NA
ATOM     24  C   UNL     1      -2.898   9.791   4.089  0.00  0.00    +0.035 A 
ATOM     25  C   UNL     1      -3.148  11.086   4.409  0.00  0.00    +0.068 A 
ATOM     26  S   UNL     1      -2.397  11.175   6.028  0.00  0.00    -0.081 S 
ENDBRANCH  19  24
ENDBRANCH  16  19
ENDBRANCH  15  16
ENDBRANCH   1  15
BRANCH   9  27
ATOM     27  C   UNL     1       2.050   6.124   0.022  0.00  0.00    +0.162 C 
BRANCH  27  28
ATOM     28  C   UNL     1       2.299   6.871  -1.263  0.00  0.00    -0.006 A 
ATOM     29  C   UNL     1       2.444   8.246  -1.245  0.00  0.00    +0.056 A 
ATOM     30  C   UNL     1       2.673   8.935  -2.425  0.00  0.00    +0.167 A 
ATOM     31  C   UNL     1       2.758   8.239  -3.628  0.00  0.00    +0.168 A 
ATOM     32  C   UNL     1       2.613   6.862  -3.640  0.00  0.00    +0.070 A 
ATOM     33  C   UNL     1       2.389   6.179  -2.457  0.00  0.00    +0.050 A 
ATOM     34 CL   UNL     1       2.215   4.452  -2.473  0.00  0.00    -0.083 Cl
ATOM     35  O   UNL     1       2.987   9.133  -4.634  0.00  0.00    -0.453 OA
ATOM     36  C   UNL     1       2.635  10.420  -4.092  0.00  0.00    +0.466 C 
ATOM     37  O   UNL     1       2.849  10.265  -2.676  0.00  0.00    -0.453 OA
ENDBRANCH  27  28
ENDBRANCH   9  27
TORSDOF 6
