REMARK  Name = ZINC09426234
REMARK  11 active torsions:
REMARK  status: ('A' for Active; 'I' for Inactive)
REMARK    1  A    between atoms: C_1  and  C_2
REMARK    2  A    between atoms: C_2  and  C_3
REMARK    3  A    between atoms: C_2  and  C_36
REMARK    4  A    between atoms: C_2  and  C_37
REMARK    5  A    between atoms: C_5  and  C_23
REMARK    6  A    between atoms: C_6  and  O_22
REMARK    7  A    between atoms: C_7  and  C_9
REMARK    8  A    between atoms: N_10  and  N_11
REMARK    9  A    between atoms: N_11  and  C_12
REMARK   10  A    between atoms: N_24  and  N_25
REMARK   11  A    between atoms: N_25  and  C_26
REMARK                            x       y       z     vdW  Elec       q    Type
REMARK                         _______ _______ _______ _____ _____    ______ ____
ROOT
ATOM      1  C   UNL     1       0.731  -0.503   1.223  0.00  0.00    -0.041 A 
ATOM      2  C   UNL     1       1.866  -1.276   1.076  0.00  0.00    +0.017 A 
ATOM      3  C   UNL     1       2.549  -1.744   2.201  0.00  0.00    +0.037 A 
ATOM      4  C   UNL     1       2.079  -1.426   3.481  0.00  0.00    +0.134 A 
ATOM      5  C   UNL     1       0.928  -0.642   3.619  0.00  0.00    +0.037 A 
ATOM      6  C   UNL     1       0.263  -0.180   2.481  0.00  0.00    +0.017 A 
ENDROOT
BRANCH   1   8
ATOM      7  C   UNL     1      -0.019   1.526   0.010  0.00  0.00    +0.015 C 
ATOM      8  C   UNL     1       0.002  -0.004   0.002  0.00  0.00    -0.013 C 
ATOM      9  C   UNL     1      -1.433  -0.534   0.013  0.00  0.00    +0.015 C 
ATOM     10  C   UNL     1       0.718  -0.497  -1.257  0.00  0.00    +0.015 C 
ENDBRANCH   1   8
BRANCH   5  11
ATOM     11  C   UNL     1       0.423  -0.300   4.961  0.00  0.00    +0.142 C 
ATOM     12  N   UNL     1       1.046  -0.727   6.018  0.00  0.00    -0.189 NA
BRANCH  12  13
ATOM     13  N   UNL     1       0.566  -0.402   7.293  0.00  0.00    -0.219 N 
ATOM     14  H   UNL     1      -0.232   0.141   7.387  0.00  0.00    +0.176 HD
BRANCH  13  15
ATOM     15  C   UNL     1       1.230  -0.857   8.419  0.00  0.00    +0.168 A 
ATOM     16  N   UNL     1       2.322  -1.594   8.305  0.00  0.00    -0.132 NA
ATOM     17  N   UNL     1       2.975  -2.041   9.313  0.00  0.00    -0.155 NA
ATOM     18  C   UNL     1       2.629  -1.814  10.559  0.00  0.00    +0.143 A 
ATOM     19  C   UNL     1       1.484  -1.041  10.823  0.00  0.00    +0.005 A 
ATOM     20  C   UNL     1       0.757  -0.537   9.712  0.00  0.00    +0.027 A 
ATOM     21  C   UNL     1      -0.385   0.241   9.930  0.00  0.00    +0.012 A 
ATOM     22  C   UNL     1      -0.780   0.507  11.208  0.00  0.00    +0.001 A 
ATOM     23  C   UNL     1      -0.064   0.018  12.298  0.00  0.00    +0.001 A 
ATOM     24  C   UNL     1       1.046  -0.753  12.122  0.00  0.00    +0.010 A 
ENDBRANCH  13  15
ENDBRANCH  12  13
ENDBRANCH   5  11
BRANCH   4  25
ATOM     25  O   UNL     1       2.736  -1.876   4.581  0.00  0.00    -0.505 OA
ATOM     26  H   UNL     1       3.424  -1.277   4.901  0.00  0.00    +0.292 HD
ENDBRANCH   4  25
BRANCH   3  27
ATOM     27  C   UNL     1       3.759  -2.569   2.042  0.00  0.00    +0.142 C 
ATOM     28  N   UNL     1       4.393  -3.003   3.089  0.00  0.00    -0.189 NA
BRANCH  28  29
ATOM     29  N   UNL     1       5.543  -3.788   2.937  0.00  0.00    -0.219 N 
ATOM     30  H   UNL     1       5.867  -4.007   2.050  0.00  0.00    +0.176 HD
BRANCH  29  31
ATOM     31  C   UNL     1       6.218  -4.250   4.054  0.00  0.00    +0.168 A 
ATOM     32  N   UNL     1       5.784  -3.963   5.270  0.00  0.00    -0.132 NA
ATOM     33  N   UNL     1       6.370  -4.364   6.336  0.00  0.00    -0.155 NA
ATOM     34  C   UNL     1       7.457  -5.100   6.334  0.00  0.00    +0.143 A 
ATOM     35  C   UNL     1       8.025  -5.478   5.103  0.00  0.00    +0.005 A 
ATOM     36  C   UNL     1       7.380  -5.042   3.916  0.00  0.00    +0.027 A 
ATOM     37  C   UNL     1       7.909  -5.401   2.672  0.00  0.00    +0.012 A 
ATOM     38  C   UNL     1       9.035  -6.169   2.618  0.00  0.00    +0.001 A 
ATOM     39  C   UNL     1       9.665  -6.601   3.783  0.00  0.00    +0.001 A 
ATOM     40  C   UNL     1       9.184  -6.260   5.012  0.00  0.00    +0.010 A 
ENDBRANCH  29  31
ENDBRANCH  28  29
ENDBRANCH   3  27
TORSDOF 8
