REMARK  Name = ZINC00971439
REMARK  8 active torsions:
REMARK  status: ('A' for Active; 'I' for Inactive)
REMARK    1  A    between atoms: C_1  and  C_2
REMARK    2  A    between atoms: C_5  and  C_8
REMARK    3  A    between atoms: C_8  and  N_9
REMARK    4  A    between atoms: C_21  and  C_31
REMARK    5  A    between atoms: C_26  and  N_30
REMARK    6  A    between atoms: C_27  and  C_28
REMARK    7  A    between atoms: C_31  and  O_32
REMARK    8  A    between atoms: O_32  and  C_33
REMARK                            x       y       z     vdW  Elec       q    Type
REMARK                         _______ _______ _______ _____ _____    ______ ____
ROOT
ATOM      1  N   UNL     1       1.462  -4.756   0.067  0.00  0.00    -0.266 N 
ATOM      2  C   UNL     1       2.307  -4.950  -1.011  0.00  0.00    +0.041 A 
ATOM      3  C   UNL     1       2.062  -4.769  -2.373  0.00  0.00    +0.024 A 
ATOM      4  C   UNL     1       3.103  -5.042  -3.246  0.00  0.00    +0.002 A 
ATOM      5  C   UNL     1       4.336  -5.475  -2.801  0.00  0.00    +0.000 A 
ATOM      6  C   UNL     1       4.592  -5.660  -1.447  0.00  0.00    +0.007 A 
ATOM      7  C   UNL     1       3.562  -5.390  -0.573  0.00  0.00    -0.005 A 
ATOM      8  C   UNL     1       3.478  -5.474   0.918  0.00  0.00    +0.130 C 
ATOM      9  C   UNL     1       2.066  -5.035   1.241  0.00  0.00    +0.237 C 
ATOM     10  O   UNL     1       1.571  -4.950   2.345  0.00  0.00    -0.274 OA
ATOM     11  C   UNL     1       4.480  -4.526   1.578  0.00  0.00    +0.150 C 
ATOM     12  C   UNL     1       3.925  -3.126   1.686  0.00  0.00    +0.080 C 
ATOM     13  N   UNL     1       3.811  -2.878   2.951  0.00  0.00    -0.152 NA
ATOM     14  N   UNL     1       4.196  -3.959   3.744  0.00  0.00    -0.115 NA
ATOM     15  C   UNL     1       4.575  -4.976   3.035  0.00  0.00    +0.228 C 
ATOM     16  O   UNL     1       4.911  -6.245   3.353  0.00  0.00    -0.425 OA
ATOM     17  C   UNL     1       4.374  -7.188   2.535  0.00  0.00    +0.201 C 
ATOM     18  C   UNL     1       3.712  -6.877   1.399  0.00  0.00    +0.107 C 
ENDROOT
BRANCH  17  19
ATOM     19  N   UNL     1       4.511  -8.510   2.877  0.00  0.00    -0.328 N 
ATOM     20  H   UNL     1       4.983  -8.755   3.688  0.00  0.00    +0.145 HD
ATOM     21  H   UNL     1       4.136  -9.200   2.307  0.00  0.00    +0.145 HD
ENDBRANCH  17  19
BRANCH  18  22
ATOM     22  C   UNL     1       3.202  -7.954   0.604  0.00  0.00    +0.101 C 
ATOM     23  N   UNL     1       2.797  -8.807  -0.026  0.00  0.00    -0.191 NA
ENDBRANCH  18  22
BRANCH   1  24
ATOM     24  C   UNL     1       0.075  -4.297  -0.052  0.00  0.00    +0.148 C 
BRANCH  24  29
ATOM     25  C   UNL     1      -3.466  -8.862  -0.167  0.00  0.00    +0.044 C 
ATOM     26  C   UNL     1      -2.542  -7.672  -0.137  0.00  0.00    -0.050 A 
ATOM     27  C   UNL     1      -2.134  -7.144   1.074  0.00  0.00    +0.003 A 
ATOM     28  C   UNL     1      -1.287  -6.052   1.101  0.00  0.00    +0.005 A 
ATOM     29  C   UNL     1      -0.848  -5.488  -0.082  0.00  0.00    -0.030 A 
ATOM     30  C   UNL     1      -1.255  -6.016  -1.292  0.00  0.00    +0.005 A 
ATOM     31  C   UNL     1      -2.099  -7.111  -1.320  0.00  0.00    +0.003 A 
ENDBRANCH  24  29
ENDBRANCH   1  24
BRANCH  12  32
ATOM     32  C   UNL     1       3.575  -2.202   0.548  0.00  0.00    +0.212 C 
BRANCH  32  33
ATOM     33  O   UNL     1       3.206  -0.923   1.069  0.00  0.00    -0.377 OA
ATOM     34  C   UNL     1       2.961   0.064   0.065  0.00  0.00    +0.194 C 
ENDBRANCH  32  33
ENDBRANCH  12  32
TORSDOF 6
