REMARK  Name = ZINC35745141
REMARK  15 active torsions:
REMARK  status: ('A' for Active; 'I' for Inactive)
REMARK    1  A    between atoms: C_1  and  C_2
REMARK    2  A    between atoms: C_2  and  C_3
REMARK    3  A    between atoms: C_2  and  N_4
REMARK    4  A    between atoms: N_4  and  C_5
REMARK    5  A    between atoms: N_4  and  C_13
REMARK    6  A    between atoms: C_5  and  C_6
REMARK    7  A    between atoms: C_13  and  C_14
REMARK    8  A    between atoms: C_17  and  C_19
REMARK    9  A    between atoms: C_19  and  C_20
REMARK   10  A    between atoms: C_19  and  C_28
REMARK   11  A    between atoms: C_19  and  O_36
REMARK   12  A    between atoms: C_23  and  O_26
REMARK   13  A    between atoms: O_26  and  C_27
REMARK   14  A    between atoms: C_31  and  O_34
REMARK   15  A    between atoms: O_34  and  C_35
REMARK                            x       y       z     vdW  Elec       q    Type
REMARK                         _______ _______ _______ _____ _____    ______ ____
ROOT
ATOM      1  C   UNL     1      -1.185  -2.710   1.518  0.00  0.00    +0.089 A 
ATOM      2  C   UNL     1      -1.910  -3.387   2.427  0.00  0.00    +0.043 A 
ATOM      3  C   UNL     1      -0.991  -4.017   3.297  0.00  0.00    +0.048 A 
ATOM      4  C   UNL     1       0.241  -3.688   2.868  0.00  0.00    +0.146 A 
ATOM      5  O   UNL     1       0.117  -2.901   1.787  0.00  0.00    -0.463 OA
ENDROOT
BRANCH   1   6
ATOM      6  C   UNL     1      -1.740  -1.883   0.387  0.00  0.00    -0.002 C 
BRANCH   6   7
ATOM      7  N   UNL     1      -2.110  -0.553   0.888  0.00  0.00    +0.389 N 
ATOM      8  H   UNL     1      -2.511  -0.640   1.809  0.00  0.00    -0.080 HD
BRANCH   7  10
ATOM      9  C   UNL     1       0.090  -0.313   1.936  0.00  0.00    -0.013 C 
ATOM     10  C   UNL     1      -0.912   0.295   0.954  0.00  0.00    -0.074 C 
ATOM     11  C   UNL     1      -0.275   0.387  -0.434  0.00  0.00    -0.013 C 
ENDBRANCH   7  10
BRANCH   7  12
ATOM     12  C   UNL     1      -3.092   0.056  -0.018  0.00  0.00    -0.039 C 
BRANCH  12  13
ATOM     13  C   UNL     1      -3.574   1.359   0.565  0.00  0.00    -0.029 A 
ATOM     14  C   UNL     1      -4.735   1.393   1.315  0.00  0.00    +0.004 A 
ATOM     15  C   UNL     1      -5.177   2.588   1.851  0.00  0.00    +0.000 A 
ATOM     16  C   UNL     1      -4.459   3.751   1.637  0.00  0.00    +0.003 A 
ATOM     17  C   UNL     1      -3.298   3.719   0.889  0.00  0.00    +0.038 A 
ATOM     18  C   UNL     1      -2.852   2.521   0.356  0.00  0.00    +0.125 A 
ATOM     19  F   UNL     1      -1.714   2.488  -0.372  0.00  0.00    -0.205 F 
ENDBRANCH  12  13
ENDBRANCH   7  12
ENDBRANCH   6   7
ENDBRANCH   1   6
BRANCH   4  20
ATOM     20  C   UNL     1       1.539  -4.131   3.491  0.00  0.00    +0.174 C 
BRANCH  20  21
ATOM     21  C   UNL     1       2.603  -4.219   2.427  0.00  0.00    -0.004 A 
ATOM     22  C   UNL     1       3.056  -3.068   1.809  0.00  0.00    +0.011 A 
ATOM     23  C   UNL     1       4.031  -3.146   0.833  0.00  0.00    +0.046 A 
ATOM     24  C   UNL     1       4.556  -4.379   0.474  0.00  0.00    +0.120 A 
ATOM     25  C   UNL     1       4.099  -5.532   1.097  0.00  0.00    +0.046 A 
ATOM     26  C   UNL     1       3.128  -5.449   2.076  0.00  0.00    +0.011 A 
BRANCH  24  27
ATOM     27  O   UNL     1       5.514  -4.458  -0.485  0.00  0.00    -0.495 OA
ATOM     28  C   UNL     1       6.008  -5.761  -0.804  0.00  0.00    +0.277 C 
ENDBRANCH  24  27
ENDBRANCH  20  21
BRANCH  20  29
ATOM     29  C   UNL     1       1.959  -3.135   4.540  0.00  0.00    -0.004 A 
ATOM     30  C   UNL     1       1.215  -1.986   4.738  0.00  0.00    +0.011 A 
ATOM     31  C   UNL     1       1.597  -1.070   5.699  0.00  0.00    +0.046 A 
ATOM     32  C   UNL     1       2.729  -1.304   6.467  0.00  0.00    +0.120 A 
ATOM     33  C   UNL     1       3.474  -2.458   6.267  0.00  0.00    +0.046 A 
ATOM     34  C   UNL     1       3.084  -3.373   5.308  0.00  0.00    +0.011 A 
BRANCH  32  35
ATOM     35  O   UNL     1       3.108  -0.405   7.413  0.00  0.00    -0.495 OA
ATOM     36  C   UNL     1       4.283  -0.712   8.165  0.00  0.00    +0.277 C 
ENDBRANCH  32  35
ENDBRANCH  20  29
BRANCH  20  37
ATOM     37  O   UNL     1       1.363  -5.414   4.096  0.00  0.00    -0.372 OA
ATOM     38  H   UNL     1       0.692  -5.433   4.791  0.00  0.00    +0.212 HD
ENDBRANCH  20  37
ENDBRANCH   4  20
TORSDOF 11
