REMARK  Name = ZINC63386736
REMARK  8 active torsions:
REMARK  status: ('A' for Active; 'I' for Inactive)
REMARK    1  A    between atoms: C_1  and  O_2
REMARK    2  A    between atoms: O_2  and  C_3
REMARK    3  A    between atoms: C_8  and  C_9
REMARK    4  A    between atoms: C_15  and  C_16
REMARK    5  A    between atoms: N_18  and  CA_19
REMARK    6  A    between atoms: CA_19  and  CB_21
REMARK    7  A    between atoms: CA_19  and  C_31
REMARK    8  A    between atoms: CB_21  and  CG_22
REMARK                            x       y       z     vdW  Elec       q    Type
REMARK                         _______ _______ _______ _____ _____    ______ ____
ROOT
ATOM      1  C   UNK A   0      -1.302  -6.428  -1.748  0.00  0.00    +0.239 C 
ATOM      2  O   UNK A   0      -1.814  -6.082  -0.699  0.00  0.00    -0.271 OA
ATOM      3  N   TRP A   1      -1.753  -7.525  -2.388  0.00  0.00    -0.298 N 
ATOM      4  H   TRP A   1      -1.345  -7.801  -3.224  0.00  0.00    +0.150 HD
ENDROOT
BRANCH   1  10
ATOM      5  C   UNK A   0       0.133  -3.011   0.183  0.00  0.00    +0.163 C 
ATOM      6  N   UNK A   0      -0.068  -4.379  -0.329  0.00  0.00    -0.331 N 
ATOM      7  C   UNK A   0       0.294  -4.652  -1.599  0.00  0.00    +0.020 C 
ATOM      8  C   UNK A   0       1.343  -3.719  -2.195  0.00  0.00    +0.121 C 
ATOM      9  S   UNK A   0       0.985  -2.184  -1.226  0.00  0.00    -0.128 S 
ATOM     10  C   UNK A   0      -0.234  -5.679  -2.295  0.00  0.00    +0.086 C 
ATOM     11  H   UNK A   0      -0.453  -5.068   0.235  0.00  0.00    +0.147 HD
BRANCH   5  17
ATOM     12  C   UNK A   0      -1.258  -0.969   0.608  0.00  0.00    +0.126 A 
ATOM     13  C   UNK A   0      -2.477  -0.360   0.873  0.00  0.00    +0.046 A 
ATOM     14  C   UNK A   0      -3.616  -1.130   1.009  0.00  0.00    +0.004 A 
ATOM     15  C   UNK A   0      -3.542  -2.505   0.883  0.00  0.00    +0.001 A 
ATOM     16  C   UNK A   0      -2.329  -3.113   0.620  0.00  0.00    +0.010 A 
ATOM     17  C   UNK A   0      -1.188  -2.348   0.476  0.00  0.00    +0.024 A 
BRANCH  12  19
ATOM     18  C   UNK A   0      -0.283   1.200   0.621  0.00  0.00    +0.277 C 
ATOM     19  O   UNK A   0      -0.136  -0.214   0.473  0.00  0.00    -0.495 OA
ENDBRANCH  12  19
ENDBRANCH   5  17
ENDBRANCH   1  10
BRANCH   3  20
ATOM     20  CA  TRP A   1      -2.859  -8.301  -1.822  0.00  0.00    +0.191 C 
BRANCH  20  21
ATOM     21  C   TRP A   1      -2.318  -9.287  -0.818  0.00  0.00    +0.376 C 
ATOM     22  O   TRP A   1      -1.121  -9.336  -0.596  0.00  0.00    -0.244 OA
ATOM     23  OXT TRP A   1      -3.079 -10.034  -0.227  0.00  0.00    -0.244 OA
ENDBRANCH  20  21
BRANCH  20  24
ATOM     24  CB  TRP A   1      -3.578  -9.057  -2.941  0.00  0.00    +0.067 C 
BRANCH  24  25
ATOM     25  CG  TRP A   1      -4.223  -8.070  -3.879  0.00  0.00    -0.039 C 
ATOM     26  CD2 TRP A   1      -3.708  -7.588  -5.034  0.00  0.00    -0.001 A 
ATOM     27  CE3 TRP A   1      -2.441  -7.830  -5.734  0.00  0.00    +0.010 A 
ATOM     28  CZ3 TRP A   1      -2.202  -7.186  -6.899  0.00  0.00    +0.001 A 
ATOM     29  CH2 TRP A   1      -3.132  -6.296  -7.453  0.00  0.00    +0.002 A 
ATOM     30  CZ2 TRP A   1      -4.318  -6.023  -6.869  0.00  0.00    +0.026 A 
ATOM     31  CE2 TRP A   1      -4.673  -6.644  -5.640  0.00  0.00    +0.043 A 
ATOM     32  NE1 TRP A   1      -5.744  -6.545  -4.890  0.00  0.00    -0.380 N 
ATOM     33  CD1 TRP A   1      -5.581  -7.421  -3.724  0.00  0.00    +0.144 C 
ATOM     34  HE1 TRP A   1      -6.516  -5.989  -5.076  0.00  0.00    +0.160 HD
ENDBRANCH  24  25
ENDBRANCH  20  24
ENDBRANCH   3  20
TORSDOF 7
