REMARK  Name = ZINC35394269
REMARK  9 active torsions:
REMARK  status: ('A' for Active; 'I' for Inactive)
REMARK    1  A    between atoms: C_1  and  C_2
REMARK    2  A    between atoms: C_5  and  N_9
REMARK    3  A    between atoms: C_7  and  C_8
REMARK    4  A    between atoms: C_10  and  C_12
REMARK    5  A    between atoms: N_23  and  C_40
REMARK    6  A    between atoms: C_24  and  C_26
REMARK    7  A    between atoms: N_28  and  C_29
REMARK    8  A    between atoms: C_34  and  C_39
REMARK    9  A    between atoms: C_36  and  C_38
REMARK                            x       y       z     vdW  Elec       q    Type
REMARK                         _______ _______ _______ _____ _____    ______ ____
ROOT
ATOM      1  C   UNL     1       0.080  -6.339  -1.416  0.00  0.00    +0.123 C 
ATOM      2  C   UNL     1       1.379  -6.935  -0.784  0.00  0.00    +0.155 C 
ATOM      3  C   UNL     1       1.257  -8.461  -0.873  0.00  0.00    +0.004 C 
ATOM      4  C   UNL     1       1.429  -8.800  -2.156  0.00  0.00    +0.009 C 
ATOM      5  C   UNL     1       1.612  -7.495  -2.844  0.00  0.00    +0.127 C 
ATOM      6  C   UNL     1       0.217  -6.770  -2.887  0.00  0.00    +0.128 C 
ATOM      7  C   UNL     1       0.481  -5.650  -3.853  0.00  0.00    +0.224 C 
ATOM      8  O   UNL     1      -0.123  -4.599  -3.891  0.00  0.00    -0.275 OA
ATOM      9  N   UNL     1       1.502  -5.999  -4.675  0.00  0.00    -0.283 N 
ATOM     10  C   UNL     1       2.077  -7.335  -4.258  0.00  0.00    +0.199 C 
ATOM     11  O   UNL     1       2.337  -6.665  -1.871  0.00  0.00    -0.358 OA
ENDROOT
BRANCH   1  13
ATOM     12  N   UNL     1      -1.113  -4.178  -1.246  0.00  0.00    -0.285 N 
ATOM     13  C   UNL     1       0.062  -4.837  -1.294  0.00  0.00    +0.224 C 
ATOM     14  O   UNL     1       1.105  -4.220  -1.239  0.00  0.00    -0.275 OA
ATOM     15  H   UNL     1      -1.947  -4.675  -1.222  0.00  0.00    +0.155 HD
BRANCH  12  20
ATOM     16  C   UNL     1      -1.186   1.494  -1.182  0.00  0.00    +0.044 C 
ATOM     17  C   UNL     1      -1.167  -0.013  -1.199  0.00  0.00    -0.047 A 
ATOM     18  C   UNL     1      -0.154  -0.697  -0.551  0.00  0.00    +0.005 A 
ATOM     19  C   UNL     1      -0.134  -2.078  -0.565  0.00  0.00    +0.023 A 
ATOM     20  C   UNL     1      -1.131  -2.779  -1.229  0.00  0.00    +0.034 A 
ATOM     21  C   UNL     1      -2.147  -2.089  -1.878  0.00  0.00    +0.027 A 
ATOM     22  C   UNL     1      -2.164  -0.708  -1.857  0.00  0.00    -0.046 A 
ATOM     23  C   UNL     1      -3.269   0.042  -2.555  0.00  0.00    +0.044 C 
ENDBRANCH  12  20
ENDBRANCH   1  13
BRANCH  10  24
ATOM     24  C   UNL     1       1.557  -8.460  -5.115  0.00  0.00    +0.237 C 
ATOM     25  O   UNL     1       0.586  -8.286  -5.821  0.00  0.00    -0.274 OA
ATOM     26  N   UNL     1       2.171  -9.660  -5.098  0.00  0.00    -0.311 N 
ATOM     27  H   UNL     1       2.948  -9.799  -4.534  0.00  0.00    +0.149 HD
BRANCH  26  28
ATOM     28  C   UNL     1       1.666 -10.754  -5.931  0.00  0.00    +0.076 C 
ATOM     29  C   UNL     1       0.543 -11.482  -5.191  0.00  0.00    +0.022 C 
ATOM     30  C   UNL     1       0.015 -12.624  -6.061  0.00  0.00    +0.002 C 
ATOM     31  C   UNL     1       1.151 -13.606  -6.358  0.00  0.00    +0.003 C 
ATOM     32  C   UNL     1       2.274 -12.877  -7.098  0.00  0.00    -0.009 C 
ATOM     33  C   UNL     1       2.802 -11.735  -6.228  0.00  0.00    +0.009 C 
ATOM     34  C   UNL     1       3.342 -12.303  -4.914  0.00  0.00    +0.009 C 
ATOM     35  C   UNL     1       3.409 -13.859  -7.396  0.00  0.00    +0.008 C 
ENDBRANCH  26  28
ENDBRANCH  10  24
BRANCH   9  36
ATOM     36  C   UNL     1       1.958  -5.204  -5.819  0.00  0.00    +0.077 C 
ATOM     37  C   UNL     1       1.369  -3.802  -5.984  0.00  0.00    +0.024 C 
ATOM     38  C   UNL     1       0.947  -4.925  -6.933  0.00  0.00    +0.024 C 
ENDBRANCH   9  36
TORSDOF 5
