REMARK  Name = ZINC39488368
REMARK  8 active torsions:
REMARK  status: ('A' for Active; 'I' for Inactive)
REMARK    1  A    between atoms: C_1  and  O_2
REMARK    2  A    between atoms: O_2  and  C_3
REMARK    3  A    between atoms: C_5  and  C_12
REMARK    4  A    between atoms: C_8  and  O_9
REMARK    5  A    between atoms: O_9  and  C_10
REMARK    6  A    between atoms: N_13  and  N_14
REMARK    7  A    between atoms: C_15  and  C_17
REMARK    8  A    between atoms: C_19  and  N_25
REMARK                            x       y       z     vdW  Elec       q    Type
REMARK                         _______ _______ _______ _____ _____    ______ ____
ROOT
ATOM      1  N   UNL     1       3.633   0.473   6.202  0.00  0.00    -0.202 N 
ATOM      2  C   UNL     1       4.250  -0.140   7.232  0.00  0.00    +0.283 C 
ATOM      3  O   UNL     1       4.300  -1.354   7.274  0.00  0.00    -0.267 OA
ATOM      4  H   UNL     1       3.592   1.442   6.169  0.00  0.00    +0.178 HD
ENDROOT
BRANCH   2   5
ATOM      5  C   UNL     1       4.866   0.664   8.310  0.00  0.00    +0.149 A 
ATOM      6  C   UNL     1       5.507   0.023   9.367  0.00  0.00    +0.094 A 
ATOM      7  C   UNL     1       6.083   0.796  10.376  0.00  0.00    +0.067 A 
ATOM      8  C   UNL     1       5.991   2.183  10.281  0.00  0.00    +0.100 A 
ATOM      9  C   UNL     1       5.337   2.747   9.197  0.00  0.00    +0.150 A 
ATOM     10  N   UNL     1       4.807   1.991   8.258  0.00  0.00    -0.228 NA
ATOM     11 CL   UNL     1       5.218   4.474   9.073  0.00  0.00    -0.060 Cl
ATOM     12 CL   UNL     1       6.689   3.195  11.508  0.00  0.00    -0.078 Cl
ATOM     13 CL   UNL     1       5.587  -1.710   9.429  0.00  0.00    -0.079 Cl
BRANCH   7  14
ATOM     14  N   UNL     1       6.733   0.195  11.452  0.00  0.00    -0.356 N 
ATOM     15  H   UNL     1       6.790  -0.772  11.506  0.00  0.00    +0.142 HD
ATOM     16  H   UNL     1       7.130   0.744  12.147  0.00  0.00    +0.142 HD
ENDBRANCH   7  14
ENDBRANCH   2   5
BRANCH   1  18
ATOM     17  C   UNL     1       2.454   0.303   4.190  0.00  0.00    +0.138 C 
ATOM     18  N   UNL     1       3.049  -0.288   5.181  0.00  0.00    -0.187 NA
BRANCH  17  21
ATOM     19  C   UNL     1       0.626  -0.619   1.042  0.00  0.00    +0.164 A 
ATOM     20  C   UNL     1       1.200   0.137   2.048  0.00  0.00    +0.059 A 
ATOM     21  C   UNL     1       1.841  -0.498   3.115  0.00  0.00    -0.000 A 
ATOM     22  C   UNL     1       1.898  -1.893   3.162  0.00  0.00    +0.033 A 
ATOM     23  C   UNL     1       1.323  -2.641   2.155  0.00  0.00    +0.087 A 
ATOM     24  C   UNL     1       0.682  -2.009   1.097  0.00  0.00    +0.180 A 
ATOM     25 CL   UNL     1       1.395  -4.374   2.214  0.00  0.00    -0.080 Cl
BRANCH  19  27
ATOM     26  C   UNL     1      -0.017   1.425   0.010  0.00  0.00    +0.277 C 
ATOM     27  O   UNL     1       0.002  -0.004   0.002  0.00  0.00    -0.491 OA
ENDBRANCH  19  27
BRANCH  24  28
ATOM     28  O   UNL     1       0.112  -2.750   0.110  0.00  0.00    -0.490 OA
ATOM     29  C   UNL     1       0.936  -3.086  -1.008  0.00  0.00    +0.277 C 
ENDBRANCH  24  28
ENDBRANCH  17  21
ENDBRANCH   1  18
TORSDOF 6
