REMARK  Name = ZINC64435506
REMARK  3 active torsions:
REMARK  status: ('A' for Active; 'I' for Inactive)
REMARK    1  A    between atoms: C_6  and  C_11
REMARK    2  A    between atoms: C_15  and  C_20
REMARK    3  A    between atoms: C_20  and  N_21
REMARK                            x       y       z     vdW  Elec       q    Type
REMARK                         _______ _______ _______ _____ _____    ______ ____
ROOT
ATOM      1  C   UNL     1       3.639  -2.760  -1.304  0.00  0.00    +0.178 C 
ATOM      2  N   UNL     1       5.124  -2.753  -1.388  0.00  0.00    -0.266 N 
ATOM      3  N   UNL     1       5.629  -2.607  -2.646  0.00  0.00    -0.226 N 
ATOM      4  C   UNL     1       6.820  -2.866  -3.299  0.00  0.00    +0.135 A 
ATOM      5  N   UNL     1       6.705  -2.450  -4.525  0.00  0.00    -0.134 NA
ATOM      6  N   UNL     1       5.531  -1.959  -4.717  0.00  0.00    -0.121 NA
ATOM      7  C   UNL     1       4.843  -2.049  -3.622  0.00  0.00    +0.210 A 
ATOM      8  S   UNL     1       3.275  -1.774  -2.821  0.00  0.00    -0.058 S 
ATOM      9  H   UNL     1       5.518  -2.071  -0.758  0.00  0.00    +0.168 HD
ENDROOT
BRANCH   1  15
ATOM     10  C   UNL     1      -0.016   1.348   0.009  0.00  0.00    +0.001 A 
ATOM     11  C   UNL     1       1.166   2.101   0.002  0.00  0.00    +0.002 A 
ATOM     12  C   UNL     1       2.391   1.535  -0.013  0.00  0.00    +0.026 A 
ATOM     13  C   UNL     1       2.529   0.120  -0.022  0.00  0.00    +0.043 A 
ATOM     14  N   UNL     1       3.587  -0.654  -0.037  0.00  0.00    -0.375 N 
ATOM     15  C   UNL     1       3.143  -2.053  -0.041  0.00  0.00    +0.135 C 
ATOM     16  C   UNL     1       1.631  -2.008  -0.025  0.00  0.00    +0.010 C 
ATOM     17  C   UNL     1       1.295  -0.698  -0.014  0.00  0.00    -0.004 A 
ATOM     18  C   UNL     1       0.002  -0.004   0.002  0.00  0.00    +0.010 A 
ATOM     19  H   UNL     1       4.509  -0.353  -0.045  0.00  0.00    +0.160 HD
ENDBRANCH   1  15
BRANCH   4  20
ATOM     20  C   UNL     1       8.038  -3.516  -2.695  0.00  0.00    +0.000 C 
BRANCH  20  21
ATOM     21  N   UNL     1       7.957  -4.972  -2.875  0.00  0.00    +0.384 N 
ATOM     22  C   UNL     1       6.755  -5.468  -2.177  0.00  0.00    -0.078 C 
ATOM     23  C   UNL     1       6.332  -6.763  -2.825  0.00  0.00    -0.019 C 
ATOM     24  C   UNL     1       6.888  -7.981  -2.063  0.00  0.00    -0.002 C 
ATOM     25  C   UNL     1       8.341  -7.754  -1.602  0.00  0.00    -0.002 C 
ATOM     26  C   UNL     1       9.177  -7.071  -2.654  0.00  0.00    -0.019 C 
ATOM     27  C   UNL     1       9.142  -5.547  -2.413  0.00  0.00    -0.078 C 
ATOM     28  H   UNL     1       7.863  -5.170  -3.859  0.00  0.00    -0.081 HD
ENDBRANCH  20  21
ENDBRANCH   4  20
TORSDOF 3
