REMARK  Name = ZINC09008487
REMARK  13 active torsions:
REMARK  status: ('A' for Active; 'I' for Inactive)
REMARK    1  A    between atoms: C_1  and  N_62
REMARK    2  A    between atoms: C_2  and  N_62
REMARK    3  A    between atoms: C_3  and  C_4
REMARK    4  A    between atoms: C_3  and  N_62
REMARK    5  A    between atoms: C_4  and  C_5
REMARK    6  A    between atoms: C_5  and  N_6
REMARK    7  A    between atoms: C_7  and  C_28
REMARK    8  A    between atoms: C_10  and  C_11
REMARK    9  A    between atoms: C_10  and  O_23
REMARK   10  A    between atoms: C_14  and  S_17
REMARK   11  A    between atoms: S_17  and  N_20
REMARK   12  A    between atoms: N_20  and  C_21
REMARK   13  A    between atoms: N_20  and  C_22
REMARK                            x       y       z     vdW  Elec       q    Type
REMARK                         _______ _______ _______ _____ _____    ______ ____
ROOT
ATOM      1  N   UNL     1       5.964   2.358  -0.350  0.00  0.00    -0.284 N 
ATOM      2  C   UNL     1       5.048   1.217  -0.266  0.00  0.00    +0.144 C 
ATOM      3  C   UNL     1       3.656   1.788  -0.128  0.00  0.00    +0.071 C 
ATOM      4  C   UNL     1       2.477   1.080  -0.016  0.00  0.00    +0.133 C 
ATOM      5  C   UNL     1       3.803   3.184  -0.142  0.00  0.00    +0.249 C 
ATOM      6  O   UNL     1       2.902   3.999  -0.058  0.00  0.00    -0.282 OA
ATOM      7  C   UNL     1       5.253   3.496  -0.276  0.00  0.00    +0.288 C 
ATOM      8  O   UNL     1       5.723   4.614  -0.317  0.00  0.00    -0.266 OA
ENDROOT
BRANCH   2   9
ATOM      9  C   UNL     1       5.382   0.375   0.939  0.00  0.00    -0.022 A 
ATOM     10  C   UNL     1       5.768   0.981   2.120  0.00  0.00    +0.007 A 
ATOM     11  C   UNL     1       6.069   0.210   3.227  0.00  0.00    +0.020 A 
ATOM     12  C   UNL     1       5.995  -1.169   3.149  0.00  0.00    +0.041 A 
ATOM     13  C   UNL     1       5.615  -1.776   1.965  0.00  0.00    +0.020 A 
ATOM     14  C   UNL     1       5.309  -1.003   0.861  0.00  0.00    +0.007 A 
ATOM     15 CL   UNL     1       6.380  -2.139   4.537  0.00  0.00    -0.084 Cl
ENDBRANCH   2   9
BRANCH   4  16
ATOM     16  C   UNL     1       1.217   1.788   0.270  0.00  0.00    +0.017 A 
ATOM     17  C   UNL     1       1.145   2.692   1.334  0.00  0.00    +0.013 A 
ATOM     18  C   UNL     1      -0.039   3.346   1.600  0.00  0.00    +0.029 A 
ATOM     19  C   UNL     1      -1.153   3.117   0.810  0.00  0.00    +0.105 A 
ATOM     20  C   UNL     1      -1.089   2.224  -0.245  0.00  0.00    +0.029 A 
ATOM     21  C   UNL     1       0.086   1.558  -0.520  0.00  0.00    +0.013 A 
BRANCH  19  22
ATOM     22  S   UNL     1      -2.660   3.963   1.154  0.00  0.00    +0.060 S 
ATOM     23  O   UNL     1      -2.310   5.150   1.851  0.00  0.00    -0.153 OA
ATOM     24  O   UNL     1      -3.401   3.982  -0.059  0.00  0.00    -0.153 OA
BRANCH  22  25
ATOM     25  N   UNL     1      -3.516   3.024   2.216  0.00  0.00    -0.183 NA
ATOM     26  C   UNL     1      -3.339   3.205   3.659  0.00  0.00    +0.131 C 
ATOM     27  C   UNL     1      -4.450   2.014   1.713  0.00  0.00    +0.131 C 
ENDBRANCH  22  25
ENDBRANCH  19  22
ENDBRANCH   4  16
BRANCH   4  28
ATOM     28  O   UNL     1       2.478  -0.262  -0.170  0.00  0.00    -0.506 OA
ATOM     29  H   UNL     1       1.548  -0.611  -0.058  0.00  0.00    +0.292 HD
ENDBRANCH   4  28
BRANCH   1  30
ATOM     30  C   UNL     1       7.419   2.273  -0.491  0.00  0.00    +0.107 C 
BRANCH  30  31
ATOM     31  C   UNL     1       7.787   2.249  -1.976  0.00  0.00    +0.000 C 
BRANCH  31  32
ATOM     32  C   UNL     1       9.307   2.159  -2.124  0.00  0.00    -0.078 C 
BRANCH  32  35
ATOM     33  C   UNL     1       9.320   3.411  -4.197  0.00  0.00    -0.097 C 
ATOM     34  C   UNL     1      11.081   1.814  -3.735  0.00  0.00    -0.097 C 
ATOM     35  N   UNL     1       9.645   2.116  -3.562  0.00  0.00    +0.376 N 
ATOM     36  H   UNL     1       9.092   1.376  -4.012  0.00  0.00    -0.083 HD
ENDBRANCH  32  35
ENDBRANCH  31  32
ENDBRANCH  30  31
ENDBRANCH   1  30
TORSDOF 9
