REMARK  Name = ZINC06149404
REMARK  14 active torsions:
REMARK  status: ('A' for Active; 'I' for Inactive)
REMARK    1  A    between atoms: C_1  and  C_2
REMARK    2  A    between atoms: C_2  and  C_3
REMARK    3  A    between atoms: C_3  and  C_4
REMARK    4  A    between atoms: C_3  and  C_5
REMARK    5  A    between atoms: C_3  and  N_6
REMARK    6  A    between atoms: C_7  and  C_11
REMARK    7  A    between atoms: C_11  and  C_13
REMARK    8  A    between atoms: C_11  and  N_72
REMARK    9  A    between atoms: C_17  and  C_26
REMARK   10  A    between atoms: C_19  and  C_25
REMARK   11  A    between atoms: C_27  and  C_28
REMARK   12  A    between atoms: C_27  and  N_72
REMARK   13  A    between atoms: C_34  and  C_35
REMARK   14  A    between atoms: C_34  and  N_72
REMARK                            x       y       z     vdW  Elec       q    Type
REMARK                         _______ _______ _______ _____ _____    ______ ____
ROOT
ATOM      1  C   UNL     1      -3.208   2.132  -0.900  0.00  0.00    +0.040 C 
ENDROOT
BRANCH   1   2
ATOM      2  C   UNL     1      -3.719   2.973  -2.042  0.00  0.00    +0.011 A 
ATOM      3  C   UNL     1      -4.635   2.462  -2.901  0.00  0.00    +0.017 A 
ATOM      4  C   UNL     1      -5.114   3.306  -3.996  0.00  0.00    -0.001 A 
ATOM      5  C   UNL     1      -6.061   2.836  -4.912  0.00  0.00    +0.013 A 
ATOM      6  C   UNL     1      -6.484   3.647  -5.926  0.00  0.00    -0.050 A 
ATOM      7  C   UNL     1      -5.981   4.934  -6.058  0.00  0.00    +0.008 A 
ATOM      8  C   UNL     1      -5.048   5.419  -5.167  0.00  0.00    -0.026 A 
ATOM      9  C   UNL     1      -4.603   4.611  -4.126  0.00  0.00    +0.052 A 
ATOM     10  N   UNL     1      -3.668   5.070  -3.222  0.00  0.00    -0.322 N 
ATOM     11  H   UNL     1      -3.306   5.997  -3.315  0.00  0.00    +0.169 HD
ATOM     12  C   UNL     1      -3.238   4.288  -2.216  0.00  0.00    +0.251 A 
ATOM     13  O   UNL     1      -2.412   4.727  -1.435  0.00  0.00    -0.268 OA
ATOM     14  C   UNL     1      -4.511   6.819  -5.321  0.00  0.00    +0.046 C 
ATOM     15  C   UNL     1      -7.504   3.139  -6.912  0.00  0.00    +0.044 C 
ENDBRANCH   1   2
BRANCH   1  17
ATOM     16  N   UNL     1      -1.113   0.785  -1.450  0.00  0.00    -0.225 N 
ATOM     17  C   UNL     1      -1.725   1.918  -1.058  0.00  0.00    +0.143 A 
ATOM     18  N   UNL     1      -0.780   2.799  -0.837  0.00  0.00    -0.115 NA
ATOM     19  N   UNL     1       0.353   2.238  -1.089  0.00  0.00    -0.023 NA
ATOM     20  N   UNL     1       0.155   1.022  -1.460  0.00  0.00    -0.043 NA
BRANCH  16  21
ATOM     21  C   UNL     1      -1.766  -0.477  -1.806  0.00  0.00    +0.061 C 
ATOM     22  C   UNL     1      -2.466  -1.055  -0.574  0.00  0.00    +0.036 C 
ATOM     23  C   UNL     1      -2.798  -0.226  -2.908  0.00  0.00    +0.036 C 
BRANCH  21  25
ATOM     24  C   UNL     1      -1.397  -2.789  -2.680  0.00  0.00    +0.006 C 
ATOM     25  C   UNL     1      -0.716  -1.470  -2.309  0.00  0.00    +0.026 C 
ENDBRANCH  21  25
ENDBRANCH  16  21
ENDBRANCH   1  17
BRANCH   1  26
ATOM     26  N   UNL     1      -3.455   2.843   0.372  0.00  0.00    +0.397 N 
ATOM     27  H   UNL     1      -2.860   3.679   0.408  0.00  0.00    -0.079 HD
BRANCH  26  28
ATOM     28  C   UNL     1      -4.871   3.258   0.452  0.00  0.00    -0.041 C 
BRANCH  28  29
ATOM     29  C   UNL     1      -5.015   4.275   1.555  0.00  0.00    -0.064 A 
ATOM     30  C   UNL     1      -5.369   3.868   2.828  0.00  0.00    +0.002 A 
ATOM     31  C   UNL     1      -5.496   4.800   3.841  0.00  0.00    +0.000 A 
ATOM     32  C   UNL     1      -5.280   6.140   3.579  0.00  0.00    +0.000 A 
ATOM     33  C   UNL     1      -4.933   6.548   2.304  0.00  0.00    +0.000 A 
ATOM     34  C   UNL     1      -4.800   5.615   1.292  0.00  0.00    +0.002 A 
ENDBRANCH  28  29
ENDBRANCH  26  28
BRANCH  26  35
ATOM     35  C   UNL     1      -3.120   1.966   1.514  0.00  0.00    -0.001 C 
BRANCH  35  36
ATOM     36  C   UNL     1      -1.639   2.059   1.774  0.00  0.00    +0.089 A 
ATOM     37  C   UNL     1      -1.023   3.025   2.479  0.00  0.00    +0.042 A 
ATOM     38  C   UNL     1       0.358   2.721   2.470  0.00  0.00    +0.041 A 
ATOM     39  C   UNL     1       0.503   1.588   1.760  0.00  0.00    +0.195 A 
ATOM     40  O   UNL     1      -0.710   1.188   1.346  0.00  0.00    -0.470 OA
ENDBRANCH  35  36
ENDBRANCH  26  35
ENDBRANCH   1  26
TORSDOF 9
