REMARK  Name = ZINC16740264
REMARK  8 active torsions:
REMARK  status: ('A' for Active; 'I' for Inactive)
REMARK    1  A    between atoms: C_1  and  C_2
REMARK    2  A    between atoms: C_9  and  O_12
REMARK    3  A    between atoms: O_12  and  C_13
REMARK    4  A    between atoms: C_13  and  C_15
REMARK    5  A    between atoms: C_16  and  C_28
REMARK    6  A    between atoms: C_21  and  C_26
REMARK    7  A    between atoms: C_21  and  C_27
REMARK    8  A    between atoms: C_23  and  O_25
REMARK                            x       y       z     vdW  Elec       q    Type
REMARK                         _______ _______ _______ _____ _____    ______ ____
ROOT
ATOM      1  C   UNL     1      -3.590   2.976  -0.052  0.00  0.00    +0.380 C 
ATOM      2  O   UNL     1      -3.487   1.764  -0.056  0.00  0.00    -0.241 OA
ENDROOT
BRANCH   1   3
ATOM      3  C   UNL     1      -4.912   3.599  -0.153  0.00  0.00    +0.215 A 
ATOM      4  C   UNL     1      -6.105   2.938  -0.263  0.00  0.00    +0.008 A 
ATOM      5  C   UNL     1      -7.097   3.918  -0.329  0.00  0.00    +0.026 A 
ATOM      6  C   UNL     1      -6.481   5.124  -0.268  0.00  0.00    +0.112 A 
ATOM      7  O   UNL     1      -5.165   4.926  -0.161  0.00  0.00    -0.452 OA
ATOM      8  C   UNL     1      -7.212   6.444  -0.318  0.00  0.00    +0.081 C 
ATOM      9  C   UNL     1      -8.625   6.195  -0.858  0.00  0.00    -0.025 C 
ATOM     10  C   UNL     1      -9.275   5.047  -0.082  0.00  0.00    +0.043 C 
ATOM     11  C   UNL     1      -8.587   3.727  -0.452  0.00  0.00    +0.149 C 
ATOM     12  C   UNL     1      -8.546   5.828  -2.341  0.00  0.00    +0.011 C 
ATOM     13  C   UNL     1      -9.465   7.463  -0.692  0.00  0.00    +0.011 C 
ATOM     14  C   UNL     1      -6.309   1.445  -0.302  0.00  0.00    +0.048 C 
BRANCH  11  15
ATOM     15  O   UNL     1      -9.015   2.695   0.440  0.00  0.00    -0.387 OA
ATOM     16  H   UNL     1      -8.604   1.836   0.272  0.00  0.00    +0.210 HD
ENDBRANCH  11  15
ENDBRANCH   1   3
BRANCH   1  17
ATOM     17  O   UNL     1      -2.487   3.747   0.046  0.00  0.00    -0.418 OA
BRANCH  17  26
ATOM     18  C   UNL     1      -1.568   2.865  -4.782  0.00  0.00    +0.065 C 
ATOM     19  C   UNL     1      -0.821   2.575  -3.506  0.00  0.00    +0.039 A 
ATOM     20  C   UNL     1       0.407   1.921  -3.573  0.00  0.00    +0.023 A 
ATOM     21  C   UNL     1       1.099   1.650  -2.426  0.00  0.00    +0.012 A 
ATOM     22  C   UNL     1       0.533   2.049  -1.200  0.00  0.00    +0.004 A 
ATOM     23  C   UNL     1       1.185   1.804   0.019  0.00  0.00    +0.010 A 
ATOM     24  C   UNL     1       0.608   2.204   1.186  0.00  0.00    +0.004 A 
ATOM     25  C   UNL     1      -0.626   2.850   1.190  0.00  0.00    +0.048 A 
ATOM     26  C   UNL     1      -1.286   3.111   0.023  0.00  0.00    +0.158 A 
ATOM     27  C   UNL     1      -0.719   2.711  -1.205  0.00  0.00    +0.113 A 
ATOM     28  N   UNL     1      -1.343   2.945  -2.362  0.00  0.00    -0.248 NA
ENDBRANCH  17  26
ENDBRANCH   1  17
TORSDOF 4
