REMARK  Name = ZINC47439113
REMARK  5 active torsions:
REMARK  status: ('A' for Active; 'I' for Inactive)
REMARK    1  A    between atoms: C_1  and  C_2
REMARK    2  A    between atoms: C_7  and  C_26
REMARK    3  A    between atoms: N_12  and  C_16
REMARK    4  A    between atoms: C_16  and  C_17
REMARK    5  A    between atoms: C_21  and  C_23
REMARK                            x       y       z     vdW  Elec       q    Type
REMARK                         _______ _______ _______ _____ _____    ______ ____
ROOT
ATOM      1  C   UNL     1      -0.019   1.526   0.010  0.00  0.00    +0.010 C 
ATOM      2  C   UNL     1       0.002  -0.004   0.002  0.00  0.00    +0.019 C 
ATOM      3  C   UNL     1      -1.434  -0.534   0.012  0.00  0.00    +0.006 C 
ATOM      4  C   UNL     1      -1.412  -2.064   0.024  0.00  0.00    +0.001 C 
ATOM      5  C   UNL     1      -0.687  -2.556   1.279  0.00  0.00    +0.006 C 
ATOM      6  C   UNL     1       0.752  -2.033   1.273  0.00  0.00    +0.019 C 
ATOM      7  C   UNL     1       0.740  -0.509   1.237  0.00  0.00    +0.118 C 
ATOM      8  C   UNL     1       2.151   0.030   1.266  0.00  0.00    +0.247 C 
ATOM      9  O   UNL     1       3.026  -0.158   0.448  0.00  0.00    -0.273 OA
ATOM     10  N   UNL     1       2.233   0.767   2.394  0.00  0.00    -0.220 N 
ATOM     11  C   UNL     1       1.077   0.763   3.069  0.00  0.00    +0.310 C 
ATOM     12  O   UNL     1       0.904   1.356   4.116  0.00  0.00    -0.252 OA
ATOM     13  N   UNL     1       0.127   0.030   2.458  0.00  0.00    -0.284 N 
ATOM     14  C   UNL     1       1.483  -2.567   0.040  0.00  0.00    +0.010 C 
ATOM     15  H   UNL     1      -0.782  -0.114   2.764  0.00  0.00    +0.151 HD
ENDROOT
BRANCH  10  16
ATOM     16  C   UNL     1       3.436   1.482   2.825  0.00  0.00    +0.153 C 
BRANCH  16  17
ATOM     17  C   UNL     1       3.425   2.876   2.253  0.00  0.00    -0.029 A 
ATOM     18  C   UNL     1       3.997   3.119   1.017  0.00  0.00    +0.005 A 
ATOM     19  C   UNL     1       3.991   4.396   0.485  0.00  0.00    +0.001 A 
ATOM     20  C   UNL     1       3.414   5.436   1.184  0.00  0.00    +0.013 A 
ATOM     21  C   UNL     1       2.835   5.197   2.431  0.00  0.00    +0.037 A 
ATOM     22  C   UNL     1       2.840   3.905   2.961  0.00  0.00    +0.018 A 
BRANCH  21  23
ATOM     23  C   UNL     1       2.215   6.306   3.187  0.00  0.00    +0.242 C 
ATOM     24  O   UNL     1       1.711   6.095   4.273  0.00  0.00    -0.270 OA
ATOM     25  N   UNL     1       2.208   7.551   2.671  0.00  0.00    -0.325 N 
ATOM     26  H   UNL     1       2.609   7.720   1.804  0.00  0.00    +0.145 HD
ATOM     27  H   UNL     1       1.801   8.279   3.167  0.00  0.00    +0.145 HD
ENDBRANCH  21  23
ENDBRANCH  16  17
ENDBRANCH  10  16
TORSDOF 3
