REMARK  Name = ZINC63503475
REMARK  6 active torsions:
REMARK  status: ('A' for Active; 'I' for Inactive)
REMARK    1  A    between atoms: C_1  and  C_2
REMARK    2  A    between atoms: N_13  and  C_19
REMARK    3  A    between atoms: C_19  and  C_20
REMARK    4  A    between atoms: N_22  and  N_23
REMARK    5  A    between atoms: C_24  and  C_25
REMARK    6  A    between atoms: C_30  and  O_31
REMARK                            x       y       z     vdW  Elec       q    Type
REMARK                         _______ _______ _______ _____ _____    ______ ____
ROOT
ATOM      1  C   UNL     1       2.997   1.597   1.730  0.00  0.00    +0.044 C 
ATOM      2  C   UNL     1       2.698   0.124   1.615  0.00  0.00    -0.050 A 
ATOM      3  C   UNL     1       2.156  -0.360   0.436  0.00  0.00    +0.005 A 
ATOM      4  C   UNL     1       1.858  -1.699   0.257  0.00  0.00    +0.026 A 
ATOM      5  C   UNL     1       2.124  -2.559   1.320  0.00  0.00    +0.050 A 
ATOM      6  C   UNL     1       2.681  -2.055   2.534  0.00  0.00    +0.004 A 
ATOM      7  C   UNL     1       2.977  -0.696   2.679  0.00  0.00    +0.013 A 
ATOM      8  C   UNL     1       2.821  -3.189   3.407  0.00  0.00    -0.017 A 
ATOM      9  C   UNL     1       2.351  -4.255   2.730  0.00  0.00    +0.040 A 
ATOM     10  N   UNL     1       1.958  -3.903   1.468  0.00  0.00    -0.341 N 
ATOM     11  C   UNL     1       1.472  -4.910   0.512  0.00  0.00    +0.137 C 
ATOM     12  C   UNL     1       1.124  -6.181   1.296  0.00  0.00    +0.107 C 
ATOM     13  N   UNL     1       2.221  -6.573   2.192  0.00  0.00    -0.284 NA
ATOM     14  C   UNL     1       2.325  -5.641   3.334  0.00  0.00    +0.104 C 
ATOM     15  C   UNL     1       3.630  -5.857   4.082  0.00  0.00    +0.025 C 
ATOM     16  C   UNL     1       4.168  -4.672   4.846  0.00  0.00    +0.007 C 
ATOM     17  C   UNL     1       3.352  -3.389   4.800  0.00  0.00    +0.037 C 
ENDROOT
BRANCH  13  18
ATOM     18  C   UNL     1       2.053  -7.957   2.655  0.00  0.00    +0.182 C 
BRANCH  18  19
ATOM     19  C   UNL     1       2.191  -8.898   1.487  0.00  0.00    +0.246 C 
ATOM     20  O   UNL     1       2.408  -8.459   0.377  0.00  0.00    -0.273 OA
ATOM     21  N   UNL     1       2.074 -10.227   1.675  0.00  0.00    -0.206 N 
ATOM     22  H   UNL     1       1.901 -10.578   2.563  0.00  0.00    +0.177 HD
BRANCH  21  23
ATOM     23  N   UNL     1       2.203 -11.103   0.589  0.00  0.00    -0.188 NA
ATOM     24  C   UNL     1       1.984 -12.372   0.749  0.00  0.00    +0.142 C 
BRANCH  24  25
ATOM     25  C   UNL     1       1.358 -12.861   1.990  0.00  0.00    +0.037 A 
ATOM     26  C   UNL     1       0.530 -12.021   2.737  0.00  0.00    +0.028 A 
ATOM     27  C   UNL     1      -0.053 -12.485   3.898  0.00  0.00    +0.019 A 
ATOM     28  C   UNL     1       0.179 -13.782   4.326  0.00  0.00    +0.019 A 
ATOM     29  C   UNL     1       0.997 -14.623   3.595  0.00  0.00    +0.047 A 
ATOM     30  C   UNL     1       1.586 -14.174   2.424  0.00  0.00    +0.126 A 
ATOM     31 BR   UNL     1      -1.174 -11.347   4.910  0.00  0.00    -0.050 Br
BRANCH  30  32
ATOM     32  O   UNL     1       2.385 -15.002   1.702  0.00  0.00    -0.506 OA
ATOM     33  H   UNL     1       3.327 -14.913   1.902  0.00  0.00    +0.292 HD
ENDBRANCH  30  32
ENDBRANCH  24  25
ENDBRANCH  21  23
ENDBRANCH  18  19
ENDBRANCH  13  18
TORSDOF 5
