REMARK  Name = ZINC33644050
REMARK  9 active torsions:
REMARK  status: ('A' for Active; 'I' for Inactive)
REMARK    1  A    between atoms: C_1  and  C_2
REMARK    2  A    between atoms: N_8  and  C_9
REMARK    3  A    between atoms: C_9  and  C_10
REMARK    4  A    between atoms: C_10  and  C_11
REMARK    5  A    between atoms: C_11  and  N_12
REMARK    6  A    between atoms: C_13  and  C_15
REMARK    7  A    between atoms: C_15  and  C_16
REMARK    8  A    between atoms: C_16  and  C_18
REMARK    9  A    between atoms: C_16  and  C_23
REMARK                            x       y       z     vdW  Elec       q    Type
REMARK                         _______ _______ _______ _____ _____    ______ ____
ROOT
ATOM      1  C   UNL     1       1.280   1.980   0.001  0.00  0.00    +0.108 C 
ENDROOT
BRANCH   1   3
ATOM      2  N   UNL     1      -1.191   1.867   0.018  0.00  0.00    -0.315 N 
ATOM      3  C   UNL     1      -0.014   1.209   0.009  0.00  0.00    +0.214 C 
ATOM      4  O   UNL     1       0.002  -0.004   0.002  0.00  0.00    -0.276 OA
ATOM      5  H   UNL     1      -1.206   2.966   0.024  0.00  0.00    +0.149 HD
BRANCH   2   6
ATOM      6  C   UNL     1      -2.449   1.117   0.020  0.00  0.00    +0.102 C 
BRANCH   6   7
ATOM      7  C   UNL     1      -3.626   2.095   0.031  0.00  0.00    +0.000 C 
BRANCH   7   8
ATOM      8  C   UNL     1      -4.940   1.312   0.033  0.00  0.00    -0.077 C 
BRANCH   8  15
ATOM      9  C   UNL     1      -7.488   0.413   0.818  0.00  0.00    -0.013 C 
ATOM     10  C   UNL     1      -7.338   1.551  -0.193  0.00  0.00    -0.072 C 
ATOM     11  C   UNL     1      -8.502   2.533  -0.031  0.00  0.00    -0.016 C 
ATOM     12  C   UNL     1      -8.337   3.681  -1.031  0.00  0.00    -0.003 C 
ATOM     13  C   UNL     1      -6.987   4.363  -0.795  0.00  0.00    -0.019 C 
ATOM     14  C   UNL     1      -5.867   3.328  -0.935  0.00  0.00    -0.078 C 
ATOM     15  N   UNL     1      -6.069   2.252   0.043  0.00  0.00    +0.381 N 
ATOM     16  H   UNL     1      -6.120   2.711   1.042  0.00  0.00    -0.081 HD
ENDBRANCH   8  15
ENDBRANCH   7   8
ENDBRANCH   6   7
ENDBRANCH   2   6
ENDBRANCH   1   3
BRANCH   1  17
ATOM     17  C   UNL     1       2.457   1.002  -0.016  0.00  0.00    +0.060 C 
BRANCH  17  18
ATOM     18  C   UNL     1       3.749   1.768   0.100  0.00  0.00    -0.015 A 
ATOM     19  C   UNL     1       4.203   2.700  -0.752  0.00  0.00    +0.087 A 
ATOM     20  N   UNL     1       5.410   3.180  -0.320  0.00  0.00    -0.360 N 
ATOM     21  H   UNL     1       5.929   3.961  -0.894  0.00  0.00    +0.165 HD
ATOM     22  C   UNL     1       5.775   2.544   0.846  0.00  0.00    +0.047 A 
ATOM     23  C   UNL     1       4.751   1.632   1.160  0.00  0.00    +0.003 A 
ATOM     24  C   UNL     1       4.852   0.838   2.304  0.00  0.00    +0.010 A 
ATOM     25  C   UNL     1       5.946   0.951   3.114  0.00  0.00    +0.001 A 
ATOM     26  C   UNL     1       6.960   1.849   2.808  0.00  0.00    +0.002 A 
ATOM     27  C   UNL     1       6.880   2.642   1.684  0.00  0.00    +0.026 A 
ENDBRANCH  17  18
BRANCH  17  28
ATOM     28  C   UNL     1       2.446   0.226  -1.308  0.00  0.00    -0.032 A 
ATOM     29  C   UNL     1       2.340  -1.153  -1.298  0.00  0.00    +0.012 A 
ATOM     30  C   UNL     1       2.329  -1.820  -2.477  0.00  0.00    +0.045 A 
ATOM     31  S   UNL     1       2.485  -0.488  -3.656  0.00  0.00    -0.105 S 
ATOM     32  C   UNL     1       2.547   0.868  -2.497  0.00  0.00    +0.049 A 
ENDBRANCH  17  28
ENDBRANCH   1  17
TORSDOF 8
