REMARK  Name = ZINC37857907
REMARK  12 active torsions:
REMARK  status: ('A' for Active; 'I' for Inactive)
REMARK    1  A    between atoms: C_1  and  C_2
REMARK    2  A    between atoms: C_2  and  C_3
REMARK    3  A    between atoms: C_2  and  C_4
REMARK    4  A    between atoms: C_4  and  N_5
REMARK    5  A    between atoms: N_5  and  C_6
REMARK    6  A    between atoms: N_5  and  C_30
REMARK    7  A    between atoms: C_6  and  C_7
REMARK    8  A    between atoms: C_8  and  O_29
REMARK    9  A    between atoms: C_15  and  C_16
REMARK   10  A    between atoms: C_30  and  C_31
REMARK   11  A    between atoms: C_31  and  C_32
REMARK   12  A    between atoms: C_31  and  C_33
REMARK                            x       y       z     vdW  Elec       q    Type
REMARK                         _______ _______ _______ _____ _____    ______ ____
ROOT
ATOM      1  C   UNL     1      -4.515  -2.538  -1.108  0.00  0.00    +0.020 A 
ATOM      2  C   UNL     1      -4.968  -2.501  -2.417  0.00  0.00    +0.122 A 
ATOM      3  C   UNL     1      -5.614  -3.601  -2.975  0.00  0.00    +0.046 A 
ATOM      4  C   UNL     1      -5.807  -4.732  -2.233  0.00  0.00    +0.019 A 
ATOM      5  C   UNL     1      -5.355  -4.784  -0.914  0.00  0.00    +0.068 A 
ATOM      6  C   UNL     1      -4.698  -3.683  -0.342  0.00  0.00    +0.144 A 
ATOM      7  O   UNL     1      -4.352  -3.970   0.931  0.00  0.00    -0.451 OA
ATOM      8  C   UNL     1      -4.728  -5.221   1.285  0.00  0.00    +0.176 C 
ATOM      9  C   UNL     1      -4.527  -5.808   2.493  0.00  0.00    +0.061 C 
ATOM     10  C   UNL     1      -5.405  -5.825   0.128  0.00  0.00    +0.231 C 
ATOM     11  O   UNL     1      -5.887  -6.941   0.046  0.00  0.00    -0.283 OA
ENDROOT
BRANCH   9  12
ATOM     12  C   UNL     1      -4.840  -7.229   2.680  0.00  0.00    +0.022 A 
ATOM     13  C   UNL     1      -4.498  -8.161   1.692  0.00  0.00    +0.031 A 
ATOM     14  C   UNL     1      -4.797  -9.494   1.875  0.00  0.00    +0.042 A 
ATOM     15  C   UNL     1      -5.437  -9.915   3.031  0.00  0.00    +0.029 A 
ATOM     16  C   UNL     1      -5.781  -9.006   4.014  0.00  0.00    +0.022 A 
ATOM     17  C   UNL     1      -5.480  -7.664   3.853  0.00  0.00    +0.136 A 
ATOM     18  O   UNL     1      -5.798  -6.763   4.817  0.00  0.00    -0.465 OA
ATOM     19  C   UNL     1      -6.748  -7.178   5.803  0.00  0.00    +0.395 C 
ATOM     20  O   UNL     1      -6.378  -8.478   6.276  0.00  0.00    -0.339 OA
ATOM     21  C   UNL     1      -6.481  -9.486   5.261  0.00  0.00    +0.202 C 
ATOM     22 CL   UNL     1      -4.372 -10.650   0.652  0.00  0.00    -0.084 Cl
ENDBRANCH   9  12
BRANCH   2  23
ATOM     23  O   UNL     1      -4.781  -1.381  -3.162  0.00  0.00    -0.506 OA
ATOM     24  H   UNL     1      -3.950  -1.372  -3.656  0.00  0.00    +0.292 HD
ENDBRANCH   2  23
BRANCH   1  25
ATOM     25  C   UNL     1      -3.817  -1.340  -0.518  0.00  0.00    -0.036 C 
BRANCH  25  26
ATOM     26  N   UNL     1      -2.373  -1.442  -0.768  0.00  0.00    +0.383 N 
ATOM     27  H   UNL     1      -2.034  -2.329  -0.427  0.00  0.00    -0.081 HD
BRANCH  26  28
ATOM     28  C   UNL     1      -1.678  -0.351  -0.072  0.00  0.00    -0.075 C 
BRANCH  28  30
ATOM     29  C   UNL     1      -0.554   0.316   2.058  0.00  0.00    +0.005 C 
ATOM     30  C   UNL     1      -1.367  -0.779   1.364  0.00  0.00    -0.034 C 
ATOM     31  C   UNL     1      -2.675  -1.002   2.124  0.00  0.00    +0.005 C 
ENDBRANCH  28  30
ENDBRANCH  26  28
BRANCH  26  32
ATOM     32  C   UNL     1      -2.118  -1.342  -2.211  0.00  0.00    -0.075 C 
BRANCH  32  33
ATOM     33  C   UNL     1      -0.637  -1.609  -2.487  0.00  0.00    -0.034 C 
ATOM     34  C   UNL     1      -0.300  -3.054  -2.113  0.00  0.00    +0.005 C 
ATOM     35  C   UNL     1      -0.346  -1.386  -3.972  0.00  0.00    +0.005 C 
ENDBRANCH  32  33
ENDBRANCH  26  32
ENDBRANCH  25  26
ENDBRANCH   1  25
TORSDOF 8
