REMARK  Name = ZINC63361852
REMARK  8 active torsions:
REMARK  status: ('A' for Active; 'I' for Inactive)
REMARK    1  A    between atoms: C_1  and  C_2
REMARK    2  A    between atoms: C_2  and  C_4
REMARK    3  A    between atoms: C_2  and  N_21
REMARK    4  A    between atoms: N_6  and  C_7
REMARK    5  A    between atoms: C_7  and  C_8
REMARK    6  A    between atoms: C_8  and  C_9
REMARK    7  A    between atoms: C_8  and  C_15
REMARK    8  A    between atoms: C_24  and  C_40
REMARK                            x       y       z     vdW  Elec       q    Type
REMARK                         _______ _______ _______ _____ _____    ______ ____
ROOT
ATOM      1  C   UNL     1       0.296   2.117   2.189  0.00  0.00    +0.038 C 
ATOM      2  C   UNL     1       0.506   0.603   2.118  0.00  0.00    +0.168 C 
ENDROOT
BRANCH   2   3
ATOM      3  N   UNL     1       1.691   0.312   1.308  0.00  0.00    -0.212 N 
ATOM      4  C   UNL     1       2.775  -0.351   1.762  0.00  0.00    +0.249 C 
ATOM      5  O   UNL     1       2.956  -0.776   2.883  0.00  0.00    -0.273 OA
ATOM      6  C   UNL     1       3.717  -0.455   0.583  0.00  0.00    +0.136 C 
ATOM      7  C   UNL     1       5.028   0.277   0.890  0.00  0.00    +0.139 C 
ATOM      8  C   UNL     1       5.666   0.604  -0.455  0.00  0.00    -0.034 C 
ATOM      9  C   UNL     1       6.872   0.045  -0.442  0.00  0.00    -0.001 A 
ATOM     10  C   UNL     1       7.968   0.065  -1.425  0.00  0.00    +0.010 A 
ATOM     11  C   UNL     1       9.084  -0.636  -1.091  0.00  0.00    +0.001 A 
ATOM     12  C   UNL     1       9.217  -1.345   0.107  0.00  0.00    +0.002 A 
ATOM     13  C   UNL     1       8.262  -1.413   1.069  0.00  0.00    +0.026 A 
ATOM     14  C   UNL     1       7.043  -0.713   0.834  0.00  0.00    +0.043 A 
ATOM     15  N   UNL     1       5.976  -0.595   1.588  0.00  0.00    -0.375 N 
ATOM     16  C   UNL     1       4.952   1.363  -1.547  0.00  0.00    +0.052 C 
ATOM     17  C   UNL     1       3.598   0.661  -1.778  0.00  0.00    +0.115 C 
ATOM     18  N   UNL     1       3.027   0.324  -0.470  0.00  0.00    -0.269 N 
ATOM     19  C   UNL     1       1.830   0.665   0.024  0.00  0.00    +0.313 C 
ATOM     20  O   UNL     1       0.969   1.234  -0.619  0.00  0.00    -0.252 OA
ATOM     21  C   UNL     1       3.949  -1.908   0.163  0.00  0.00    +0.044 C 
ATOM     22  H   UNL     1       5.833  -1.011   2.453  0.00  0.00    +0.160 HD
ENDBRANCH   2   3
BRANCH   2  23
ATOM     23  C   UNL     1      -0.703  -0.042   1.491  0.00  0.00    +0.234 C 
ATOM     24  O   UNL     1      -0.586  -0.683   0.468  0.00  0.00    -0.274 OA
ATOM     25  N   UNL     1      -1.914   0.092   2.067  0.00  0.00    -0.313 N 
ATOM     26  H   UNL     1      -2.008   0.605   2.885  0.00  0.00    +0.149 HD
BRANCH  25  27
ATOM     27  C   UNL     1      -3.089  -0.535   1.456  0.00  0.00    +0.117 C 
BRANCH  27  28
ATOM     28  C   UNL     1      -4.327  -0.231   2.302  0.00  0.00    +0.066 C 
BRANCH  28  29
ATOM     29  C   UNL     1      -4.604   1.250   2.272  0.00  0.00    -0.038 A 
ATOM     30  C   UNL     1      -4.756   1.950   3.454  0.00  0.00    +0.004 A 
ATOM     31  C   UNL     1      -5.011   3.308   3.426  0.00  0.00    +0.000 A 
ATOM     32  C   UNL     1      -5.113   3.967   2.215  0.00  0.00    +0.000 A 
ATOM     33  C   UNL     1      -4.960   3.268   1.033  0.00  0.00    +0.000 A 
ATOM     34  C   UNL     1      -4.702   1.910   1.061  0.00  0.00    +0.004 A 
ENDBRANCH  28  29
BRANCH  28  35
ATOM     35  C   UNL     1      -5.512  -0.976   1.745  0.00  0.00    -0.038 A 
ATOM     36  C   UNL     1      -5.825  -0.871   0.402  0.00  0.00    +0.004 A 
ATOM     37  C   UNL     1      -6.912  -1.555  -0.110  0.00  0.00    +0.000 A 
ATOM     38  C   UNL     1      -7.686  -2.343   0.721  0.00  0.00    +0.000 A 
ATOM     39  C   UNL     1      -7.373  -2.447   2.063  0.00  0.00    +0.000 A 
ATOM     40  C   UNL     1      -6.284  -1.768   2.574  0.00  0.00    +0.004 A 
ENDBRANCH  28  35
ENDBRANCH  27  28
ENDBRANCH  25  27
ENDBRANCH   2  23
TORSDOF 6
