REMARK  Name = ZINC11964941
REMARK  10 active torsions:
REMARK  status: ('A' for Active; 'I' for Inactive)
REMARK    1  A    between atoms: C_1  and  O_2
REMARK    2  A    between atoms: O_2  and  C_3
REMARK    3  A    between atoms: C_7  and  C_11
REMARK    4  A    between atoms: C_8  and  O_9
REMARK    5  A    between atoms: O_9  and  C_10
REMARK    6  A    between atoms: C_15  and  O_17
REMARK    7  A    between atoms: O_17  and  C_18
REMARK    8  A    between atoms: C_23  and  C_24
REMARK    9  A    between atoms: C_23  and  N_58
REMARK   10  A    between atoms: C_29  and  O_30
REMARK                            x       y       z     vdW  Elec       q    Type
REMARK                         _______ _______ _______ _____ _____    ______ ____
ROOT
ATOM      1  C   UNL     1      -2.536   3.864   0.047  0.00  0.00    -0.010 A 
ATOM      2  C   UNL     1      -3.534   3.531  -0.870  0.00  0.00    +0.014 A 
ATOM      3  C   UNL     1      -4.731   4.213  -0.852  0.00  0.00    -0.018 A 
ATOM      4  C   UNL     1      -4.950   5.228   0.060  0.00  0.00    +0.163 A 
ATOM      5  C   UNL     1      -3.964   5.556   0.988  0.00  0.00    +0.162 A 
ATOM      6  C   UNL     1      -2.761   4.872   0.982  0.00  0.00    +0.058 A 
ATOM      7  O   UNL     1      -6.124   5.919   0.040  0.00  0.00    -0.490 OA
ATOM      8  C   UNL     1      -6.318   6.765  -1.100  0.00  0.00    +0.211 C 
ATOM      9  C   UNL     1      -6.910   5.983  -2.253  0.00  0.00    -0.036 C 
ATOM     10  C   UNL     1      -5.833   3.841  -1.826  0.00  0.00    -0.039 C 
ATOM     11  N   UNL     1      -5.987   4.958  -2.787  0.00  0.00    +0.387 N 
ATOM     12  H   UNL     1      -5.067   5.390  -2.940  0.00  0.00    -0.081 HD
ENDROOT
BRANCH   1  17
ATOM     13  C   UNL     1       1.168   3.167   0.007  0.00  0.00    +0.162 A 
ATOM     14  C   UNL     1       1.178   1.781   0.000  0.00  0.00    +0.049 A 
ATOM     15  C   UNL     1      -0.013   1.076   0.008  0.00  0.00    +0.004 A 
ATOM     16  C   UNL     1      -1.219   1.747   0.017  0.00  0.00    +0.012 A 
ATOM     17  C   UNL     1      -1.241   3.140   0.031  0.00  0.00    +0.028 A 
ATOM     18  C   UNL     1      -0.041   3.853   0.023  0.00  0.00    +0.169 A 
BRANCH  13  20
ATOM     19  C   UNL     1       3.545   3.086  -0.015  0.00  0.00    +0.277 C 
ATOM     20  O   UNL     1       2.341   3.856   0.000  0.00  0.00    -0.491 OA
ENDBRANCH  13  20
BRANCH  18  21
ATOM     21  O   UNL     1      -0.054   5.213   0.030  0.00  0.00    -0.491 OA
ATOM     22  C   UNL     1      -0.072   5.868  -1.240  0.00  0.00    +0.277 C 
ENDBRANCH  18  21
ENDBRANCH   1  17
BRANCH   5  23
ATOM     23  O   UNL     1      -4.185   6.542   1.898  0.00  0.00    -0.491 OA
ATOM     24  C   UNL     1      -3.128   6.824   2.818  0.00  0.00    +0.277 C 
ENDBRANCH   5  23
BRANCH  11  25
ATOM     25  C   UNL     1      -6.494   4.451  -4.072  0.00  0.00    -0.039 C 
BRANCH  25  26
ATOM     26  C   UNL     1      -6.910   5.617  -4.932  0.00  0.00    -0.021 A 
ATOM     27  C   UNL     1      -8.247   5.941  -5.058  0.00  0.00    +0.025 A 
ATOM     28  C   UNL     1      -8.628   7.014  -5.843  0.00  0.00    +0.041 A 
ATOM     29  C   UNL     1      -7.673   7.758  -6.513  0.00  0.00    +0.023 A 
ATOM     30  C   UNL     1      -6.335   7.434  -6.394  0.00  0.00    +0.047 A 
ATOM     31  C   UNL     1      -5.950   6.361  -5.603  0.00  0.00    +0.118 A 
ATOM     32 CL   UNL     1     -10.309   7.424  -5.994  0.00  0.00    -0.084 Cl
BRANCH  31  33
ATOM     33  O   UNL     1      -4.635   6.040  -5.485  0.00  0.00    -0.507 OA
ATOM     34  H   UNL     1      -4.323   5.408  -6.147  0.00  0.00    +0.292 HD
ENDBRANCH  31  33
ENDBRANCH  25  26
ENDBRANCH  11  25
TORSDOF 7
