REMARK  Name = ZINC36207850
REMARK  14 active torsions:
REMARK  status: ('A' for Active; 'I' for Inactive)
REMARK    1  A    between atoms: C_1  and  C_2
REMARK    2  A    between atoms: C_2  and  C_3
REMARK    3  A    between atoms: C_2  and  N_4
REMARK    4  A    between atoms: N_4  and  C_5
REMARK    5  A    between atoms: N_4  and  C_25
REMARK    6  A    between atoms: C_5  and  C_6
REMARK    7  A    between atoms: C_12  and  C_17
REMARK    8  A    between atoms: C_20  and  O_23
REMARK    9  A    between atoms: O_23  and  C_24
REMARK   10  A    between atoms: C_25  and  C_26
REMARK   11  A    between atoms: C_26  and  C_28
REMARK   12  A    between atoms: C_26  and  O_36
REMARK   13  A    between atoms: C_28  and  O_29
REMARK   14  A    between atoms: O_29  and  C_30
REMARK                            x       y       z     vdW  Elec       q    Type
REMARK                         _______ _______ _______ _____ _____    ______ ____
ROOT
ATOM      1  C   UNL     1      -0.444  -1.965   1.387  0.00  0.00    +0.094 A 
ATOM      2  N   UNL     1      -0.132  -3.218   1.809  0.00  0.00    -0.312 N 
ATOM      3  H   UNL     1      -0.406  -3.981   1.277  0.00  0.00    +0.170 HD
ATOM      4  C   UNL     1       0.551  -3.421   2.951  0.00  0.00    +0.260 A 
ATOM      5  O   UNL     1       0.825  -4.552   3.315  0.00  0.00    -0.267 OA
ATOM      6  C   UNL     1       0.952  -2.289   3.730  0.00  0.00    +0.080 A 
ATOM      7  C   UNL     1       1.691  -2.250   4.987  0.00  0.00    +0.004 A 
ATOM      8  C   UNL     1       1.959  -1.046   5.547  0.00  0.00    +0.056 A 
ATOM      9  S   UNL     1       1.228   0.113   4.406  0.00  0.00    -0.076 S 
ATOM     10  C   UNL     1       0.585  -1.035   3.216  0.00  0.00    +0.116 A 
ATOM     11  N   UNL     1      -0.088  -0.913   2.074  0.00  0.00    -0.229 NA
ENDROOT
BRANCH   7  12
ATOM     12  C   UNL     1       2.139  -3.503   5.639  0.00  0.00    -0.016 A 
ATOM     13  C   UNL     1       1.239  -4.549   5.836  0.00  0.00    +0.012 A 
ATOM     14  C   UNL     1       1.659  -5.714   6.443  0.00  0.00    +0.046 A 
ATOM     15  C   UNL     1       2.977  -5.846   6.858  0.00  0.00    +0.120 A 
ATOM     16  C   UNL     1       3.876  -4.806   6.664  0.00  0.00    +0.046 A 
ATOM     17  C   UNL     1       3.464  -3.640   6.052  0.00  0.00    +0.012 A 
BRANCH  15  18
ATOM     18  O   UNL     1       3.389  -6.995   7.456  0.00  0.00    -0.495 OA
ATOM     19  C   UNL     1       4.758  -7.063   7.858  0.00  0.00    +0.277 C 
ENDBRANCH  15  18
ENDBRANCH   7  12
BRANCH   1  20
ATOM     20  C   UNL     1      -1.210  -1.786   0.102  0.00  0.00    -0.003 C 
BRANCH  20  21
ATOM     21  N   UNL     1      -1.278  -0.357  -0.232  0.00  0.00    +0.388 N 
ATOM     22  H   UNL     1      -1.377   0.182   0.615  0.00  0.00    -0.081 HD
BRANCH  21  24
ATOM     23  C   UNL     1       1.161  -0.252  -0.036  0.00  0.00    -0.014 C 
ATOM     24  C   UNL     1      -0.048   0.043  -0.927  0.00  0.00    -0.074 C 
ATOM     25  C   UNL     1       0.079  -0.743  -2.234  0.00  0.00    -0.014 C 
ENDBRANCH  21  24
BRANCH  21  26
ATOM     26  C   UNL     1      -2.435  -0.113  -1.104  0.00  0.00    -0.043 C 
BRANCH  26  27
ATOM     27  C   UNL     1      -2.627   1.394  -1.287  0.00  0.00    +0.135 C 
BRANCH  27  28
ATOM     28  O   UNL     1      -1.532   1.927  -2.034  0.00  0.00    -0.390 OA
ATOM     29  H   UNL     1      -1.486   1.609  -2.946  0.00  0.00    +0.210 HD
ENDBRANCH  27  28
BRANCH  27  30
ATOM     30  C   UNL     1      -3.933   1.653  -2.041  0.00  0.00    +0.258 C 
BRANCH  30  31
ATOM     31  O   UNL     1      -4.171   3.061  -2.109  0.00  0.00    -0.489 OA
BRANCH  31  32
ATOM     32  C   UNL     1      -5.299   3.465  -2.751  0.00  0.00    +0.121 A 
ATOM     33  C   UNL     1      -6.161   2.526  -3.299  0.00  0.00    +0.045 A 
ATOM     34  C   UNL     1      -7.307   2.939  -3.950  0.00  0.00    +0.004 A 
ATOM     35  C   UNL     1      -7.595   4.288  -4.057  0.00  0.00    +0.000 A 
ATOM     36  C   UNL     1      -6.737   5.225  -3.513  0.00  0.00    +0.004 A 
ATOM     37  C   UNL     1      -5.593   4.817  -2.855  0.00  0.00    +0.045 A 
ENDBRANCH  31  32
ENDBRANCH  30  31
ENDBRANCH  27  30
ENDBRANCH  26  27
ENDBRANCH  21  26
ENDBRANCH  20  21
ENDBRANCH   1  20
TORSDOF 11
