REMARK  Name = ZINC50321428
REMARK  8 active torsions:
REMARK  status: ('A' for Active; 'I' for Inactive)
REMARK    1  A    between atoms: C_1  and  C_2
REMARK    2  A    between atoms: C_2  and  C_3
REMARK    3  A    between atoms: C_9  and  N_11
REMARK    4  A    between atoms: C_12  and  C_14
REMARK    5  A    between atoms: C_15  and  N_23
REMARK    6  A    between atoms: C_16  and  C_20
REMARK    7  A    between atoms: C_20  and  C_21
REMARK    8  A    between atoms: C_20  and  C_22
REMARK                            x       y       z     vdW  Elec       q    Type
REMARK                         _______ _______ _______ _____ _____    ______ ____
ROOT
ATOM      1  N   UNL     1      -0.463  -2.636   1.119  0.00  0.00    -0.307 N 
ATOM      2  C   UNL     1      -0.632  -3.852   0.564  0.00  0.00    +0.266 C 
ATOM      3  O   UNL     1       0.323  -4.450   0.106  0.00  0.00    -0.268 OA
ATOM      4  H   UNL     1      -1.224  -2.159   1.484  0.00  0.00    +0.149 HD
ENDROOT
BRANCH   1  10
ATOM      5  C   UNL     1       0.742  -0.511   1.242  0.00  0.00    +0.009 C 
ATOM      6  C   UNL     1      -0.042  -0.124   2.497  0.00  0.00    +0.005 C 
ATOM      7  C   UNL     1       0.698  -0.630   3.737  0.00  0.00    +0.000 C 
ATOM      8  C   UNL     1       0.828  -2.153   3.666  0.00  0.00    +0.002 C 
ATOM      9  C   UNL     1       1.612  -2.541   2.410  0.00  0.00    +0.022 C 
ATOM     10  C   UNL     1       0.872  -2.034   1.171  0.00  0.00    +0.076 C 
BRANCH   5  12
ATOM     11  C   UNL     1      -0.019   1.526   0.010  0.00  0.00    +0.004 C 
ATOM     12  C   UNL     1       0.002  -0.004   0.002  0.00  0.00    +0.002 C 
ENDBRANCH   5  12
ENDBRANCH   1  10
BRANCH   2  13
ATOM     13  C   UNL     1      -1.975  -4.458   0.511  0.00  0.00    +0.168 A 
ATOM     14  C   UNL     1      -2.308  -5.725  -0.033  0.00  0.00    +0.078 A 
ATOM     15  C   UNL     1      -3.650  -5.853   0.141  0.00  0.00    +0.060 A 
ATOM     16  N   UNL     1      -4.082  -4.720   0.756  0.00  0.00    -0.279 N 
ATOM     17  H   UNL     1      -5.002  -4.539   1.004  0.00  0.00    +0.189 HD
ATOM     18  N   UNL     1      -3.094  -3.926   0.966  0.00  0.00    -0.167 NA
BRANCH  15  19
ATOM     19  C   UNL     1      -4.499  -7.028  -0.269  0.00  0.00    +0.033 C 
ATOM     20  C   UNL     1      -5.176  -7.625   0.967  0.00  0.00    +0.014 C 
ATOM     21  C   UNL     1      -5.567  -6.564  -1.262  0.00  0.00    +0.014 C 
ENDBRANCH  15  19
BRANCH  14  22
ATOM     22  N   UNL     1      -1.437  -6.651  -0.626  0.00  0.00    -0.355 N 
ATOM     23  H   UNL     1      -0.490  -6.450  -0.696  0.00  0.00    +0.142 HD
ATOM     24  H   UNL     1      -1.780  -7.492  -0.966  0.00  0.00    +0.142 HD
ENDBRANCH  14  22
ENDBRANCH   2  13
TORSDOF 5
