REMARK  Name = ZINC09312022
REMARK  6 active torsions:
REMARK  status: ('A' for Active; 'I' for Inactive)
REMARK    1  A    between atoms: C_1  and  O_2
REMARK    2  A    between atoms: O_2  and  C_3
REMARK    3  A    between atoms: C_6  and  N_39
REMARK    4  A    between atoms: C_8  and  N_9
REMARK    5  A    between atoms: C_24  and  C_30
REMARK    6  A    between atoms: N_32  and  C_33
REMARK                            x       y       z     vdW  Elec       q    Type
REMARK                         _______ _______ _______ _____ _____    ______ ____
ROOT
ATOM      1  N   UNL     1       5.268   1.103  -2.836  0.00  0.00    -0.206 N 
ATOM      2  C   UNL     1       4.687   1.237  -1.604  0.00  0.00    +0.232 C 
ATOM      3  O   UNL     1       4.194   2.240  -1.135  0.00  0.00    -0.274 OA
ATOM      4  C   UNL     1       4.785  -0.104  -0.955  0.00  0.00    +0.113 C 
ATOM      5  C   UNL     1       3.724  -0.721  -0.076  0.00  0.00    +0.100 C 
ATOM      6  C   UNL     1       2.416   0.029  -0.053  0.00  0.00    -0.021 A 
ATOM      7  C   UNL     1       2.372   1.403  -0.039  0.00  0.00    +0.006 A 
ATOM      8  C   UNL     1       1.163   2.074  -0.010  0.00  0.00    +0.000 A 
ATOM      9  C   UNL     1      -0.025   1.364   0.006  0.00  0.00    +0.001 A 
ATOM     10  C   UNL     1      -0.002  -0.014   0.006  0.00  0.00    +0.008 A 
ATOM     11  C   UNL     1       1.217  -0.696  -0.013  0.00  0.00    -0.019 A 
ATOM     12  C   UNL     1       1.221  -2.173   0.016  0.00  0.00    +0.022 C 
ATOM     13  C   UNL     1       2.345  -2.833  -0.324  0.00  0.00    +0.054 C 
ATOM     14  C   UNL     1       4.440  -2.324  -1.734  0.00  0.00    +0.156 C 
ATOM     15  C   UNL     1       4.617  -0.960  -2.271  0.00  0.00    +0.118 C 
ATOM     16  C   UNL     1       5.453  -0.215  -3.188  0.00  0.00    +0.232 C 
ATOM     17  O   UNL     1       6.165  -0.660  -4.062  0.00  0.00    -0.274 OA
ATOM     18  N   UNL     1       3.692  -2.122  -0.439  0.00  0.00    -0.383 NA
ATOM     19  H   UNL     1       4.271  -2.580   0.275  0.00  0.00    +0.127 HD
ENDROOT
BRANCH   1  25
ATOM     20  C   UNL     1       4.729   2.708  -4.569  0.00  0.00    +0.142 A 
ATOM     21  C   UNL     1       5.095   3.781  -5.365  0.00  0.00    +0.050 A 
ATOM     22  C   UNL     1       6.359   4.327  -5.252  0.00  0.00    +0.036 A 
ATOM     23  C   UNL     1       7.261   3.807  -4.341  0.00  0.00    +0.128 A 
ATOM     24  C   UNL     1       6.902   2.740  -3.540  0.00  0.00    +0.060 A 
ATOM     25  C   UNL     1       5.635   2.188  -3.648  0.00  0.00    +0.088 A 
BRANCH  23  26
ATOM     26  N   UNL     1       8.614   4.396  -4.224  0.00  0.00    +0.056 N 
ATOM     27  O   UNL     1       9.410   3.940  -3.422  0.00  0.00    -0.126 OA
ATOM     28  O   UNL     1       8.932   5.337  -4.929  0.00  0.00    -0.126 OA
ENDBRANCH  23  26
BRANCH  20  30
ATOM     29  C   UNL     1       2.610   2.752  -5.648  0.00  0.00    +0.277 C 
ATOM     30  O   UNL     1       3.487   2.167  -4.683  0.00  0.00    -0.493 OA
ENDBRANCH  20  30
ENDBRANCH   1  25
BRANCH  14  31
ATOM     31  C   UNL     1       5.722  -2.848  -1.139  0.00  0.00    +0.237 C 
ATOM     32  O   UNL     1       5.952  -2.689   0.042  0.00  0.00    -0.273 OA
ATOM     33  N   UNL     1       6.612  -3.493  -1.918  0.00  0.00    -0.284 N 
ATOM     34  H   UNL     1       6.400  -3.679  -2.845  0.00  0.00    +0.155 HD
BRANCH  33  35
ATOM     35  C   UNL     1       7.844  -3.894  -1.388  0.00  0.00    +0.033 A 
ATOM     36  C   UNL     1       8.983  -3.875  -2.182  0.00  0.00    +0.023 A 
ATOM     37  C   UNL     1      10.198  -4.266  -1.655  0.00  0.00    +0.002 A 
ATOM     38  C   UNL     1      10.279  -4.687  -0.340  0.00  0.00    +0.000 A 
ATOM     39  C   UNL     1       9.146  -4.714   0.452  0.00  0.00    +0.002 A 
ATOM     40  C   UNL     1       7.929  -4.319  -0.068  0.00  0.00    +0.023 A 
ENDBRANCH  33  35
ENDBRANCH  14  31
TORSDOF 5
