REMARK  Name = ZINC09359699
REMARK  4 active torsions:
REMARK  status: ('A' for Active; 'I' for Inactive)
REMARK    1  A    between atoms: C_5  and  C_7
REMARK    2  A    between atoms: C_7  and  C_9
REMARK    3  A    between atoms: C_11  and  C_29
REMARK    4  A    between atoms: C_32  and  N_35
REMARK                            x       y       z     vdW  Elec       q    Type
REMARK                         _______ _______ _______ _____ _____    ______ ____
ROOT
ATOM      1  C   UNL     1      -1.510   5.841   0.084  0.00  0.00    +0.070 C 
ATOM      2  C   UNL     1      -2.072   6.101   1.497  0.00  0.00    +0.016 C 
ATOM      3  C   UNL     1      -2.219   7.630   1.602  0.00  0.00    -0.047 C 
ATOM      4  C   UNL     1      -3.498   7.964   2.397  0.00  0.00    +0.052 C 
ATOM      5  S   UNL     1      -4.546   8.764   1.108  0.00  0.00    -0.181 S 
ATOM      6  C   UNL     1      -3.597   8.176  -0.363  0.00  0.00    -0.005 C 
ATOM      7  C   UNL     1      -1.382   7.225  -0.560  0.00  0.00    +0.052 C 
ATOM      8  C   UNL     1      -1.800   7.194  -2.005  0.00  0.00    -0.024 A 
ATOM      9  C   UNL     1      -2.975   6.861  -2.642  0.00  0.00    +0.043 A 
ATOM     10  C   UNL     1      -3.059   6.934  -4.023  0.00  0.00    +0.124 A 
ATOM     11  C   UNL     1      -1.958   7.340  -4.759  0.00  0.00    +0.040 A 
ATOM     12  C   UNL     1      -0.780   7.673  -4.123  0.00  0.00    +0.026 A 
ATOM     13  C   UNL     1      -0.689   7.603  -2.734  0.00  0.00    +0.036 A 
ATOM     14  N   UNL     1       0.377   7.883  -1.874  0.00  0.00    -0.286 N 
ATOM     15  C   UNL     1       0.052   7.685  -0.583  0.00  0.00    +0.212 C 
ATOM     16  O   UNL     1       0.775   7.846   0.378  0.00  0.00    -0.277 OA
ATOM     17  F   UNL     1      -4.210   6.608  -4.650  0.00  0.00    -0.205 F 
ATOM     18  H   UNL     1       1.249   8.184  -2.173  0.00  0.00    +0.155 HD
ATOM     19  N   UNL     1      -2.206   8.132   0.220  0.00  0.00    +0.401 N 
ATOM     20  H   UNL     1      -1.803   9.076   0.200  0.00  0.00    -0.078 HD
ENDROOT
BRANCH   2  21
ATOM     21  C   UNL     1      -3.415   5.436   1.655  0.00  0.00    -0.045 A 
ATOM     22  C   UNL     1      -3.820   4.984   2.897  0.00  0.00    +0.006 A 
ATOM     23  C   UNL     1      -5.053   4.378   3.044  0.00  0.00    +0.033 A 
ATOM     24  C   UNL     1      -5.878   4.214   1.946  0.00  0.00    +0.126 A 
ATOM     25  C   UNL     1      -5.470   4.660   0.703  0.00  0.00    +0.033 A 
ATOM     26  C   UNL     1      -4.239   5.271   0.558  0.00  0.00    +0.006 A 
BRANCH  24  27
ATOM     27  N   UNL     1      -7.197   3.561   2.102  0.00  0.00    +0.056 N 
ATOM     28  O   UNL     1      -7.923   3.416   1.135  0.00  0.00    -0.126 OA
ATOM     29  O   UNL     1      -7.556   3.167   3.198  0.00  0.00    -0.126 OA
ENDBRANCH  24  27
ENDBRANCH   2  21
BRANCH   1  30
ATOM     30  C   UNL     1      -0.160   5.179   0.172  0.00  0.00    +0.184 C 
ATOM     31  O   UNL     1       0.522   5.323   1.164  0.00  0.00    -0.290 OA
BRANCH  30  36
ATOM     32  C   UNL     1       2.033   2.975  -1.923  0.00  0.00    +0.004 A 
ATOM     33  C   UNL     1       1.217   2.842  -3.035  0.00  0.00    +0.020 A 
ATOM     34  C   UNL     1      -0.014   3.481  -3.056  0.00  0.00    +0.111 A 
ATOM     35  N   UNL     1      -0.418   4.202  -2.034  0.00  0.00    -0.252 NA
ATOM     36  C   UNL     1       0.333   4.356  -0.949  0.00  0.00    +0.106 A 
ATOM     37  C   UNL     1       1.585   3.745  -0.862  0.00  0.00    +0.031 A 
ENDBRANCH  30  36
ENDBRANCH   1  30
TORSDOF 4
