REMARK  Name = ZINC35033945
REMARK  9 active torsions:
REMARK  status: ('A' for Active; 'I' for Inactive)
REMARK    1  A    between atoms: C_1  and  C_2
REMARK    2  A    between atoms: N_5  and  C_19
REMARK    3  A    between atoms: N_11  and  C_12
REMARK    4  A    between atoms: C_19  and  C_21
REMARK    5  A    between atoms: C_19  and  C_22
REMARK    6  A    between atoms: N_32  and  C_33
REMARK    7  A    between atoms: C_33  and  C_34
REMARK    8  A    between atoms: C_34  and  O_35
REMARK    9  A    between atoms: O_35  and  C_36
REMARK                            x       y       z     vdW  Elec       q    Type
REMARK                         _______ _______ _______ _____ _____    ______ ____
ROOT
ATOM      1  C   UNL     1       0.305   0.447  -1.470  0.00  0.00    +0.026 C 
ATOM      2  C   UNL     1       0.007  -0.972  -0.981  0.00  0.00    +0.058 C 
ATOM      3  C   UNL     1      -1.508  -1.190  -0.925  0.00  0.00    -0.055 C 
ATOM      4  N   UNL     1      -1.791  -2.502  -0.328  0.00  0.00    +0.388 N 
ATOM      5  C   UNL     1      -1.337  -2.524   1.069  0.00  0.00    -0.058 C 
ATOM      6  C   UNL     1       0.187  -2.372   1.111  0.00  0.00    +0.091 C 
ATOM      7  N   UNL     1       0.560  -1.156   0.370  0.00  0.00    -0.286 N 
ATOM      8  C   UNL     1       1.379  -0.234   0.914  0.00  0.00    +0.307 C 
ATOM      9  O   UNL     1       1.597   0.808   0.328  0.00  0.00    -0.252 OA
ATOM     10  N   UNL     1       1.956  -0.469   2.109  0.00  0.00    -0.268 N 
ATOM     11  H   UNL     1       1.750  -1.282   2.597  0.00  0.00    +0.156 HD
ATOM     12  H   UNL     1      -1.309  -3.218  -0.849  0.00  0.00    -0.081 HD
ENDROOT
BRANCH  10  13
ATOM     13  C   UNL     1       2.854   0.461   2.647  0.00  0.00    +0.049 A 
ATOM     14  C   UNL     1       2.834   1.779   2.212  0.00  0.00    +0.024 A 
ATOM     15  C   UNL     1       3.721   2.694   2.745  0.00  0.00    +0.002 A 
ATOM     16  C   UNL     1       4.629   2.299   3.711  0.00  0.00    +0.001 A 
ATOM     17  C   UNL     1       4.652   0.987   4.146  0.00  0.00    +0.017 A 
ATOM     18  C   UNL     1       3.764   0.067   3.621  0.00  0.00    +0.039 A 
ATOM     19 BR   UNL     1       3.792  -1.726   4.221  0.00  0.00    -0.048 Br
ENDBRANCH  10  13
BRANCH   4  20
ATOM     20  C   UNL     1      -3.237  -2.757  -0.374  0.00  0.00    -0.004 C 
ATOM     21  C   UNL     1      -3.687  -2.880  -1.831  0.00  0.00    -0.005 C 
BRANCH  20  22
ATOM     22  C   UNL     1      -3.544  -4.039   0.356  0.00  0.00    +0.099 A 
ATOM     23  N   UNL     1      -3.043  -5.145  -0.103  0.00  0.00    -0.235 NA
ATOM     24  C   UNL     1      -3.276  -6.337   0.502  0.00  0.00    +0.078 A 
ATOM     25  C   UNL     1      -2.736  -7.526   0.009  0.00  0.00    +0.028 A 
ATOM     26  C   UNL     1      -2.999  -8.713   0.655  0.00  0.00    +0.002 A 
ATOM     27  C   UNL     1      -3.795  -8.743   1.793  0.00  0.00    +0.001 A 
ATOM     28  C   UNL     1      -4.339  -7.583   2.298  0.00  0.00    +0.015 A 
ATOM     29  C   UNL     1      -4.085  -6.371   1.659  0.00  0.00    +0.065 A 
ATOM     30  C   UNL     1      -4.638  -5.101   2.153  0.00  0.00    +0.262 A 
ATOM     31  O   UNL     1      -5.343  -5.061   3.144  0.00  0.00    -0.267 OA
ATOM     32  N   UNL     1      -4.328  -3.977   1.465  0.00  0.00    -0.295 N 
BRANCH  32  33
ATOM     33  C   UNL     1      -4.847  -2.683   1.916  0.00  0.00    +0.154 C 
BRANCH  33  34
ATOM     34  C   UNL     1      -6.125  -2.350   1.145  0.00  0.00    +0.181 C 
BRANCH  34  35
ATOM     35  O   UNL     1      -7.129  -3.323   1.442  0.00  0.00    -0.381 OA
ATOM     36  C   UNL     1      -8.370  -3.103   0.769  0.00  0.00    +0.194 C 
ENDBRANCH  34  35
ENDBRANCH  33  34
ENDBRANCH  32  33
ENDBRANCH  20  22
ENDBRANCH   4  20
TORSDOF 6
