REMARK  Name = ZINC05941805
REMARK  9 active torsions:
REMARK  status: ('A' for Active; 'I' for Inactive)
REMARK    1  A    between atoms: C_1  and  C_2
REMARK    2  A    between atoms: C_5  and  S_8
REMARK    3  A    between atoms: S_8  and  N_11
REMARK    4  A    between atoms: N_11  and  C_12
REMARK    5  A    between atoms: C_15  and  C_18
REMARK    6  A    between atoms: C_18  and  C_36
REMARK    7  A    between atoms: N_19  and  N_20
REMARK    8  A    between atoms: C_24  and  C_27
REMARK    9  A    between atoms: C_30  and  N_33
REMARK                            x       y       z     vdW  Elec       q    Type
REMARK                         _______ _______ _______ _____ _____    ______ ____
ROOT
ATOM      1  C   UNL     1       4.568  -3.755   4.657  0.00  0.00    +0.068 C 
ATOM      2  N   UNL     1       4.348  -2.620   5.317  0.00  0.00    -0.151 NA
ATOM      3  C   UNL     1       5.603  -4.730   5.157  0.00  0.00    +0.068 C 
ENDROOT
BRANCH   2   4
ATOM      4  N   UNL     1       5.020  -2.355   6.386  0.00  0.00    -0.124 NA
ATOM      5  C   UNL     1       4.799  -1.216   7.049  0.00  0.00    +0.192 A 
ATOM      6  N   UNL     1       5.411  -0.773   8.179  0.00  0.00    -0.332 N 
ATOM      7  H   UNL     1       6.104  -1.291   8.617  0.00  0.00    +0.168 HD
ATOM      8  C   UNL     1       5.014   0.416   8.661  0.00  0.00    +0.055 A 
ATOM      9  C   UNL     1       4.013   1.061   7.941  0.00  0.00    +0.075 A 
ATOM     10  S   UNL     1       3.707   0.002   6.675  0.00  0.00    -0.056 S 
BRANCH   8  11
ATOM     11  C   UNL     1       5.602   1.002   9.880  0.00  0.00    -0.001 A 
ATOM     12  C   UNL     1       6.610   0.323  10.570  0.00  0.00    +0.012 A 
ATOM     13  C   UNL     1       7.155   0.877  11.709  0.00  0.00    +0.033 A 
ATOM     14  C   UNL     1       6.707   2.104  12.169  0.00  0.00    +0.126 A 
ATOM     15  C   UNL     1       5.709   2.783  11.491  0.00  0.00    +0.033 A 
ATOM     16  C   UNL     1       5.158   2.244  10.347  0.00  0.00    +0.012 A 
BRANCH  14  17
ATOM     17  N   UNL     1       7.297   2.692  13.392  0.00  0.00    +0.056 N 
ATOM     18  O   UNL     1       8.246   2.049  14.040  0.00  0.00    -0.126 OA
ATOM     19  O   UNL     1       6.873   3.858  13.832  0.00  0.00    -0.126 OA
ENDBRANCH  14  17
ENDBRANCH   8  11
ENDBRANCH   2   4
BRANCH   1  23
ATOM     20  C   UNL     1       2.395  -4.612   1.198  0.00  0.00    +0.048 A 
ATOM     21  C   UNL     1       2.160  -3.420   1.890  0.00  0.00    +0.025 A 
ATOM     22  C   UNL     1       2.866  -3.134   3.018  0.00  0.00    +0.011 A 
ATOM     23  C   UNL     1       3.835  -4.045   3.490  0.00  0.00    -0.002 A 
ATOM     24  C   UNL     1       4.066  -5.246   2.788  0.00  0.00    +0.011 A 
ATOM     25  C   UNL     1       3.350  -5.522   1.663  0.00  0.00    +0.025 A 
BRANCH  20  26
ATOM     26  N   UNL     1       1.676  -4.896   0.053  0.00  0.00    -0.216 N 
ATOM     27  H   UNL     1       2.098  -4.816  -0.816  0.00  0.00    +0.174 HD
BRANCH  26  28
ATOM     28  S   UNL     1       0.094  -5.372   0.166  0.00  0.00    +0.072 S 
ATOM     29  O   UNL     1      -0.355  -5.606  -1.162  0.00  0.00    -0.150 OA
ATOM     30  O   UNL     1      -0.547  -4.449   1.036  0.00  0.00    -0.150 OA
BRANCH  28  35
ATOM     31  C   UNL     1       0.032 -10.714   2.971  0.00  0.00    +0.044 C 
ATOM     32  C   UNL     1       0.047  -9.380   2.271  0.00  0.00    -0.050 A 
ATOM     33  C   UNL     1      -0.000  -8.211   3.008  0.00  0.00    +0.005 A 
ATOM     34  C   UNL     1       0.014  -6.987   2.365  0.00  0.00    +0.029 A 
ATOM     35  C   UNL     1       0.077  -6.932   0.985  0.00  0.00    +0.109 A 
ATOM     36  C   UNL     1       0.125  -8.101   0.248  0.00  0.00    +0.029 A 
ATOM     37  C   UNL     1       0.115  -9.324   0.891  0.00  0.00    +0.005 A 
ENDBRANCH  28  35
ENDBRANCH  26  28
ENDBRANCH  20  26
ENDBRANCH   1  23
TORSDOF 7
