REMARK  Name = ZINC59849553
REMARK  6 active torsions:
REMARK  status: ('A' for Active; 'I' for Inactive)
REMARK    1  A    between atoms: C_1  and  C_2
REMARK    2  A    between atoms: C_2  and  C_4
REMARK    3  A    between atoms: C_2  and  N_13
REMARK    4  A    between atoms: N_16  and  C_17
REMARK    5  A    between atoms: C_17  and  C_19
REMARK    6  A    between atoms: C_17  and  C_29
REMARK                            x       y       z     vdW  Elec       q    Type
REMARK                         _______ _______ _______ _____ _____    ______ ____
ROOT
ATOM      1  N   UNL     1       0.711  -0.489   1.189  0.00  0.00    -0.290 N 
ATOM      2  C   UNL     1       0.051  -0.633   2.355  0.00  0.00    +0.301 C 
ATOM      3  O   UNL     1      -1.132  -0.361   2.423  0.00  0.00    -0.253 OA
ATOM      4  N   UNL     1       0.703  -1.080   3.447  0.00  0.00    -0.292 N 
ATOM      5  H   UNL     1       1.654  -0.707   1.135  0.00  0.00    +0.151 HD
ATOM      6  H   UNL     1       1.647  -1.298   3.394  0.00  0.00    +0.151 HD
ENDROOT
BRANCH   1   8
ATOM      7  C   UNL     1      -0.019   1.526   0.010  0.00  0.00    +0.036 C 
ATOM      8  C   UNL     1       0.002  -0.004   0.002  0.00  0.00    +0.137 C 
BRANCH   8   9
ATOM      9  C   UNL     1       0.707  -0.490  -1.238  0.00  0.00    +0.126 A 
ATOM     10  C   UNL     1       0.096  -0.923  -2.349  0.00  0.00    +0.055 A 
ATOM     11  C   UNL     1       1.163  -1.291  -3.287  0.00  0.00    +0.020 A 
ATOM     12  C   UNL     1       1.188  -1.799  -4.585  0.00  0.00    +0.011 A 
ATOM     13  C   UNL     1       2.387  -2.040  -5.196  0.00  0.00    +0.001 A 
ATOM     14  C   UNL     1       3.578  -1.783  -4.531  0.00  0.00    +0.004 A 
ATOM     15  C   UNL     1       3.573  -1.281  -3.248  0.00  0.00    +0.047 A 
ATOM     16  C   UNL     1       2.365  -1.028  -2.609  0.00  0.00    +0.135 A 
ATOM     17  O   UNL     1       2.042  -0.547  -1.392  0.00  0.00    -0.458 OA
ENDBRANCH   8   9
ENDBRANCH   1   8
BRANCH   4  18
ATOM     18  C   UNL     1      -0.014  -1.237   4.715  0.00  0.00    +0.108 C 
BRANCH  18  19
ATOM     19  C   UNL     1       0.962  -1.138   5.859  0.00  0.00    -0.023 A 
ATOM     20  C   UNL     1       2.210  -1.724   5.755  0.00  0.00    +0.009 A 
ATOM     21  C   UNL     1       3.107  -1.637   6.802  0.00  0.00    +0.050 A 
ATOM     22  C   UNL     1       2.758  -0.962   7.962  0.00  0.00    +0.162 A 
ATOM     23  C   UNL     1       1.504  -0.370   8.066  0.00  0.00    +0.162 A 
ATOM     24  C   UNL     1       0.610  -0.458   7.010  0.00  0.00    +0.055 A 
ATOM     25  O   UNL     1       1.144   0.305   9.192  0.00  0.00    -0.485 OA
ATOM     26  C   UNL     1       1.924   0.058  10.367  0.00  0.00    +0.270 C 
ATOM     27  C   UNL     1       3.408   0.114   9.980  0.00  0.00    +0.270 C 
ATOM     28  O   UNL     1       3.650  -0.888   8.987  0.00  0.00    -0.485 OA
ENDBRANCH  18  19
BRANCH  18  29
ATOM     29  C   UNL     1      -0.701  -2.603   4.747  0.00  0.00    +0.014 C 
ATOM     30  C   UNL     1      -0.369  -3.587   3.624  0.00  0.00    +0.006 C 
ATOM     31  C   UNL     1      -1.735  -2.899   3.659  0.00  0.00    +0.006 C 
ENDBRANCH  18  29
ENDBRANCH   4  18
TORSDOF 5
