REMARK  Name = ZINC40820337
REMARK  2 active torsions:
REMARK  status: ('A' for Active; 'I' for Inactive)
REMARK    1  A    between atoms: C_11  and  C_12
REMARK    2  A    between atoms: C_18  and  C_20
REMARK                            x       y       z     vdW  Elec       q    Type
REMARK                         _______ _______ _______ _____ _____    ______ ____
ROOT
ATOM      1  C   UNL     1       4.271   3.306  -0.010  0.00  0.00    +0.109 C 
ATOM      2  C   UNL     1       4.198   3.912  -1.427  0.00  0.00    +0.029 C 
ATOM      3  C   UNL     1       5.492   4.764  -1.508  0.00  0.00    +0.021 C 
ATOM      4  C   UNL     1       6.486   3.897  -0.694  0.00  0.00    +0.109 C 
ATOM      5  N   UNL     1       5.680   3.331   0.408  0.00  0.00    -0.289 N 
ATOM      6  C   UNL     1       6.155   2.909   1.596  0.00  0.00    +0.269 C 
ATOM      7  O   UNL     1       5.393   2.459   2.430  0.00  0.00    -0.268 OA
ENDROOT
BRANCH   1  18
ATOM      8  C   UNL     1      -0.021   1.421   0.001  0.00  0.00    +0.021 A 
ATOM      9  C   UNL     1       1.146   2.131   0.003  0.00  0.00    +0.012 A 
ATOM     10  C   UNL     1       2.368   1.456  -0.026  0.00  0.00    +0.005 A 
ATOM     11  C   UNL     1       2.393   0.049  -0.055  0.00  0.00    +0.048 A 
ATOM     12  C   UNL     1       1.192  -0.654  -0.056  0.00  0.00    +0.046 A 
ATOM     13  C   UNL     1      -0.003   0.033  -0.028  0.00  0.00    +0.043 A 
ATOM     14 CL   UNL     1      -1.500  -0.847  -0.030  0.00  0.00    -0.083 Cl
ATOM     15  N   UNL     1       3.715  -0.334  -0.079  0.00  0.00    -0.360 N 
ATOM     16  H   UNL     1       4.029  -1.251  -0.103  0.00  0.00    +0.165 HD
ATOM     17  C   UNL     1       4.520   0.773  -0.066  0.00  0.00    +0.089 A 
ATOM     18  C   UNL     1       3.768   1.885  -0.033  0.00  0.00    -0.002 A 
ENDBRANCH   1  18
BRANCH   6  19
ATOM     19  C   UNL     1       7.601   2.992   1.885  0.00  0.00    +0.165 A 
ATOM     20  C   UNL     1       8.085   2.667   3.163  0.00  0.00    +0.147 A 
ATOM     21  N   UNL     1       9.388   2.745   3.412  0.00  0.00    -0.237 NA
ATOM     22  C   UNL     1      10.220   3.127   2.460  0.00  0.00    +0.132 A 
ATOM     23  C   UNL     1       9.741   3.448   1.198  0.00  0.00    +0.131 A 
ATOM     24  N   UNL     1       8.452   3.370   0.936  0.00  0.00    -0.246 NA
ATOM     25  N   UNL     1       7.211   2.269   4.157  0.00  0.00    -0.341 N 
ATOM     26  H   UNL     1       6.271   2.139   3.953  0.00  0.00    +0.144 HD
ATOM     27  H   UNL     1       7.536   2.118   5.058  0.00  0.00    +0.144 HD
ENDBRANCH   6  19
TORSDOF 2
