REMARK  Name = ZINC39517637
REMARK  11 active torsions:
REMARK  status: ('A' for Active; 'I' for Inactive)
REMARK    1  A    between atoms: C_1  and  C_2
REMARK    2  A    between atoms: C_2  and  N_3
REMARK    3  A    between atoms: C_4  and  C_25
REMARK    4  A    between atoms: C_7  and  S_8
REMARK    5  A    between atoms: S_8  and  C_9
REMARK    6  A    between atoms: C_9  and  C_11
REMARK    7  A    between atoms: C_9  and  C_12
REMARK    8  A    between atoms: N_14  and  C_15
REMARK    9  A    between atoms: C_15  and  C_16
REMARK   10  A    between atoms: C_16  and  C_18
REMARK   11  A    between atoms: C_16  and  C_19
REMARK                            x       y       z     vdW  Elec       q    Type
REMARK                         _______ _______ _______ _____ _____    ______ ____
ROOT
ATOM      1  C   UNL     1      -1.495  -0.860   4.688  0.00  0.00    +0.137 C 
ATOM      2  C   UNL     1      -0.597   0.090   5.482  0.00  0.00    +0.029 C 
ENDROOT
BRANCH   1   3
ATOM      3  C   UNL     1      -2.905  -0.774   5.212  0.00  0.00    +0.226 C 
ATOM      4  O   UNL     1      -3.731  -0.106   4.626  0.00  0.00    -0.275 OA
ATOM      5  N   UNL     1      -3.249  -1.440   6.333  0.00  0.00    -0.314 N 
ATOM      6  H   UNL     1      -2.589  -1.974   6.801  0.00  0.00    +0.149 HD
BRANCH   5   7
ATOM      7  C   UNL     1      -4.620  -1.356   6.843  0.00  0.00    +0.112 C 
BRANCH   7   8
ATOM      8  C   UNL     1      -4.743  -2.197   8.115  0.00  0.00    +0.033 C 
ATOM      9  C   UNL     1      -4.527  -3.673   7.774  0.00  0.00    +0.014 C 
BRANCH   8  10
ATOM     10  C   UNL     1      -6.116  -2.014   8.707  0.00  0.00    -0.043 A 
ATOM     11  C   UNL     1      -7.237  -2.359   7.975  0.00  0.00    +0.004 A 
ATOM     12  C   UNL     1      -8.496  -2.191   8.518  0.00  0.00    +0.000 A 
ATOM     13  C   UNL     1      -8.636  -1.678   9.794  0.00  0.00    +0.000 A 
ATOM     14  C   UNL     1      -7.516  -1.334  10.527  0.00  0.00    +0.000 A 
ATOM     15  C   UNL     1      -6.256  -1.506   9.986  0.00  0.00    +0.004 A 
ENDBRANCH   8  10
ENDBRANCH   7   8
ENDBRANCH   5   7
ENDBRANCH   1   3
BRANCH   1  16
ATOM     16  S   UNL     1      -1.472  -0.391   2.936  0.00  0.00    -0.074 S 
BRANCH  16  21
ATOM     17  N   UNL     1       0.714  -0.476   1.192  0.00  0.00    -0.302 N 
ATOM     18  C   UNL     1       2.039  -0.834   1.281  0.00  0.00    +0.165 A 
ATOM     19  N   UNL     1       2.252  -1.225   2.516  0.00  0.00    -0.128 NA
ATOM     20  N   UNL     1       1.165  -1.139   3.196  0.00  0.00    -0.122 NA
ATOM     21  C   UNL     1       0.193  -0.681   2.438  0.00  0.00    +0.193 A 
BRANCH  18  22
ATOM     22  C   UNL     1       3.037  -0.786   0.191  0.00  0.00    +0.019 A 
ATOM     23  C   UNL     1       2.810   0.010  -0.933  0.00  0.00    +0.011 A 
ATOM     24  C   UNL     1       3.745   0.050  -1.947  0.00  0.00    +0.001 A 
ATOM     25  C   UNL     1       4.905  -0.697  -1.851  0.00  0.00    +0.000 A 
ATOM     26  C   UNL     1       5.137  -1.488  -0.740  0.00  0.00    +0.001 A 
ATOM     27  C   UNL     1       4.213  -1.532   0.283  0.00  0.00    +0.011 A 
ENDBRANCH  18  22
BRANCH  17  29
ATOM     28  C   UNL     1       0.007   1.555   0.028  0.00  0.00    +0.027 C 
ATOM     29  C   UNL     1       0.009   0.025   0.010  0.00  0.00    +0.122 C 
ENDBRANCH  17  29
ENDBRANCH  16  21
ENDBRANCH   1  16
TORSDOF 8
