REMARK  Name = ZINC43167240
REMARK  8 active torsions:
REMARK  status: ('A' for Active; 'I' for Inactive)
REMARK    1  A    between atoms: C_1  and  N_2
REMARK    2  A    between atoms: N_2  and  C_3
REMARK    3  A    between atoms: C_3  and  C_4
REMARK    4  A    between atoms: C_9  and  O_10
REMARK    5  A    between atoms: N_13  and  C_14
REMARK    6  A    between atoms: C_14  and  C_15
REMARK    7  A    between atoms: C_15  and  C_17
REMARK    8  A    between atoms: C_15  and  N_22
REMARK                            x       y       z     vdW  Elec       q    Type
REMARK                         _______ _______ _______ _____ _____    ______ ____
ROOT
ATOM      1  C   UNL     1       0.163   1.521  -0.015  0.00  0.00    +0.134 C 
ATOM      2  N   UNL     1      -0.004   0.066   0.006  0.00  0.00    -0.284 N 
ATOM      3  C   UNL     1      -0.104  -0.618  -1.151  0.00  0.00    +0.302 C 
ATOM      4  O   UNL     1      -0.242  -1.825  -1.133  0.00  0.00    -0.253 OA
ATOM      5  N   UNL     1      -0.050   0.038  -2.328  0.00  0.00    -0.300 N 
ATOM      6  H   UNL     1       0.060   1.001  -2.341  0.00  0.00    +0.150 HD
ENDROOT
BRANCH   2   7
ATOM      7  C   UNL     1      -0.062  -0.646   1.285  0.00  0.00    +0.147 C 
BRANCH   7   8
ATOM      8  C   UNL     1      -1.493  -0.729   1.750  0.00  0.00    +0.011 A 
ATOM      9  C   UNL     1      -1.963   0.155   2.703  0.00  0.00    +0.009 A 
ATOM     10  C   UNL     1      -3.275   0.079   3.130  0.00  0.00    +0.001 A 
ATOM     11  C   UNL     1      -4.122  -0.880   2.604  0.00  0.00    +0.004 A 
ATOM     12  C   UNL     1      -3.657  -1.765   1.651  0.00  0.00    +0.046 A 
ATOM     13  C   UNL     1      -2.342  -1.688   1.217  0.00  0.00    +0.122 A 
BRANCH  13  14
ATOM     14  O   UNL     1      -1.884  -2.554   0.275  0.00  0.00    -0.506 OA
ATOM     15  H   UNL     1      -1.512  -3.369   0.638  0.00  0.00    +0.292 HD
ENDBRANCH  13  14
ENDBRANCH   7   8
ENDBRANCH   2   7
BRANCH   5  16
ATOM     16  C   UNL     1      -0.159  -0.706  -3.585  0.00  0.00    +0.098 C 
BRANCH  16  17
ATOM     17  C   UNL     1      -0.173   0.277  -4.758  0.00  0.00    +0.016 C 
BRANCH  17  18
ATOM     18  N   UNL     1      -0.415  -0.456  -6.008  0.00  0.00    +0.387 N 
ATOM     19  C   UNL     1      -1.755  -1.096  -5.975  0.00  0.00    -0.078 C 
ATOM     20  C   UNL     1      -2.081  -1.313  -7.474  0.00  0.00    -0.020 C 
ATOM     21  C   UNL     1      -1.498  -0.047  -8.142  0.00  0.00    -0.020 C 
ATOM     22  C   UNL     1      -0.443   0.481  -7.152  0.00  0.00    -0.078 C 
ATOM     23  H   UNL     1       0.301  -1.154  -6.147  0.00  0.00    -0.081 HD
ENDBRANCH  17  18
BRANCH  17  24
ATOM     24  C   UNL     1       1.157   0.982  -4.839  0.00  0.00    +0.093 A 
ATOM     25  C   UNL     1       1.422   2.217  -4.377  0.00  0.00    +0.043 A 
ATOM     26  C   UNL     1       2.782   2.478  -4.660  0.00  0.00    +0.041 A 
ATOM     27  C   UNL     1       3.267   1.386  -5.279  0.00  0.00    +0.195 A 
ATOM     28  O   UNL     1       2.280   0.481  -5.380  0.00  0.00    -0.469 OA
ENDBRANCH  17  24
ENDBRANCH  16  17
ENDBRANCH   5  16
TORSDOF 7
