REMARK  Name = ZINC15848329
REMARK  8 active torsions:
REMARK  status: ('A' for Active; 'I' for Inactive)
REMARK    1  A    between atoms: C_1  and  C_2
REMARK    2  A    between atoms: C_2  and  C_4
REMARK    3  A    between atoms: C_2  and  O_14
REMARK    4  A    between atoms: N_6  and  C_7
REMARK    5  A    between atoms: O_14  and  C_15
REMARK    6  A    between atoms: C_15  and  C_17
REMARK    7  A    between atoms: C_30  and  C_31
REMARK    8  A    between atoms: C_34  and  O_37
REMARK                            x       y       z     vdW  Elec       q    Type
REMARK                         _______ _______ _______ _____ _____    ______ ____
ROOT
ATOM      1  C   UNL     1      -8.453   2.917   0.562  0.00  0.00    +0.073 A 
ATOM      2  C   UNL     1      -9.411   2.858  -0.542  0.00  0.00    +0.015 A 
ATOM      3  C   UNL     1      -9.275   3.666  -1.676  0.00  0.00    +0.011 A 
ATOM      4  C   UNL     1     -10.193   3.577  -2.680  0.00  0.00    +0.001 A 
ATOM      5  C   UNL     1     -11.265   2.693  -2.590  0.00  0.00    +0.002 A 
ATOM      6  C   UNL     1     -11.428   1.893  -1.501  0.00  0.00    +0.028 A 
ATOM      7  C   UNL     1     -10.500   1.956  -0.444  0.00  0.00    +0.072 A 
ATOM      8  N   UNL     1     -10.633   1.187   0.634  0.00  0.00    -0.247 NA
ATOM      9  C   UNL     1      -9.780   1.217   1.653  0.00  0.00    +0.072 A 
ATOM     10  C   UNL     1      -8.667   2.075   1.643  0.00  0.00    -0.007 A 
ATOM     11  C   UNL     1      -7.880   1.905   2.919  0.00  0.00    +0.043 C 
ATOM     12  C   UNL     1      -8.613   0.833   3.737  0.00  0.00    +0.042 C 
ATOM     13  C   UNL     1      -9.802   0.429   2.901  0.00  0.00    -0.021 C 
ATOM     14  C   UNL     1     -10.724  -0.491   3.235  0.00  0.00    +0.013 C 
ENDROOT
BRANCH  14  15
ATOM     15  C   UNL     1     -10.701  -1.103   4.574  0.00  0.00    -0.024 A 
ATOM     16  C   UNL     1     -11.757  -1.921   4.989  0.00  0.00    +0.011 A 
ATOM     17  C   UNL     1     -11.728  -2.496   6.241  0.00  0.00    +0.046 A 
ATOM     18  C   UNL     1     -10.659  -2.255   7.094  0.00  0.00    +0.117 A 
ATOM     19  C   UNL     1      -9.610  -1.439   6.688  0.00  0.00    +0.046 A 
ATOM     20  C   UNL     1      -9.627  -0.864   5.437  0.00  0.00    +0.011 A 
BRANCH  18  21
ATOM     21  O   UNL     1     -10.638  -2.819   8.330  0.00  0.00    -0.507 OA
ATOM     22  H   UNL     1     -11.053  -2.279   9.016  0.00  0.00    +0.292 HD
ENDBRANCH  18  21
ENDBRANCH  14  15
BRANCH   1  23
ATOM     23  C   UNL     1      -7.296   3.836   0.524  0.00  0.00    +0.341 C 
ATOM     24  O   UNL     1      -7.398   4.961   0.970  0.00  0.00    -0.245 OA
BRANCH  23  25
ATOM     25  O   UNL     1      -6.127   3.426  -0.006  0.00  0.00    -0.449 OA
BRANCH  25  27
ATOM     26  C   UNL     1      -5.070   5.192  -1.307  0.00  0.00    +0.062 C 
ATOM     27  C   UNL     1      -5.034   4.381  -0.010  0.00  0.00    +0.259 C 
BRANCH  27  28
ATOM     28  C   UNL     1      -3.722   3.644   0.085  0.00  0.00    +0.258 C 
ATOM     29  O   UNL     1      -3.705   2.432   0.058  0.00  0.00    -0.271 OA
ATOM     30  N   UNL     1      -2.569   4.332   0.200  0.00  0.00    -0.280 N 
ATOM     31  H   UNL     1      -2.588   5.298   0.287  0.00  0.00    +0.155 HD
BRANCH  30  32
ATOM     32  C   UNL     1      -1.345   3.653   0.193  0.00  0.00    +0.071 A 
ATOM     33  C   UNL     1      -1.238   2.385   0.755  0.00  0.00    +0.028 A 
ATOM     34  C   UNL     1      -0.004   1.755   0.730  0.00  0.00    +0.022 A 
ATOM     35  C   UNL     1       1.070   2.396   0.140  0.00  0.00    +0.112 A 
ATOM     36  N   UNL     1       0.935   3.596  -0.390  0.00  0.00    -0.242 NA
ATOM     37  C   UNL     1      -0.220   4.233  -0.383  0.00  0.00    +0.150 A 
ATOM     38 CL   UNL     1      -0.336   5.811  -1.097  0.00  0.00    -0.060 Cl
ENDBRANCH  30  32
ENDBRANCH  27  28
ENDBRANCH  25  27
ENDBRANCH  23  25
ENDBRANCH   1  23
TORSDOF 7
