REMARK  Name = ZINC48362384
REMARK  7 active torsions:
REMARK  status: ('A' for Active; 'I' for Inactive)
REMARK    1  A    between atoms: C_1  and  C_2
REMARK    2  A    between atoms: N_4  and  C_5
REMARK    3  A    between atoms: C_5  and  C_12
REMARK    4  A    between atoms: N_13  and  O_14
REMARK    5  A    between atoms: O_14  and  C_15
REMARK    6  A    between atoms: C_15  and  C_16
REMARK    7  A    between atoms: N_18  and  C_19
REMARK                            x       y       z     vdW  Elec       q    Type
REMARK                         _______ _______ _______ _____ _____    ______ ____
ROOT
ATOM      1  C   UNL     1      -0.454  -2.624  -1.259  0.00  0.00    +0.155 C 
ATOM      2  N   UNL     1       0.558  -3.425  -1.188  0.00  0.00    -0.072 NA
ATOM      3  N   UNL     1      -0.917  -2.206  -2.487  0.00  0.00    -0.342 N 
ATOM      4  H   UNL     1      -1.676  -1.605  -2.539  0.00  0.00    +0.144 HD
ATOM      5  H   UNL     1      -0.484  -2.514  -3.299  0.00  0.00    +0.144 HD
ENDROOT
BRANCH   1   6
ATOM      6  C   UNL     1      -1.126  -2.146   0.003  0.00  0.00    +0.093 C 
ATOM      7  C   UNL     1      -0.309  -2.633   1.217  0.00  0.00    +0.033 C 
ATOM      8  C   UNL     1      -0.651  -1.770   2.401  0.00  0.00    +0.002 C 
ATOM      9  C   UNL     1      -1.768  -2.379   3.270  0.00  0.00    +0.000 C 
ATOM     10  C   UNL     1      -2.907  -2.995   2.435  0.00  0.00    +0.000 C 
ATOM     11  C   UNL     1      -3.281  -2.142   1.253  0.00  0.00    +0.002 C 
ATOM     12  C   UNL     1      -2.495  -2.638   0.022  0.00  0.00    +0.033 C 
BRANCH   6  16
ATOM     13  C   UNL     1      -0.013   1.517  -0.014  0.00  0.00    +0.109 C 
ATOM     14  C   UNL     1       0.009   0.010  -0.014  0.00  0.00    +0.211 C 
ATOM     15  O   UNL     1       1.068  -0.581  -0.029  0.00  0.00    -0.276 OA
ATOM     16  N   UNL     1      -1.148  -0.681   0.002  0.00  0.00    -0.303 N 
ATOM     17  H   UNL     1      -1.995  -0.209   0.014  0.00  0.00    +0.150 HD
ENDBRANCH   6  16
ENDBRANCH   1   6
BRANCH   2  18
ATOM     18  O   UNL     1       1.189  -3.873  -2.374  0.00  0.00    -0.383 OA
BRANCH  18  19
ATOM     19  C   UNL     1       2.292  -4.753  -2.147  0.00  0.00    +0.358 C 
BRANCH  19  20
ATOM     20  C   UNL     1       2.885  -5.166  -3.470  0.00  0.00    +0.258 C 
ATOM     21  O   UNL     1       2.410  -4.748  -4.504  0.00  0.00    -0.272 OA
ATOM     22  N   UNL     1       3.943  -6.000  -3.503  0.00  0.00    -0.283 N 
ATOM     23  H   UNL     1       4.365  -6.281  -2.676  0.00  0.00    +0.155 HD
BRANCH  22  24
ATOM     24  C   UNL     1       4.434  -6.460  -4.731  0.00  0.00    +0.034 A 
ATOM     25  C   UNL     1       4.939  -7.749  -4.839  0.00  0.00    +0.025 A 
ATOM     26  C   UNL     1       5.422  -8.201  -6.051  0.00  0.00    +0.022 A 
ATOM     27  C   UNL     1       5.404  -7.370  -7.157  0.00  0.00    +0.041 A 
ATOM     28  C   UNL     1       4.901  -6.085  -7.052  0.00  0.00    +0.022 A 
ATOM     29  C   UNL     1       4.411  -5.630  -5.844  0.00  0.00    +0.025 A 
ATOM     30 CL   UNL     1       6.012  -7.940  -8.680  0.00  0.00    -0.084 Cl
ENDBRANCH  22  24
ENDBRANCH  19  20
ENDBRANCH  18  19
ENDBRANCH   2  18
TORSDOF 6
