REMARK  Name = ZINC17070730
REMARK  5 active torsions:
REMARK  status: ('A' for Active; 'I' for Inactive)
REMARK    1  A    between atoms: C_1  and  S_2
REMARK    2  A    between atoms: S_2  and  C_3
REMARK    3  A    between atoms: C_8  and  C_20
REMARK    4  A    between atoms: C_11  and  C_13
REMARK    5  A    between atoms: C_18  and  O_19
REMARK                            x       y       z     vdW  Elec       q    Type
REMARK                         _______ _______ _______ _____ _____    ______ ____
ROOT
ATOM      1  C   UNL     1       1.615   9.444  -0.565  0.00  0.00    +0.210 A 
ATOM      2  N   UNL     1       2.112   8.219  -0.336  0.00  0.00    -0.187 NA
ATOM      3  C   UNL     1       1.130   7.381  -0.138  0.00  0.00    +0.220 A 
ATOM      4  N   UNL     1      -0.036   8.068  -0.232  0.00  0.00    -0.220 N 
ATOM      5  N   UNL     1       0.302   9.391  -0.511  0.00  0.00    -0.141 NA
ATOM      6  C   UNL     1      -1.351   7.459  -0.054  0.00  0.00    +0.165 C 
ATOM      7  C   UNL     1      -1.221   5.960  -0.064  0.00  0.00    +0.028 C 
ATOM      8  C   UNL     1      -0.058   5.328   0.028  0.00  0.00    +0.043 C 
ATOM      9  N   UNL     1       1.156   6.020   0.126  0.00  0.00    -0.283 N 
ATOM     10  H   UNL     1       1.978   5.567   0.369  0.00  0.00    +0.155 HD
ENDROOT
BRANCH   8  11
ATOM     11  C   UNL     1      -0.043   3.848   0.022  0.00  0.00    +0.037 A 
ATOM     12  C   UNL     1      -0.618   3.146  -1.037  0.00  0.00    +0.013 A 
ATOM     13  C   UNL     1      -0.601   1.767  -1.038  0.00  0.00    +0.001 A 
ATOM     14  C   UNL     1      -0.015   1.076   0.009  0.00  0.00    +0.004 A 
ATOM     15  C   UNL     1       0.553   1.761   1.066  0.00  0.00    +0.046 A 
ATOM     16  C   UNL     1       0.549   3.147   1.078  0.00  0.00    +0.126 A 
BRANCH  16  17
ATOM     17  O   UNL     1       1.112   3.821   2.114  0.00  0.00    -0.506 OA
ATOM     18  H   UNL     1       0.502   4.007   2.840  0.00  0.00    +0.292 HD
ENDBRANCH  16  17
ENDBRANCH   8  11
BRANCH   6  19
ATOM     19  C   UNL     1      -1.938   7.907   1.260  0.00  0.00    -0.019 A 
ATOM     20  C   UNL     1      -1.280   7.623   2.442  0.00  0.00    +0.006 A 
ATOM     21  C   UNL     1      -1.816   8.038   3.647  0.00  0.00    +0.000 A 
ATOM     22  C   UNL     1      -3.014   8.728   3.670  0.00  0.00    +0.000 A 
ATOM     23  C   UNL     1      -3.674   9.007   2.488  0.00  0.00    +0.000 A 
ATOM     24  C   UNL     1      -3.135   8.596   1.283  0.00  0.00    +0.006 A 
ENDBRANCH   6  19
BRANCH   1  26
ATOM     25  C   UNL     1       4.285  10.307  -0.828  0.00  0.00    +0.093 C 
ATOM     26  S   UNL     1       2.569  10.890  -0.887  0.00  0.00    -0.088 S 
ENDBRANCH   1  26
TORSDOF 4
