REMARK  Name = ZINC25480685
REMARK  10 active torsions:
REMARK  status: ('A' for Active; 'I' for Inactive)
REMARK    1  A    between atoms: C_1  and  N_2
REMARK    2  A    between atoms: N_2  and  C_3
REMARK    3  A    between atoms: N_2  and  C_4
REMARK    4  A    between atoms: C_4  and  C_5
REMARK    5  A    between atoms: C_5  and  C_6
REMARK    6  A    between atoms: C_6  and  N_7
REMARK    7  A    between atoms: C_17  and  S_18
REMARK    8  A    between atoms: S_18  and  C_19
REMARK    9  A    between atoms: C_19  and  C_20
REMARK   10  A    between atoms: C_25  and  C_30
REMARK                            x       y       z     vdW  Elec       q    Type
REMARK                         _______ _______ _______ _____ _____    ______ ____
ROOT
ATOM      1  S   UNL     1       1.379   3.388   2.249  0.00  0.00    -0.080 S 
ENDROOT
BRANCH   1  12
ATOM      2  N   UNL     1      -0.020   1.094   2.454  0.00  0.00    -0.287 N 
ATOM      3  C   UNL     1      -0.364  -0.094   3.003  0.00  0.00    +0.262 A 
ATOM      4  O   UNL     1      -1.256  -0.774   2.529  0.00  0.00    -0.267 OA
ATOM      5  C   UNL     1       0.383  -0.535   4.189  0.00  0.00    +0.065 A 
ATOM      6  C   UNL     1       0.108  -1.745   4.824  0.00  0.00    +0.015 A 
ATOM      7  C   UNL     1       0.831  -2.106   5.928  0.00  0.00    +0.001 A 
ATOM      8  C   UNL     1       1.833  -1.280   6.421  0.00  0.00    +0.002 A 
ATOM      9  C   UNL     1       2.122  -0.088   5.818  0.00  0.00    +0.028 A 
ATOM     10  C   UNL     1       1.401   0.308   4.688  0.00  0.00    +0.079 A 
ATOM     11  N   UNL     1       1.654   1.475   4.062  0.00  0.00    -0.223 NA
ATOM     12  C   UNL     1       0.979   1.846   3.002  0.00  0.00    +0.173 A 
BRANCH   2  13
ATOM     13  C   UNL     1      -0.729   1.579   1.267  0.00  0.00    +0.125 C 
BRANCH  13  14
ATOM     14  C   UNL     1      -0.013   1.086   0.008  0.00  0.00    +0.003 C 
BRANCH  14  15
ATOM     15  C   UNL     1      -0.753   1.593  -1.232  0.00  0.00    -0.078 C 
BRANCH  15  17
ATOM     16  C   UNL     1      -0.150  -0.343  -2.555  0.00  0.00    -0.097 C 
ATOM     17  N   UNL     1      -0.065   1.119  -2.440  0.00  0.00    +0.376 N 
ATOM     18  C   UNL     1      -0.600   1.774  -3.641  0.00  0.00    -0.097 C 
ATOM     19  H   UNL     1       0.998   1.389  -2.353  0.00  0.00    -0.083 HD
ENDBRANCH  15  17
ENDBRANCH  14  15
ENDBRANCH  13  14
ENDBRANCH   2  13
ENDBRANCH   1  12
BRANCH   1  20
ATOM     20  C   UNL     1       2.714   3.935   3.341  0.00  0.00    +0.151 C 
BRANCH  20  21
ATOM     21  C   UNL     1       3.228   5.273   2.877  0.00  0.00    +0.122 A 
ATOM     22  N   UNL     1       4.238   5.873   3.557  0.00  0.00    -0.195 NA
ATOM     23  C   UNL     1       4.726   7.068   3.175  0.00  0.00    +0.282 A 
ATOM     24  O   UNL     1       5.633   7.593   3.796  0.00  0.00    -0.265 OA
ATOM     25  C   UNL     1       4.162   7.713   2.028  0.00  0.00    +0.080 A 
ATOM     26  C   UNL     1       4.513   8.992   1.423  0.00  0.00    +0.004 A 
ATOM     27  C   UNL     1       3.832   9.402   0.325  0.00  0.00    +0.056 A 
ATOM     28  S   UNL     1       2.671   8.079   0.041  0.00  0.00    -0.078 S 
ATOM     29  C   UNL     1       3.122   7.017   1.389  0.00  0.00    +0.092 A 
ATOM     30  N   UNL     1       2.697   5.834   1.823  0.00  0.00    -0.337 N 
ATOM     31  H   UNL     1       1.885   5.327   1.281  0.00  0.00    +0.168 HD
BRANCH  26  32
ATOM     32  C   UNL     1       5.593   9.828   1.998  0.00  0.00    -0.017 A 
ATOM     33  C   UNL     1       5.601  10.121   3.361  0.00  0.00    +0.008 A 
ATOM     34  C   UNL     1       6.612  10.896   3.891  0.00  0.00    +0.001 A 
ATOM     35  C   UNL     1       7.611  11.390   3.071  0.00  0.00    +0.000 A 
ATOM     36  C   UNL     1       7.605  11.108   1.717  0.00  0.00    +0.001 A 
ATOM     37  C   UNL     1       6.602  10.329   1.176  0.00  0.00    +0.008 A 
ENDBRANCH  26  32
ENDBRANCH  20  21
ENDBRANCH   1  20
TORSDOF 8
