REMARK  Name = ZINC38671029
REMARK  8 active torsions:
REMARK  status: ('A' for Active; 'I' for Inactive)
REMARK    1  A    between atoms: C_1  and  N_2
REMARK    2  A    between atoms: C_10  and  C_12
REMARK    3  A    between atoms: C_12  and  C_14
REMARK    4  A    between atoms: C_12  and  N_27
REMARK    5  A    between atoms: C_14  and  N_15
REMARK    6  A    between atoms: C_16  and  C_18
REMARK    7  A    between atoms: C_20  and  O_25
REMARK    8  A    between atoms: O_25  and  C_26
REMARK                            x       y       z     vdW  Elec       q    Type
REMARK                         _______ _______ _______ _____ _____    ______ ____
ROOT
ATOM      1  C   UNL     1       4.957  -2.731  -0.470  0.00  0.00    -0.020 C 
ENDROOT
BRANCH   1  11
ATOM      2  C   UNL     1      -0.115   1.226   0.628  0.00  0.00    +0.129 C 
ATOM      3  N   UNL     1      -0.042  -0.231   0.499  0.00  0.00    -0.333 N 
ATOM      4  C   UNL     1      -1.255  -1.052   0.612  0.00  0.00    +0.105 C 
ATOM      5  C   UNL     1      -0.927  -2.254   1.508  0.00  0.00    +0.024 C 
ATOM      6  C   UNL     1       0.149  -3.098   0.826  0.00  0.00    +0.038 C 
ATOM      7  C   UNL     1       1.315  -2.236   0.416  0.00  0.00    -0.026 A 
ATOM      8  C   UNL     1       1.183  -0.864   0.261  0.00  0.00    +0.033 A 
ATOM      9  C   UNL     1       2.276  -0.098  -0.128  0.00  0.00    +0.023 A 
ATOM     10  C   UNL     1       3.495  -0.703  -0.364  0.00  0.00    +0.004 A 
ATOM     11  C   UNL     1       3.626  -2.071  -0.213  0.00  0.00    -0.059 A 
ATOM     12  C   UNL     1       2.542  -2.835   0.184  0.00  0.00    +0.007 A 
ENDBRANCH   1  11
BRANCH   1  13
ATOM     13  N   UNL     1       5.589  -2.117  -1.645  0.00  0.00    +0.385 N 
ATOM     14  C   UNL     1       4.697  -2.247  -2.803  0.00  0.00    -0.078 C 
ATOM     15  C   UNL     1       5.315  -1.538  -4.011  0.00  0.00    -0.019 C 
ATOM     16  C   UNL     1       6.668  -2.178  -4.333  0.00  0.00    -0.004 C 
ATOM     17  C   UNL     1       7.565  -2.103  -3.094  0.00  0.00    -0.019 C 
ATOM     18  C   UNL     1       6.864  -2.791  -1.921  0.00  0.00    -0.078 C 
ATOM     19  H   UNL     1       5.759  -1.139  -1.462  0.00  0.00    -0.081 HD
ENDBRANCH   1  13
BRANCH   1  20
ATOM     20  C   UNL     1       5.861  -2.547   0.750  0.00  0.00    +0.094 C 
BRANCH  20  21
ATOM     21  N   UNL     1       5.276  -3.241   1.900  0.00  0.00    -0.313 N 
ATOM     22  C   UNL     1       5.947  -3.294   3.068  0.00  0.00    +0.245 C 
ATOM     23  O   UNL     1       7.038  -2.766   3.167  0.00  0.00    -0.270 OA
ATOM     24  H   UNL     1       4.406  -3.662   1.821  0.00  0.00    +0.149 HD
BRANCH  22  25
ATOM     25  C   UNL     1       5.358  -3.994   4.228  0.00  0.00    +0.054 A 
ATOM     26  C   UNL     1       4.109  -4.606   4.116  0.00  0.00    +0.059 A 
ATOM     27  C   UNL     1       3.563  -5.261   5.207  0.00  0.00    +0.121 A 
ATOM     28  C   UNL     1       4.257  -5.308   6.409  0.00  0.00    +0.047 A 
ATOM     29  C   UNL     1       5.494  -4.702   6.522  0.00  0.00    +0.019 A 
ATOM     30  C   UNL     1       6.051  -4.051   5.439  0.00  0.00    +0.030 A 
ATOM     31 BR   UNL     1       7.747  -3.230   5.598  0.00  0.00    -0.050 Br
BRANCH  27  32
ATOM     32  O   UNL     1       2.346  -5.858   5.101  0.00  0.00    -0.495 OA
ATOM     33  C   UNL     1       1.843  -6.515   6.266  0.00  0.00    +0.277 C 
ENDBRANCH  27  32
ENDBRANCH  22  25
ENDBRANCH  20  21
ENDBRANCH   1  20
TORSDOF 6
