REMARK  Name = ZINC34750229
REMARK  10 active torsions:
REMARK  status: ('A' for Active; 'I' for Inactive)
REMARK    1  A    between atoms: C_1  and  C_2
REMARK    2  A    between atoms: C_2  and  C_3
REMARK    3  A    between atoms: C_3  and  N_4
REMARK    4  A    between atoms: C_17  and  S_19
REMARK    5  A    between atoms: S_19  and  C_20
REMARK    6  A    between atoms: C_20  and  C_21
REMARK    7  A    between atoms: N_23  and  C_24
REMARK    8  A    between atoms: C_24  and  C_25
REMARK    9  A    between atoms: C_33  and  C_35
REMARK   10  A    between atoms: C_33  and  C_36
REMARK                            x       y       z     vdW  Elec       q    Type
REMARK                         _______ _______ _______ _____ _____    ______ ____
ROOT
ATOM      1  N   UNL     1      -0.232  -2.631  -0.029  0.00  0.00    +0.382 N 
ATOM      2  C   UNL     1       0.111  -4.050  -0.188  0.00  0.00    -0.060 C 
ATOM      3  C   UNL     1      -1.175  -4.878  -0.274  0.00  0.00    +0.088 C 
ATOM      4  N   UNL     1      -2.001  -4.582   0.906  0.00  0.00    -0.318 N 
ATOM      5  C   UNL     1      -2.260  -3.171   1.235  0.00  0.00    +0.088 C 
ATOM      6  C   UNL     1      -0.922  -2.424   1.250  0.00  0.00    -0.060 C 
ATOM      7  C   UNL     1      -2.521  -5.600   1.685  0.00  0.00    +0.134 A 
ATOM      8  C   UNL     1      -3.846  -6.071   1.462  0.00  0.00    +0.051 A 
ATOM      9  C   UNL     1      -4.825  -5.622   0.474  0.00  0.00    -0.020 A 
ATOM     10  C   UNL     1      -6.025  -6.241   0.471  0.00  0.00    +0.021 A 
ATOM     11  S   UNL     1      -5.926  -7.443   1.767  0.00  0.00    -0.071 S 
ATOM     12  C   UNL     1      -4.270  -7.112   2.313  0.00  0.00    +0.115 A 
ATOM     13  N   UNL     1      -3.482  -7.605   3.248  0.00  0.00    -0.214 NA
ATOM     14  C   UNL     1      -2.256  -7.126   3.411  0.00  0.00    +0.191 A 
ATOM     15  N   UNL     1      -1.791  -6.150   2.639  0.00  0.00    -0.206 NA
ATOM     16  C   UNL     1      -7.172  -5.946  -0.445  0.00  0.00    +0.203 C 
ATOM     17  O   UNL     1      -6.904  -4.696  -1.100  0.00  0.00    -0.368 OA
ATOM     18  C   UNL     1      -5.589  -4.614  -1.654  0.00  0.00    +0.068 C 
ATOM     19  C   UNL     1      -4.550  -4.507  -0.533  0.00  0.00    +0.071 C 
ATOM     20  C   UNL     1      -5.310  -5.867  -2.487  0.00  0.00    +0.041 C 
ATOM     21  C   UNL     1      -5.493  -3.379  -2.553  0.00  0.00    +0.041 C 
ATOM     22  H   UNL     1      -0.836  -2.346  -0.785  0.00  0.00    -0.082 HD
ENDROOT
BRANCH   1  23
ATOM     23  C   UNL     1       0.997  -1.826  -0.056  0.00  0.00    -0.079 C 
BRANCH  23  25
ATOM     24  C   UNL     1       2.933  -1.105  -1.462  0.00  0.00    +0.002 C 
ATOM     25  C   UNL     1       1.653  -1.944  -1.433  0.00  0.00    -0.022 C 
ENDBRANCH  23  25
ENDBRANCH   1  23
BRANCH  14  26
ATOM     26  S   UNL     1      -1.223  -7.802   4.668  0.00  0.00    -0.077 S 
BRANCH  26  27
ATOM     27  C   UNL     1      -2.252  -9.080   5.441  0.00  0.00    +0.173 C 
BRANCH  27  28
ATOM     28  C   UNL     1      -1.477  -9.746   6.549  0.00  0.00    +0.224 C 
ATOM     29  O   UNL     1      -0.343  -9.393   6.793  0.00  0.00    -0.275 OA
ATOM     30  N   UNL     1      -2.045 -10.734   7.269  0.00  0.00    -0.311 N 
ATOM     31  H   UNL     1      -2.952 -11.016   7.074  0.00  0.00    +0.149 HD
BRANCH  30  32
ATOM     32  C   UNL     1      -1.292 -11.382   8.346  0.00  0.00    +0.139 C 
BRANCH  32  33
ATOM     33  C   UNL     1      -2.147 -12.444   8.988  0.00  0.00    -0.030 A 
ATOM     34  C   UNL     1      -2.962 -12.122  10.057  0.00  0.00    +0.005 A 
ATOM     35  C   UNL     1      -3.746 -13.096  10.647  0.00  0.00    +0.000 A 
ATOM     36  C   UNL     1      -3.715 -14.392  10.166  0.00  0.00    +0.000 A 
ATOM     37  C   UNL     1      -2.901 -14.713   9.097  0.00  0.00    +0.000 A 
ATOM     38  C   UNL     1      -2.120 -13.738   8.505  0.00  0.00    +0.005 A 
ENDBRANCH  32  33
ENDBRANCH  30  32
ENDBRANCH  27  28
ENDBRANCH  26  27
ENDBRANCH  14  26
TORSDOF 7
