REMARK  Name = ZINC13734811
REMARK  6 active torsions:
REMARK  status: ('A' for Active; 'I' for Inactive)
REMARK    1  A    between atoms: C_1  and  C_2
REMARK    2  A    between atoms: C_5  and  N_8
REMARK    3  A    between atoms: C_20  and  C_27
REMARK    4  A    between atoms: C_29  and  C_31
REMARK    5  A    between atoms: C_31  and  C_33
REMARK    6  A    between atoms: C_31  and  O_40
REMARK                            x       y       z     vdW  Elec       q    Type
REMARK                         _______ _______ _______ _____ _____    ______ ____
ROOT
ATOM      1  N   UNL     1       0.059  -4.172  -0.021  0.00  0.00    -0.210 N 
ATOM      2  C   UNL     1       0.068  -4.922  -1.163  0.00  0.00    +0.232 C 
ATOM      3  O   UNL     1      -0.190  -4.542  -2.285  0.00  0.00    -0.274 OA
ATOM      4  C   UNL     1       0.463  -6.306  -0.752  0.00  0.00    +0.110 C 
ATOM      5  C   UNL     1      -0.211  -6.280   0.671  0.00  0.00    +0.123 C 
ATOM      6  C   UNL     1       0.075  -4.938   1.118  0.00  0.00    +0.233 C 
ATOM      7  O   UNL     1       0.282  -4.567   2.253  0.00  0.00    -0.274 OA
ATOM      8  C   UNL     1      -0.144  -7.671   1.114  0.00  0.00    +0.136 C 
ATOM      9  C   UNL     1      -1.247  -8.082   2.056  0.00  0.00    +0.004 A 
ATOM     10  C   UNL     1      -2.620  -8.019   1.981  0.00  0.00    +0.011 A 
ATOM     11  C   UNL     1      -3.392  -8.486   3.030  0.00  0.00    -0.050 A 
ATOM     12  C   UNL     1      -2.780  -9.016   4.152  0.00  0.00    +0.005 A 
ATOM     13  C   UNL     1      -1.405  -9.080   4.231  0.00  0.00    +0.024 A 
ATOM     14  C   UNL     1      -0.620  -8.612   3.178  0.00  0.00    +0.039 A 
ATOM     15  N   UNL     1       0.766  -8.570   3.021  0.00  0.00    -0.283 N 
ATOM     16  C   UNL     1       1.128  -8.035   1.841  0.00  0.00    +0.243 C 
ATOM     17  O   UNL     1       2.261  -7.876   1.439  0.00  0.00    -0.273 OA
ATOM     18  C   UNL     1      -4.896  -8.418   2.951  0.00  0.00    +0.044 C 
ATOM     19  N   UNL     1      -0.241  -8.485  -0.138  0.00  0.00    -0.293 NA
ATOM     20  C   UNL     1      -0.263  -7.525  -1.312  0.00  0.00    +0.101 C 
ATOM     21  H   UNL     1       1.396  -8.890   3.686  0.00  0.00    +0.155 HD
ATOM     22  H   UNL     1       0.536  -9.124  -0.215  0.00  0.00    +0.124 HD
ENDROOT
BRANCH   1  27
ATOM     23  C   UNL     1      -0.018   1.503   0.010  0.00  0.00    +0.044 C 
ATOM     24  C   UNL     1       0.002  -0.004   0.002  0.00  0.00    -0.050 A 
ATOM     25  C   UNL     1       0.006  -0.688  -1.200  0.00  0.00    +0.005 A 
ATOM     26  C   UNL     1       0.025  -2.068  -1.211  0.00  0.00    +0.024 A 
ATOM     27  C   UNL     1       0.040  -2.771  -0.013  0.00  0.00    +0.044 A 
ATOM     28  C   UNL     1       0.037  -2.082   1.192  0.00  0.00    +0.024 A 
ATOM     29  C   UNL     1       0.023  -0.700   1.196  0.00  0.00    +0.005 A 
ENDBRANCH   1  27
BRANCH  20  30
ATOM     30  C   UNL     1       0.495  -8.104  -2.508  0.00  0.00    +0.162 C 
BRANCH  30  31
ATOM     31  C   UNL     1      -0.244  -9.304  -3.039  0.00  0.00    -0.018 A 
ATOM     32  C   UNL     1      -1.272  -9.137  -3.948  0.00  0.00    +0.007 A 
ATOM     33  C   UNL     1      -1.951 -10.238  -4.435  0.00  0.00    +0.020 A 
ATOM     34  C   UNL     1      -1.601 -11.508  -4.013  0.00  0.00    +0.041 A 
ATOM     35  C   UNL     1      -0.573 -11.675  -3.103  0.00  0.00    +0.020 A 
ATOM     36  C   UNL     1       0.109 -10.574  -2.621  0.00  0.00    +0.007 A 
ATOM     37 CL   UNL     1      -2.454 -12.891  -4.624  0.00  0.00    -0.084 Cl
ENDBRANCH  30  31
BRANCH  30  38
ATOM     38  O   UNL     1       0.594  -7.113  -3.534  0.00  0.00    -0.386 OA
ATOM     39  H   UNL     1      -0.260  -6.800  -3.862  0.00  0.00    +0.210 HD
ENDBRANCH  30  38
ENDBRANCH  20  30
TORSDOF 4
