REMARK  Name = ZINC43222303
REMARK  6 active torsions:
REMARK  status: ('A' for Active; 'I' for Inactive)
REMARK    1  A    between atoms: C_1  and  C_2
REMARK    2  A    between atoms: C_2  and  C_4
REMARK    3  A    between atoms: C_2  and  N_10
REMARK    4  A    between atoms: C_11  and  C_13
REMARK    5  A    between atoms: C_18  and  C_20
REMARK    6  A    between atoms: N_22  and  C_23
REMARK                            x       y       z     vdW  Elec       q    Type
REMARK                         _______ _______ _______ _____ _____    ______ ____
ROOT
ATOM      1  C   UNL     1       0.712  -1.094  -3.598  0.00  0.00    +0.068 C 
ATOM      2  C   UNL     1       1.236  -2.531  -3.389  0.00  0.00    -0.069 C 
ATOM      3  N   UNL     1       0.174  -3.403  -3.953  0.00  0.00    +0.380 N 
ATOM      4  C   UNL     1      -0.274  -2.688  -5.176  0.00  0.00    -0.069 C 
ATOM      5  C   UNL     1      -0.281  -1.195  -4.775  0.00  0.00    +0.068 C 
ATOM      6  H   UNL     1       0.550  -4.308  -4.192  0.00  0.00    -0.086 HD
ATOM      7  H   UNL     1      -0.590  -3.497  -3.300  0.00  0.00    -0.086 HD
ENDROOT
BRANCH   1   9
ATOM      8  N   UNL     1       0.688  -0.476  -1.203  0.00  0.00    -0.309 N 
ATOM      9  C   UNL     1       0.006  -0.608  -2.358  0.00  0.00    +0.215 C 
ATOM     10  O   UNL     1      -1.175  -0.336  -2.400  0.00  0.00    -0.276 OA
ATOM     11  H   UNL     1       1.632  -0.695  -1.170  0.00  0.00    +0.149 HD
BRANCH   8  13
ATOM     12  C   UNL     1      -0.019   1.526   0.010  0.00  0.00    +0.033 C 
ATOM     13  C   UNL     1       0.002  -0.004   0.002  0.00  0.00    +0.100 C 
BRANCH  13  14
ATOM     14  C   UNL     1       0.731  -0.503   1.223  0.00  0.00    -0.027 A 
ATOM     15  C   UNL     1       2.113  -0.514   1.247  0.00  0.00    +0.005 A 
ATOM     16  C   UNL     1       2.782  -0.972   2.366  0.00  0.00    +0.000 A 
ATOM     17  C   UNL     1       2.068  -1.419   3.463  0.00  0.00    +0.000 A 
ATOM     18  C   UNL     1       0.686  -1.407   3.439  0.00  0.00    +0.000 A 
ATOM     19  C   UNL     1       0.017  -0.945   2.321  0.00  0.00    +0.005 A 
ENDBRANCH  13  14
ENDBRANCH   8  13
ENDBRANCH   1   9
BRANCH   5  20
ATOM     20  C   UNL     1       0.183  -0.339  -5.926  0.00  0.00    +0.215 C 
ATOM     21  O   UNL     1       1.210   0.298  -5.832  0.00  0.00    -0.276 OA
ATOM     22  N   UNL     1      -0.544  -0.283  -7.059  0.00  0.00    -0.308 N 
ATOM     23  H   UNL     1      -1.365  -0.794  -7.135  0.00  0.00    +0.149 HD
BRANCH  22  24
ATOM     24  C   UNL     1      -0.093   0.548  -8.178  0.00  0.00    +0.103 C 
ATOM     25  C   UNL     1      -0.659  -0.011  -9.482  0.00  0.00    +0.027 C 
ATOM     26  C   UNL     1      -0.361   0.987 -10.607  0.00  0.00    +0.007 C 
ATOM     27  C   UNL     1      -1.224   2.228 -10.389  0.00  0.00    +0.035 C 
ATOM     28  C   UNL     1      -1.074   2.737  -8.980  0.00  0.00    -0.042 A 
ATOM     29  C   UNL     1      -0.559   1.964  -7.964  0.00  0.00    -0.024 A 
ATOM     30  C   UNL     1      -0.454   2.493  -6.684  0.00  0.00    +0.006 A 
ATOM     31  C   UNL     1      -0.859   3.786  -6.424  0.00  0.00    +0.000 A 
ATOM     32  C   UNL     1      -1.373   4.562  -7.445  0.00  0.00    +0.000 A 
ATOM     33  C   UNL     1      -1.478   4.040  -8.716  0.00  0.00    +0.004 A 
ENDBRANCH  22  24
ENDBRANCH   5  20
TORSDOF 5
