REMARK  Name = ZINC30977409
REMARK  13 active torsions:
REMARK  status: ('A' for Active; 'I' for Inactive)
REMARK    1  A    between atoms: C_1  and  C_2
REMARK    2  A    between atoms: C_2  and  C_4
REMARK    3  A    between atoms: C_2  and  N_12
REMARK    4  A    between atoms: C_4  and  C_5
REMARK    5  A    between atoms: C_5  and  C_6
REMARK    6  A    between atoms: C_13  and  C_15
REMARK    7  A    between atoms: N_18  and  C_21
REMARK    8  A    between atoms: C_21  and  C_22
REMARK    9  A    between atoms: C_24  and  C_27
REMARK   10  A    between atoms: C_30  and  C_33
REMARK   11  A    between atoms: C_33  and  C_34
REMARK   12  A    between atoms: C_33  and  C_35
REMARK   13  A    between atoms: C_33  and  C_36
REMARK                            x       y       z     vdW  Elec       q    Type
REMARK                         _______ _______ _______ _____ _____    ______ ____
ROOT
ATOM      1  C   UNL     1       6.162  -5.043   0.219  0.00  0.00    +0.071 C 
ATOM      2  C   UNL     1       5.139  -4.975   1.356  0.00  0.00    -0.006 C 
ATOM      3  C   UNL     1       5.001  -6.358   1.996  0.00  0.00    -0.077 C 
ATOM      4  N   UNL     1       6.306  -6.792   2.513  0.00  0.00    +0.386 N 
ATOM      5  C   UNL     1       7.293  -6.910   1.432  0.00  0.00    -0.077 C 
ATOM      6  C   UNL     1       7.498  -5.543   0.775  0.00  0.00    -0.006 C 
ATOM      7  H   UNL     1       6.663  -6.020   3.210  0.00  0.00    -0.081 HD
ENDROOT
BRANCH   1   9
ATOM      8  N   UNL     1       5.298  -3.029  -0.927  0.00  0.00    -0.312 N 
ATOM      9  C   UNL     1       6.347  -3.670  -0.375  0.00  0.00    +0.216 C 
ATOM     10  O   UNL     1       7.439  -3.143  -0.357  0.00  0.00    -0.276 OA
ATOM     11  H   UNL     1       4.307  -3.507  -0.944  0.00  0.00    +0.149 HD
BRANCH   8  13
ATOM     12  C   UNL     1       5.969  -1.826  -2.948  0.00  0.00    +0.028 C 
ATOM     13  C   UNL     1       5.477  -1.695  -1.505  0.00  0.00    +0.070 C 
BRANCH  13  14
ATOM     14  C   UNL     1       4.142  -0.948  -1.488  0.00  0.00    +0.026 C 
BRANCH  14  15
ATOM     15  C   UNL     1       3.711  -0.707  -0.039  0.00  0.00    +0.037 C 
BRANCH  15  16
ATOM     16  C   UNL     1       2.396   0.029  -0.022  0.00  0.00    -0.047 A 
ATOM     17  C   UNL     1       1.208  -0.679  -0.014  0.00  0.00    +0.003 A 
ATOM     18  C   UNL     1       0.002  -0.004   0.002  0.00  0.00    +0.000 A 
ATOM     19  C   UNL     1      -0.017   1.378   0.010  0.00  0.00    +0.000 A 
ATOM     20  C   UNL     1       1.171   2.086   0.002  0.00  0.00    +0.000 A 
ATOM     21  C   UNL     1       2.377   1.411  -0.014  0.00  0.00    +0.003 A 
ENDBRANCH  15  16
ENDBRANCH  14  15
ENDBRANCH  13  14
ENDBRANCH   8  13
ENDBRANCH   1   9
BRANCH   4  22
ATOM     22  C   UNL     1       6.185  -8.054   3.255  0.00  0.00    +0.022 C 
BRANCH  22  23
ATOM     23  C   UNL     1       5.358  -7.829   4.495  0.00  0.00    +0.211 A 
ATOM     24  N   UNL     1       4.057  -7.948   4.595  0.00  0.00    -0.193 NA
ATOM     25  C   UNL     1       3.764  -7.654   5.882  0.00  0.00    +0.202 A 
ATOM     26  N   UNL     1       4.892  -7.377   6.482  0.00  0.00    -0.056 NA
ATOM     27  O   UNL     1       5.815  -7.478   5.701  0.00  0.00    -0.340 OA
BRANCH  25  28
ATOM     28  C   UNL     1       2.413  -7.646   6.498  0.00  0.00    +0.022 A 
ATOM     29  C   UNL     1       1.293  -7.958   5.730  0.00  0.00    +0.012 A 
ATOM     30  C   UNL     1       0.040  -7.955   6.309  0.00  0.00    +0.005 A 
ATOM     31  C   UNL     1      -0.106  -7.631   7.646  0.00  0.00    -0.042 A 
ATOM     32  C   UNL     1       1.003  -7.316   8.412  0.00  0.00    +0.005 A 
ATOM     33  C   UNL     1       2.261  -7.321   7.844  0.00  0.00    +0.012 A 
BRANCH  31  34
ATOM     34  C   UNL     1      -1.477  -7.623   8.271  0.00  0.00    -0.013 C 
ATOM     35  C   UNL     1      -1.783  -6.224   8.809  0.00  0.00    +0.015 C 
ATOM     36  C   UNL     1      -2.519  -8.005   7.219  0.00  0.00    +0.015 C 
ATOM     37  C   UNL     1      -1.520  -8.632   9.421  0.00  0.00    +0.015 C 
ENDBRANCH  31  34
ENDBRANCH  25  28
ENDBRANCH  22  23
ENDBRANCH   4  22
TORSDOF 9
