REMARK  Name = ZINC06007232
REMARK  8 active torsions:
REMARK  status: ('A' for Active; 'I' for Inactive)
REMARK    1  A    between atoms: C_1  and  O_2
REMARK    2  A    between atoms: O_2  and  C_3
REMARK    3  A    between atoms: C_6  and  C_11
REMARK    4  A    between atoms: C_8  and  O_9
REMARK    5  A    between atoms: O_9  and  C_10
REMARK    6  A    between atoms: C_15  and  C_23
REMARK    7  A    between atoms: C_21  and  O_22
REMARK    8  A    between atoms: C_23  and  N_57
REMARK                            x       y       z     vdW  Elec       q    Type
REMARK                         _______ _______ _______ _____ _____    ______ ____
ROOT
ATOM      1  C   UNL     1       2.480   1.065  -0.016  0.00  0.00    +0.059 A 
ATOM      2  C   UNL     1       3.445   1.396  -0.938  0.00  0.00    +0.207 A 
ATOM      3  O   UNL     1       4.624   0.767  -0.973  0.00  0.00    -0.462 OA
ATOM      4  C   UNL     1       4.918  -0.231  -0.116  0.00  0.00    +0.143 A 
ATOM      5  C   UNL     1       6.143  -0.870  -0.178  0.00  0.00    +0.026 A 
ATOM      6  C   UNL     1       6.432  -1.902   0.719  0.00  0.00    +0.184 A 
ATOM      7  O   UNL     1       7.612  -2.520   0.661  0.00  0.00    -0.288 OA
ATOM      8  C   UNL     1       5.483  -2.293   1.684  0.00  0.00    +0.052 A 
ATOM      9  C   UNL     1       4.279  -1.671   1.753  0.00  0.00    +0.019 A 
ATOM     10  C   UNL     1       3.973  -0.631   0.856  0.00  0.00    +0.060 A 
ATOM     11  C   UNL     1       2.727   0.028   0.911  0.00  0.00    +0.138 A 
ENDROOT
BRANCH   1  15
ATOM     12  C   UNL     1      -1.239   3.136   0.031  0.00  0.00    +0.162 A 
ATOM     13  C   UNL     1      -1.217   1.749   0.017  0.00  0.00    +0.050 A 
ATOM     14  C   UNL     1      -0.013   1.076   0.008  0.00  0.00    +0.012 A 
ATOM     15  C   UNL     1       1.185   1.789   0.000  0.00  0.00    -0.008 A 
ATOM     16  C   UNL     1       1.164   3.182   0.008  0.00  0.00    +0.058 A 
ATOM     17  C   UNL     1      -0.046   3.853   0.023  0.00  0.00    +0.162 A 
BRANCH  12  19
ATOM     18  C   UNL     1      -3.614   2.997   0.052  0.00  0.00    +0.277 C 
ATOM     19  O   UNL     1      -2.428   3.796   0.045  0.00  0.00    -0.491 OA
ENDBRANCH  12  19
BRANCH  17  20
ATOM     20  O   UNL     1      -0.070   5.213   0.031  0.00  0.00    -0.491 OA
ATOM     21  C   UNL     1       1.192   5.883   0.023  0.00  0.00    +0.277 C 
ENDBRANCH  17  20
ENDBRANCH   1  15
BRANCH  11  22
ATOM     22  O   UNL     1       1.796  -0.323   1.823  0.00  0.00    -0.505 OA
ATOM     23  H   UNL     1       1.190  -1.013   1.520  0.00  0.00    +0.292 HD
ENDBRANCH  11  22
BRANCH   5  24
ATOM     24  C   UNL     1       7.161  -0.456  -1.208  0.00  0.00    -0.035 C 
BRANCH  24  31
ATOM     25  C   UNL     1       7.223   1.797  -0.301  0.00  0.00    -0.078 C 
ATOM     26  C   UNL     1       8.079   2.994   0.013  0.00  0.00    -0.019 C 
ATOM     27  C   UNL     1       8.247   3.828  -1.274  0.00  0.00    -0.002 C 
ATOM     28  C   UNL     1       9.240   3.254  -2.176  0.00  0.00    -0.002 C 
ATOM     29  C   UNL     1       8.853   1.835  -2.643  0.00  0.00    -0.019 C 
ATOM     30  C   UNL     1       9.174   0.865  -1.539  0.00  0.00    -0.078 C 
ATOM     31  N   UNL     1       8.031   0.568  -0.610  0.00  0.00    +0.383 N 
ATOM     32  H   UNL     1       8.415   0.204   0.270  0.00  0.00    -0.081 HD
ENDBRANCH  24  31
ENDBRANCH   5  24
TORSDOF 6
