REMARK  Name = ZINC39923310
REMARK  12 active torsions:
REMARK  status: ('A' for Active; 'I' for Inactive)
REMARK    1  A    between atoms: C_1  and  C_2
REMARK    2  A    between atoms: C_5  and  N_8
REMARK    3  A    between atoms: C_9  and  C_31
REMARK    4  A    between atoms: C_13  and  S_15
REMARK    5  A    between atoms: S_15  and  C_16
REMARK    6  A    between atoms: C_16  and  C_17
REMARK    7  A    between atoms: N_19  and  N_20
REMARK    8  A    between atoms: C_21  and  C_22
REMARK    9  A    between atoms: C_34  and  C_37
REMARK   10  A    between atoms: C_37  and  C_38
REMARK   11  A    between atoms: C_37  and  C_39
REMARK   12  A    between atoms: C_37  and  C_40
REMARK                            x       y       z     vdW  Elec       q    Type
REMARK                         _______ _______ _______ _____ _____    ______ ____
ROOT
ATOM      1  N   UNL     1      -0.059  -4.497  -0.130  0.00  0.00    -0.284 N 
ATOM      2  C   UNL     1       0.359  -5.201   1.100  0.00  0.00    +0.188 C 
ATOM      3  N   UNL     1      -0.116  -6.595   0.902  0.00  0.00    -0.230 NA
ATOM      4  N   UNL     1       0.117  -6.824  -0.533  0.00  0.00    -0.226 NA
ATOM      5  C   UNL     1      -0.220  -5.529  -1.168  0.00  0.00    +0.218 C 
ATOM      6  H   UNL     1      -1.096  -6.679   1.127  0.00  0.00    +0.143 HD
ATOM      7  H   UNL     1      -0.476  -7.561  -0.883  0.00  0.00    +0.143 HD
ENDROOT
BRANCH   1  12
ATOM      8  C   UNL     1      -0.903   1.079  -0.727  0.00  0.00    +0.044 C 
ATOM      9  C   UNL     1      -0.678  -0.403  -0.568  0.00  0.00    -0.050 A 
ATOM     10  C   UNL     1      -0.992  -1.263  -1.605  0.00  0.00    +0.005 A 
ATOM     11  C   UNL     1      -0.788  -2.621  -1.462  0.00  0.00    +0.023 A 
ATOM     12  C   UNL     1      -0.266  -3.123  -0.277  0.00  0.00    +0.033 A 
ATOM     13  C   UNL     1       0.048  -2.256   0.762  0.00  0.00    +0.023 A 
ATOM     14  C   UNL     1      -0.154  -0.898   0.611  0.00  0.00    +0.005 A 
ENDBRANCH   1  12
BRANCH   2  15
ATOM     15  C   UNL     1      -0.296  -4.584   2.309  0.00  0.00    -0.011 A 
ATOM     16  C   UNL     1      -1.668  -4.424   2.345  0.00  0.00    +0.007 A 
ATOM     17  C   UNL     1      -2.269  -3.859   3.454  0.00  0.00    +0.004 A 
ATOM     18  C   UNL     1      -1.497  -3.454   4.527  0.00  0.00    -0.042 A 
ATOM     19  C   UNL     1      -0.125  -3.615   4.492  0.00  0.00    +0.004 A 
ATOM     20  C   UNL     1       0.475  -4.184   3.384  0.00  0.00    +0.007 A 
BRANCH  18  21
ATOM     21  C   UNL     1      -2.152  -2.837   5.736  0.00  0.00    -0.013 C 
ATOM     22  C   UNL     1      -3.139  -3.833   6.346  0.00  0.00    +0.015 C 
ATOM     23  C   UNL     1      -1.082  -2.481   6.770  0.00  0.00    +0.015 C 
ATOM     24  C   UNL     1      -2.900  -1.568   5.319  0.00  0.00    +0.015 C 
ENDBRANCH  18  21
ENDBRANCH   2  15
BRANCH   5  25
ATOM     25  S   UNL     1       0.913  -5.205  -2.548  0.00  0.00    -0.112 S 
BRANCH  25  26
ATOM     26  C   UNL     1       2.559  -5.261  -1.787  0.00  0.00    +0.169 C 
BRANCH  26  27
ATOM     27  C   UNL     1       3.607  -5.004  -2.838  0.00  0.00    +0.242 C 
ATOM     28  O   UNL     1       3.277  -4.802  -3.988  0.00  0.00    -0.273 OA
ATOM     29  N   UNL     1       4.912  -4.998  -2.502  0.00  0.00    -0.206 N 
ATOM     30  H   UNL     1       5.176  -5.159  -1.582  0.00  0.00    +0.177 HD
BRANCH  29  31
ATOM     31  N   UNL     1       5.887  -4.758  -3.479  0.00  0.00    -0.188 NA
ATOM     32  C   UNL     1       7.157  -4.838  -3.171  0.00  0.00    +0.136 C 
BRANCH  32  33
ATOM     33  C   UNL     1       7.546  -4.969  -1.830  0.00  0.00    +0.000 C 
ATOM     34  C   UNL     1       8.844  -4.965  -1.325  0.00  0.00    +0.004 A 
ATOM     35  C   UNL     1      10.108  -4.838  -1.943  0.00  0.00    +0.010 A 
ATOM     36  C   UNL     1      11.233  -4.871  -1.186  0.00  0.00    +0.001 A 
ATOM     37  C   UNL     1      11.178  -5.027   0.202  0.00  0.00    +0.002 A 
ATOM     38  C   UNL     1      10.002  -5.155   0.862  0.00  0.00    +0.026 A 
ATOM     39  C   UNL     1       8.780  -5.131   0.138  0.00  0.00    +0.043 A 
ATOM     40  N   UNL     1       7.530  -5.233   0.535  0.00  0.00    -0.380 N 
ATOM     41  C   UNL     1       6.643  -5.138  -0.628  0.00  0.00    +0.150 C 
ATOM     42  H   UNL     1       7.241  -5.349   1.454  0.00  0.00    +0.160 HD
ENDBRANCH  32  33
ENDBRANCH  29  31
ENDBRANCH  26  27
ENDBRANCH  25  26
ENDBRANCH   5  25
TORSDOF 8
