REMARK  Name = ZINC46983332
REMARK  6 active torsions:
REMARK  status: ('A' for Active; 'I' for Inactive)
REMARK    1  A    between atoms: C_1  and  C_2
REMARK    2  A    between atoms: C_3  and  C_14
REMARK    3  A    between atoms: N_6  and  C_7
REMARK    4  A    between atoms: C_14  and  C_16
REMARK    5  A    between atoms: C_14  and  N_17
REMARK    6  A    between atoms: C_24  and  C_27
REMARK                            x       y       z     vdW  Elec       q    Type
REMARK                         _______ _______ _______ _____ _____    ______ ____
ROOT
ATOM      1  C   UNL     1      -0.013   1.504   0.008  0.00  0.00    +0.066 C 
ATOM      2  C   UNL     1       0.006  -0.003   0.001  0.00  0.00    +0.047 A 
ATOM      3  C   UNL     1       0.011  -0.796  -1.096  0.00  0.00    +0.013 A 
ATOM      4  C   UNL     1       0.031  -2.127  -0.666  0.00  0.00    +0.140 A 
ATOM      5  N   UNL     1       0.038  -2.134   0.643  0.00  0.00    -0.174 NA
ATOM      6  N   UNL     1       0.028  -0.806   1.088  0.00  0.00    -0.237 N 
ENDROOT
BRANCH   6   7
ATOM      7  C   UNL     1       0.038  -0.384   2.426  0.00  0.00    +0.066 A 
ATOM      8  C   UNL     1       0.712   0.776   2.784  0.00  0.00    +0.030 A 
ATOM      9  C   UNL     1       0.720   1.190   4.101  0.00  0.00    +0.040 A 
ATOM     10  C   UNL     1       0.056   0.449   5.065  0.00  0.00    +0.124 A 
ATOM     11  C   UNL     1      -0.617  -0.708   4.710  0.00  0.00    +0.040 A 
ATOM     12  C   UNL     1      -0.632  -1.122   3.392  0.00  0.00    +0.030 A 
ATOM     13  F   UNL     1       0.066   0.855   6.354  0.00  0.00    -0.205 F 
ENDBRANCH   6   7
BRANCH   3  14
ATOM     14  C   UNL     1      -0.004  -0.327  -2.529  0.00  0.00    +0.105 C 
ATOM     15  C   UNL     1       1.427  -0.030  -2.982  0.00  0.00    +0.033 C 
BRANCH  14  16
ATOM     16  N   UNL     1      -0.578  -1.373  -3.378  0.00  0.00    -0.293 N 
ATOM     17  C   UNL     1      -1.156  -1.046  -4.551  0.00  0.00    +0.303 C 
ATOM     18  O   UNL     1      -1.283   0.123  -4.862  0.00  0.00    -0.253 OA
ATOM     19  N   UNL     1      -1.593  -2.015  -5.381  0.00  0.00    -0.285 N 
ATOM     20  C   UNL     1      -2.118  -1.680  -6.711  0.00  0.00    +0.109 C 
ATOM     21  C   UNL     1      -1.363  -2.503  -7.761  0.00  0.00    +0.019 C 
ATOM     22  C   UNL     1      -1.457  -3.988  -7.403  0.00  0.00    +0.006 C 
ATOM     23  C   UNL     1      -0.804  -4.228  -6.040  0.00  0.00    +0.003 C 
ATOM     24  C   UNL     1      -1.547  -3.426  -4.973  0.00  0.00    +0.112 C 
ATOM     25  C   UNL     1      -0.868  -5.718  -5.698  0.00  0.00    +0.009 C 
ATOM     26  H   UNL     1      -0.543  -2.301  -3.097  0.00  0.00    +0.151 HD
ENDBRANCH  14  16
ENDBRANCH   3  14
TORSDOF 3
