REMARK  Name = ZINC60017330
REMARK  13 active torsions:
REMARK  status: ('A' for Active; 'I' for Inactive)
REMARK    1  A    between atoms: C_1  and  C_2
REMARK    2  A    between atoms: C_5  and  C_35
REMARK    3  A    between atoms: N_8  and  C_10
REMARK    4  A    between atoms: C_10  and  C_11
REMARK    5  A    between atoms: C_10  and  C_12
REMARK    6  A    between atoms: C_10  and  C_13
REMARK    7  A    between atoms: C_13  and  N_14
REMARK    8  A    between atoms: C_15  and  C_17
REMARK    9  A    between atoms: C_18  and  C_19
REMARK   10  A    between atoms: C_22  and  S_25
REMARK   11  A    between atoms: S_25  and  N_28
REMARK   12  A    between atoms: N_28  and  C_29
REMARK   13  A    between atoms: C_29  and  C_30
REMARK                            x       y       z     vdW  Elec       q    Type
REMARK                         _______ _______ _______ _____ _____    ______ ____
ROOT
ATOM      1  C   UNL     1       3.766   1.861   2.163  0.00  0.00    +0.068 C 
ATOM      2  C   UNL     1       4.848   2.636   1.948  0.00  0.00    +0.013 C 
ENDROOT
BRANCH   2   3
ATOM      3  C   UNL     1       4.730   4.101   2.021  0.00  0.00    -0.025 A 
ATOM      4  C   UNL     1       3.498   4.694   2.318  0.00  0.00    +0.010 A 
ATOM      5  C   UNL     1       3.396   6.067   2.385  0.00  0.00    +0.029 A 
ATOM      6  C   UNL     1       4.508   6.859   2.158  0.00  0.00    +0.105 A 
ATOM      7  C   UNL     1       5.730   6.281   1.863  0.00  0.00    +0.029 A 
ATOM      8  C   UNL     1       5.850   4.909   1.799  0.00  0.00    +0.010 A 
BRANCH   6   9
ATOM      9  S   UNL     1       4.367   8.613   2.245  0.00  0.00    +0.059 S 
ATOM     10  O   UNL     1       5.424   9.145   1.457  0.00  0.00    -0.153 OA
ATOM     11  O   UNL     1       3.002   8.924   1.998  0.00  0.00    -0.153 OA
BRANCH   9  12
ATOM     12  N   UNL     1       4.677   9.053   3.811  0.00  0.00    -0.183 NA
ATOM     13  H   UNL     1       3.977   9.454   4.349  0.00  0.00    +0.148 HD
BRANCH  12  14
ATOM     14  C   UNL     1       6.008   8.835   4.384  0.00  0.00    +0.180 C 
BRANCH  14  15
ATOM     15  C   UNL     1       6.144   9.632   5.655  0.00  0.00    +0.120 A 
ATOM     16  C   UNL     1       5.836   9.200   6.891  0.00  0.00    +0.046 A 
ATOM     17  C   UNL     1       6.117  10.265   7.779  0.00  0.00    +0.041 A 
ATOM     18  C   UNL     1       6.580  11.283   7.031  0.00  0.00    +0.195 A 
ATOM     19  O   UNL     1       6.600  10.892   5.747  0.00  0.00    -0.466 OA
ENDBRANCH  14  15
ENDBRANCH  12  14
ENDBRANCH   9  12
ENDBRANCH   6   9
ENDBRANCH   2   3
BRANCH   1  21
ATOM     20  N   UNL     1       2.801  -0.371   2.305  0.00  0.00    -0.313 N 
ATOM     21  C   UNL     1       3.883   0.403   2.090  0.00  0.00    +0.237 C 
ATOM     22  O   UNL     1       4.957  -0.109   1.836  0.00  0.00    -0.271 OA
ATOM     23  H   UNL     1       1.945   0.037   2.508  0.00  0.00    +0.149 HD
BRANCH  20  24
ATOM     24  C   UNL     1       2.918  -1.830   2.232  0.00  0.00    +0.092 C 
BRANCH  24  25
ATOM     25  C   UNL     1       1.589  -2.469   2.639  0.00  0.00    -0.055 C 
ATOM     26  C   UNL     1       1.737  -3.992   2.646  0.00  0.00    -0.008 C 
ATOM     27  C   UNL     1       0.503  -2.067   1.639  0.00  0.00    -0.008 C 
BRANCH  25  33
ATOM     28  C   UNL     1       3.028  -2.192   7.310  0.00  0.00    +0.005 C 
ATOM     29  C   UNL     1       1.924  -1.815   6.319  0.00  0.00    -0.031 C 
ATOM     30  C   UNL     1       0.594  -2.417   6.782  0.00  0.00    +0.003 C 
ATOM     31  C   UNL     1      -0.486  -2.100   5.744  0.00  0.00    -0.031 C 
ATOM     32  C   UNL     1      -0.049  -2.639   4.380  0.00  0.00    -0.075 C 
ATOM     33  N   UNL     1       1.214  -2.007   3.982  0.00  0.00    +0.384 N 
ATOM     34  C   UNL     1       2.273  -2.364   4.934  0.00  0.00    -0.075 C 
ATOM     35  C   UNL     1      -1.802  -2.762   6.159  0.00  0.00    +0.005 C 
ATOM     36  H   UNL     1       1.098  -1.005   3.970  0.00  0.00    -0.081 HD
ENDBRANCH  25  33
ENDBRANCH  24  25
ENDBRANCH  20  24
ENDBRANCH   1  21
TORSDOF 9
