REMARK  Name = ZINC41006347
REMARK  13 active torsions:
REMARK  status: ('A' for Active; 'I' for Inactive)
REMARK    1  A    between atoms: C_1  and  C_2
REMARK    2  A    between atoms: C_5  and  N_9
REMARK    3  A    between atoms: C_6  and  C_8
REMARK    4  A    between atoms: C_10  and  C_12
REMARK    5  A    between atoms: C_14  and  C_35
REMARK    6  A    between atoms: C_16  and  C_24
REMARK    7  A    between atoms: C_18  and  C_22
REMARK    8  A    between atoms: C_18  and  O_23
REMARK    9  A    between atoms: N_26  and  C_27
REMARK   10  A    between atoms: C_30  and  C_34
REMARK   11  A    between atoms: C_32  and  C_33
REMARK   12  A    between atoms: C_38  and  O_41
REMARK   13  A    between atoms: O_41  and  C_42
REMARK                            x       y       z     vdW  Elec       q    Type
REMARK                         _______ _______ _______ _____ _____    ______ ____
ROOT
ATOM      1  C   UNL     1      -0.439  -5.789  -1.173  0.00  0.00    +0.149 C 
ATOM      2  C   UNL     1      -0.279  -6.045  -2.676  0.00  0.00    +0.053 C 
ATOM      3  C   UNL     1       1.194  -5.907  -3.062  0.00  0.00    +0.115 C 
ATOM      4  C   UNL     1       2.019  -6.981  -2.351  0.00  0.00    +0.082 C 
ATOM      5  C   UNL     1       1.947  -6.760  -0.836  0.00  0.00    +0.110 C 
ATOM      6  C   UNL     1       0.488  -6.719  -0.422  0.00  0.00    +0.148 C 
ATOM      7  O   UNL     1       0.076  -7.409   0.479  0.00  0.00    -0.296 OA
ATOM      8  C   UNL     1       1.459  -8.364  -2.692  0.00  0.00    +0.042 C 
ENDROOT
BRANCH   2   9
ATOM      9  C   UNL     1      -1.097  -5.041  -3.446  0.00  0.00    -0.042 A 
ATOM     10  C   UNL     1      -2.455  -5.240  -3.614  0.00  0.00    +0.007 A 
ATOM     11  C   UNL     1      -3.207  -4.321  -4.321  0.00  0.00    +0.046 A 
ATOM     12  C   UNL     1      -2.598  -3.198  -4.862  0.00  0.00    +0.120 A 
ATOM     13  C   UNL     1      -1.236  -3.001  -4.692  0.00  0.00    +0.046 A 
ATOM     14  C   UNL     1      -0.489  -3.920  -3.980  0.00  0.00    +0.007 A 
BRANCH  12  15
ATOM     15  O   UNL     1      -3.336  -2.293  -5.557  0.00  0.00    -0.495 OA
ATOM     16  C   UNL     1      -2.643  -1.161  -6.086  0.00  0.00    +0.277 C 
ENDBRANCH  12  15
ENDBRANCH   2   9
BRANCH   1  18
ATOM     17  N   UNL     1      -0.758  -3.685   0.088  0.00  0.00    -0.285 N 
ATOM     18  C   UNL     1      -0.081  -4.358  -0.863  0.00  0.00    +0.228 C 
ATOM     19  O   UNL     1       0.817  -3.812  -1.470  0.00  0.00    -0.275 OA
ATOM     20  H   UNL     1      -1.437  -4.138   0.612  0.00  0.00    +0.155 HD
BRANCH  17  25
ATOM     21  C   UNL     1       0.358   1.798   1.021  0.00  0.00    +0.044 C 
ATOM     22  C   UNL     1       0.061   0.342   0.773  0.00  0.00    -0.050 A 
ATOM     23  C   UNL     1       1.015  -0.465   0.179  0.00  0.00    +0.005 A 
ATOM     24  C   UNL     1       0.747  -1.800  -0.049  0.00  0.00    +0.024 A 
ATOM     25  C   UNL     1      -0.483  -2.333   0.318  0.00  0.00    +0.036 A 
ATOM     26  C   UNL     1      -1.438  -1.520   0.914  0.00  0.00    -0.029 A 
ATOM     27  C   UNL     1      -1.161  -0.186   1.144  0.00  0.00    +0.008 A 
ATOM     28  C   UNL     1      -2.773  -2.093   1.314  0.00  0.00    +0.045 C 
ENDBRANCH  17  25
ENDBRANCH   1  18
BRANCH   3  29
ATOM     29  C   UNL     1       1.339  -6.071  -4.553  0.00  0.00    +0.224 C 
ATOM     30  O   UNL     1       0.360  -6.277  -5.238  0.00  0.00    -0.275 OA
ATOM     31  N   UNL     1       2.557  -5.987  -5.124  0.00  0.00    -0.285 N 
ATOM     32  H   UNL     1       3.347  -5.890  -4.571  0.00  0.00    +0.155 HD
BRANCH  31  33
ATOM     33  C   UNL     1       2.681  -6.041  -6.517  0.00  0.00    +0.036 A 
ATOM     34  C   UNL     1       1.953  -6.973  -7.245  0.00  0.00    +0.024 A 
ATOM     35  C   UNL     1       2.077  -7.023  -8.620  0.00  0.00    +0.005 A 
ATOM     36  C   UNL     1       2.927  -6.147  -9.271  0.00  0.00    -0.050 A 
ATOM     37  C   UNL     1       3.653  -5.218  -8.549  0.00  0.00    +0.008 A 
ATOM     38  C   UNL     1       3.528  -5.159  -7.175  0.00  0.00    -0.029 A 
ATOM     39  C   UNL     1       4.315  -4.141  -6.389  0.00  0.00    +0.045 C 
ATOM     40  C   UNL     1       3.061  -6.205 -10.771  0.00  0.00    +0.044 C 
ENDBRANCH  31  33
ENDBRANCH   3  29
BRANCH   4  41
ATOM     41  O   UNL     1       3.380  -6.899  -2.780  0.00  0.00    -0.388 OA
ATOM     42  H   UNL     1       3.962  -7.552  -2.369  0.00  0.00    +0.210 HD
ENDBRANCH   4  41
TORSDOF 7
