REMARK  Name = ZINC59310276
REMARK  7 active torsions:
REMARK  status: ('A' for Active; 'I' for Inactive)
REMARK    1  A    between atoms: C_1  and  C_2
REMARK    2  A    between atoms: C_3  and  N_9
REMARK    3  A    between atoms: C_10  and  C_12
REMARK    4  A    between atoms: C_12  and  S_13
REMARK    5  A    between atoms: S_13  and  C_14
REMARK    6  A    between atoms: N_19  and  N_20
REMARK    7  A    between atoms: C_21  and  C_22
REMARK                            x       y       z     vdW  Elec       q    Type
REMARK                         _______ _______ _______ _____ _____    ______ ____
ROOT
ATOM      1  C   UNL     1       0.478  -0.022  -7.678  0.00  0.00    +0.211 A 
ATOM      2  N   UNL     1       0.572  -0.448  -8.942  0.00  0.00    -0.186 NA
ATOM      3  C   UNL     1       0.611   0.587  -9.755  0.00  0.00    +0.232 A 
ATOM      4  N   UNL     1       0.542   1.708  -9.007  0.00  0.00    -0.245 N 
ATOM      5  N   UNL     1       0.452   1.289  -7.670  0.00  0.00    -0.144 NA
ATOM      6  N   UNL     1       0.708   0.534 -11.134  0.00  0.00    -0.205 N 
ATOM      7  H   UNL     1       0.731   1.354 -11.651  0.00  0.00    +0.177 HD
ATOM      8  H   UNL     1       0.551   2.623  -9.330  0.00  0.00    +0.192 HD
ENDROOT
BRANCH   6   9
ATOM      9  N   UNL     1       0.772  -0.705 -11.785  0.00  0.00    -0.188 NA
ATOM     10  C   UNL     1       0.861  -0.754 -13.061  0.00  0.00    +0.139 C 
BRANCH  10  11
ATOM     11  C   UNL     1       0.929  -2.057 -13.745  0.00  0.00    +0.002 A 
ATOM     12  C   UNL     1       1.157  -2.117 -15.200  0.00  0.00    +0.010 A 
ATOM     13  C   UNL     1       1.220  -3.276 -15.822  0.00  0.00    +0.009 A 
ATOM     14  C   UNL     1       1.060  -4.524 -15.056  0.00  0.00    -0.017 A 
ATOM     15  C   UNL     1       1.126  -5.837 -15.721  0.00  0.00    +0.009 A 
ATOM     16  C   UNL     1       0.981  -6.943 -15.018  0.00  0.00    +0.009 A 
ATOM     17  C   UNL     1       0.754  -6.870 -13.565  0.00  0.00    -0.017 A 
ATOM     18  C   UNL     1       0.590  -8.092 -12.759  0.00  0.00    +0.008 A 
ATOM     19  C   UNL     1       0.388  -7.997 -11.461  0.00  0.00    +0.001 A 
ATOM     20  C   UNL     1       0.324  -6.677 -10.808  0.00  0.00    +0.008 A 
ATOM     21  C   UNL     1       0.470  -5.584 -11.524  0.00  0.00    -0.017 A 
ATOM     22  C   UNL     1       0.696  -5.699 -12.976  0.00  0.00    -0.002 A 
ATOM     23  C   UNL     1       0.858  -4.464 -13.761  0.00  0.00    -0.002 A 
ATOM     24  C   UNL     1       0.791  -3.170 -13.058  0.00  0.00    -0.008 A 
ATOM     25  C   UNL     1       0.567  -3.150 -11.605  0.00  0.00    +0.010 A 
ATOM     26  C   UNL     1       0.413  -4.250 -10.906  0.00  0.00    +0.009 A 
ENDBRANCH  10  11
ENDBRANCH   6   9
BRANCH   1  27
ATOM     27  S   UNL     1       0.395  -1.056  -6.253  0.00  0.00    -0.075 S 
BRANCH  27  28
ATOM     28  C   UNL     1       0.274   0.112  -4.870  0.00  0.00    +0.173 C 
BRANCH  28  30
ATOM     29  N   UNL     1       0.098   0.013  -2.405  0.00  0.00    -0.284 N 
ATOM     30  C   UNL     1       0.195  -0.652  -3.573  0.00  0.00    +0.227 C 
ATOM     31  O   UNL     1       0.218  -1.865  -3.581  0.00  0.00    -0.275 OA
ATOM     32  H   UNL     1      -0.002   0.977  -2.402  0.00  0.00    +0.155 HD
BRANCH  29  35
ATOM     33  C   UNL     1      -1.137   1.185  -0.125  0.00  0.00    +0.048 C 
ATOM     34  C   UNL     1      -0.448  -0.154  -0.058  0.00  0.00    +0.006 A 
ATOM     35  C   UNL     1       0.142  -0.689  -1.195  0.00  0.00    +0.039 A 
ATOM     36  C   UNL     1       0.777  -1.923  -1.130  0.00  0.00    +0.024 A 
ATOM     37  C   UNL     1       0.819  -2.615   0.065  0.00  0.00    +0.005 A 
ATOM     38  C   UNL     1       0.231  -2.081   1.197  0.00  0.00    +0.039 A 
ATOM     39  C   UNL     1      -0.398  -0.848   1.137  0.00  0.00    +0.128 A 
ATOM     40  F   UNL     1      -0.967  -0.326   2.246  0.00  0.00    -0.205 F 
ENDBRANCH  29  35
ENDBRANCH  28  30
ENDBRANCH  27  28
ENDBRANCH   1  27
TORSDOF 6
