REMARK  Name = ZINC11981356
REMARK  5 active torsions:
REMARK  status: ('A' for Active; 'I' for Inactive)
REMARK    1  A    between atoms: C_4  and  C_7
REMARK    2  A    between atoms: C_7  and  C_8
REMARK    3  A    between atoms: C_8  and  C_15
REMARK    4  A    between atoms: C_20  and  C_21
REMARK    5  A    between atoms: C_20  and  N_56
REMARK                            x       y       z     vdW  Elec       q    Type
REMARK                         _______ _______ _______ _____ _____    ______ ____
ROOT
ATOM      1  C   UNL     1      -3.558   6.702  -3.639  0.00  0.00    +0.018 C 
ATOM      2  C   UNL     1      -3.892   5.485  -2.772  0.00  0.00    -0.013 C 
ATOM      3  C   UNL     1      -3.429   5.745  -1.337  0.00  0.00    -0.078 C 
ATOM      4  C   UNL     1      -1.642   7.186  -2.113  0.00  0.00    -0.078 C 
ATOM      5  C   UNL     1      -2.051   6.969  -3.572  0.00  0.00    -0.013 C 
ATOM      6  N   UNL     1      -1.968   5.971  -1.337  0.00  0.00    +0.383 N 
ATOM      7  H   UNL     1      -1.507   5.163  -1.774  0.00  0.00    -0.081 HD
ENDROOT
BRANCH   1   8
ATOM      8  C   UNL     1      -3.964   6.425  -5.088  0.00  0.00    +0.119 C 
ATOM      9  C   UNL     1      -5.439   6.082  -5.172  0.00  0.00    +0.244 C 
ATOM     10  O   UNL     1      -6.373   6.789  -4.861  0.00  0.00    -0.273 OA
ATOM     11  N   UNL     1      -5.494   4.829  -5.664  0.00  0.00    -0.238 N 
ATOM     12  C   UNL     1      -4.272   4.337  -5.901  0.00  0.00    +0.307 C 
ATOM     13  O   UNL     1      -4.066   3.225  -6.347  0.00  0.00    -0.252 OA
ATOM     14  N   UNL     1      -3.295   5.213  -5.592  0.00  0.00    -0.284 N 
ATOM     15  H   UNL     1      -6.318   4.343  -5.827  0.00  0.00    +0.159 HD
ATOM     16  H   UNL     1      -2.339   5.074  -5.682  0.00  0.00    +0.151 HD
BRANCH   8  17
ATOM     17  C   UNL     1      -3.640   7.628  -5.976  0.00  0.00    +0.070 C 
BRANCH  17  21
ATOM     18  C   UNL     1      -4.801   6.782  -9.999  0.00  0.00    +0.000 A 
ATOM     19  C   UNL     1      -5.700   7.372  -9.130  0.00  0.00    +0.000 A 
ATOM     20  C   UNL     1      -5.324   7.646  -7.828  0.00  0.00    +0.004 A 
ATOM     21  C   UNL     1      -4.050   7.329  -7.396  0.00  0.00    -0.045 A 
ATOM     22  C   UNL     1      -3.150   6.743  -8.266  0.00  0.00    +0.004 A 
ATOM     23  C   UNL     1      -3.527   6.466  -9.567  0.00  0.00    +0.000 A 
ENDBRANCH  17  21
ENDBRANCH   8  17
ENDBRANCH   1   8
BRANCH   6  24
ATOM     24  C   UNL     1      -1.478   6.111   0.050  0.00  0.00    -0.024 C 
BRANCH  24  25
ATOM     25  C   UNL     1       0.028   6.119   0.034  0.00  0.00    +0.009 A 
ATOM     26  C   UNL     1       0.813   7.215   0.032  0.00  0.00    +0.021 A 
ATOM     27  C   UNL     1       2.153   6.777   0.016  0.00  0.00    +0.020 A 
ATOM     28  C   UNL     1       2.139   5.429   0.015  0.00  0.00    +0.093 A 
ATOM     29  N   UNL     1       0.836   5.016   0.020  0.00  0.00    -0.301 N 
ATOM     30  C   UNL     1       0.403   3.692   0.018  0.00  0.00    +0.177 A 
ATOM     31  N   UNL     1      -0.830   3.223   0.027  0.00  0.00    -0.231 NA
ATOM     32  C   UNL     1      -1.068   1.927   0.017  0.00  0.00    +0.121 A 
ATOM     33  C   UNL     1      -0.013   1.076   0.008  0.00  0.00    +0.068 A 
ATOM     34  S   UNL     1       1.347   2.235   0.001  0.00  0.00    -0.058 S 
ENDBRANCH  24  25
ENDBRANCH   6  24
TORSDOF 5
