REMARK  Name = ZINC17720623
REMARK  9 active torsions:
REMARK  status: ('A' for Active; 'I' for Inactive)
REMARK    1  A    between atoms: C_1  and  O_2
REMARK    2  A    between atoms: O_2  and  C_3
REMARK    3  A    between atoms: C_5  and  C_19
REMARK    4  A    between atoms: C_8  and  O_9
REMARK    5  A    between atoms: O_9  and  C_10
REMARK    6  A    between atoms: C_10  and  C_11
REMARK    7  A    between atoms: C_19  and  N_20
REMARK    8  A    between atoms: N_20  and  C_21
REMARK    9  A    between atoms: C_30  and  O_33
REMARK                            x       y       z     vdW  Elec       q    Type
REMARK                         _______ _______ _______ _____ _____    ______ ____
ROOT
ATOM      1  C   UNL     1       0.606  -0.608  -1.056  0.00  0.00    +0.162 A 
ATOM      2  C   UNL     1       1.173   0.159  -2.062  0.00  0.00    +0.051 A 
ATOM      3  C   UNL     1       1.787  -0.456  -3.137  0.00  0.00    -0.061 A 
ATOM      4  C   UNL     1       1.837  -1.836  -3.212  0.00  0.00    +0.005 A 
ATOM      5  C   UNL     1       1.273  -2.606  -2.212  0.00  0.00    +0.049 A 
ATOM      6  C   UNL     1       0.662  -1.996  -1.129  0.00  0.00    +0.162 A 
ENDROOT
BRANCH   1   8
ATOM      7  C   UNL     1      -0.017   1.425   0.010  0.00  0.00    +0.277 C 
ATOM      8  O   UNL     1       0.002  -0.004   0.002  0.00  0.00    -0.491 OA
ENDBRANCH   1   8
BRANCH   6   9
ATOM      9  O   UNL     1       0.112  -2.753  -0.142  0.00  0.00    -0.484 OA
BRANCH   9  10
ATOM     10  C   UNL     1       0.206  -4.171  -0.283  0.00  0.00    +0.269 C 
BRANCH  10  11
ATOM     11  C   UNL     1      -0.453  -4.838   0.897  0.00  0.00    +0.043 A 
ATOM     12  C   UNL     1       0.286  -5.129   2.031  0.00  0.00    +0.131 A 
ATOM     13  C   UNL     1      -0.320  -5.742   3.114  0.00  0.00    +0.039 A 
ATOM     14  C   UNL     1      -1.664  -6.064   3.062  0.00  0.00    +0.004 A 
ATOM     15  C   UNL     1      -2.402  -5.773   1.931  0.00  0.00    +0.020 A 
ATOM     16  C   UNL     1      -1.798  -5.156   0.849  0.00  0.00    +0.050 A 
ATOM     17 CL   UNL     1      -2.728  -4.785  -0.569  0.00  0.00    -0.083 Cl
ATOM     18  F   UNL     1       1.600  -4.815   2.080  0.00  0.00    -0.205 F 
ENDBRANCH  10  11
ENDBRANCH   9  10
ENDBRANCH   6   9
BRANCH   3  19
ATOM     19  C   UNL     1       2.403   0.379  -4.230  0.00  0.00    -0.046 C 
BRANCH  19  20
ATOM     20  N   UNL     1       3.807   0.658  -3.901  0.00  0.00    +0.386 N 
ATOM     21  H   UNL     1       3.855   1.159  -3.027  0.00  0.00    -0.085 HD
ATOM     22  H   UNL     1       4.312  -0.212  -3.818  0.00  0.00    -0.085 HD
BRANCH  20  23
ATOM     23  C   UNL     1       4.407   1.472  -4.966  0.00  0.00    -0.065 C 
ATOM     24  C   UNL     1       4.335   0.711  -6.292  0.00  0.00    -0.009 C 
ATOM     25  C   UNL     1       4.960   1.559  -7.401  0.00  0.00    -0.009 C 
ATOM     26  C   UNL     1       4.195   2.878  -7.528  0.00  0.00    +0.007 C 
ATOM     27  C   UNL     1       4.267   3.639  -6.203  0.00  0.00    -0.009 C 
ATOM     28  C   UNL     1       3.642   2.791  -5.093  0.00  0.00    -0.009 C 
ATOM     29  C   UNL     1       5.730   3.929  -5.860  0.00  0.00    +0.038 C 
ATOM     30  C   UNL     1       6.495   2.610  -5.733  0.00  0.00    +0.065 C 
ATOM     31  C   UNL     1       6.423   1.849  -7.059  0.00  0.00    +0.038 C 
ATOM     32  C   UNL     1       5.870   1.762  -4.624  0.00  0.00    +0.022 C 
BRANCH  30  33
ATOM     33  O   UNL     1       7.861   2.881  -5.413  0.00  0.00    -0.389 OA
ATOM     34  H   UNL     1       8.322   3.415  -6.075  0.00  0.00    +0.210 HD
ENDBRANCH  30  33
ENDBRANCH  20  23
ENDBRANCH  19  20
ENDBRANCH   3  19
TORSDOF 8
