REMARK  Name = ZINC38666848
REMARK  10 active torsions:
REMARK  status: ('A' for Active; 'I' for Inactive)
REMARK    1  A    between atoms: C_1  and  N_2
REMARK    2  A    between atoms: N_2  and  C_3
REMARK    3  A    between atoms: N_2  and  C_4
REMARK    4  A    between atoms: C_7  and  C_10
REMARK    5  A    between atoms: C_10  and  C_12
REMARK    6  A    between atoms: C_10  and  N_27
REMARK    7  A    between atoms: C_12  and  N_13
REMARK    8  A    between atoms: C_14  and  C_16
REMARK    9  A    between atoms: C_22  and  O_25
REMARK   10  A    between atoms: O_25  and  C_26
REMARK                            x       y       z     vdW  Elec       q    Type
REMARK                         _______ _______ _______ _____ _____    ______ ____
ROOT
ATOM      1  C   UNL     1      -0.044  -2.620  -4.754  0.00  0.00    -0.020 C 
ENDROOT
BRANCH   1   2
ATOM      2  N   UNL     1       0.808  -1.796  -5.622  0.00  0.00    +0.388 N 
ATOM      3  C   UNL     1       0.958  -2.451  -6.930  0.00  0.00    -0.073 C 
ATOM      4  C   UNL     1       1.579  -1.452  -7.907  0.00  0.00    +0.017 C 
ATOM      5  C   UNL     1       2.818  -0.846  -7.298  0.00  0.00    -0.048 A 
ATOM      6  C   UNL     1       3.714  -0.190  -8.128  0.00  0.00    +0.004 A 
ATOM      7  C   UNL     1       4.858   0.379  -7.606  0.00  0.00    +0.000 A 
ATOM      8  C   UNL     1       5.111   0.294  -6.249  0.00  0.00    +0.000 A 
ATOM      9  C   UNL     1       4.220  -0.360  -5.423  0.00  0.00    +0.002 A 
ATOM     10  C   UNL     1       3.071  -0.934  -5.946  0.00  0.00    -0.061 A 
ATOM     11  C   UNL     1       2.131  -1.646  -5.009  0.00  0.00    -0.042 C 
ATOM     12  H   UNL     1       0.387  -0.887  -5.743  0.00  0.00    -0.080 HD
ENDBRANCH   1   2
BRANCH   1  16
ATOM     13  C   UNL     1      -0.165  -0.913  -0.838  0.00  0.00    +0.029 A 
ATOM     14  C   UNL     1      -0.088  -2.292  -0.995  0.00  0.00    +0.023 A 
ATOM     15  C   UNL     1      -0.050  -2.840  -2.261  0.00  0.00    +0.004 A 
ATOM     16  C   UNL     1      -0.087  -2.018  -3.373  0.00  0.00    -0.059 A 
ATOM     17  C   UNL     1      -0.163  -0.646  -3.221  0.00  0.00    +0.004 A 
ATOM     18  C   UNL     1      -0.207  -0.092  -1.957  0.00  0.00    +0.023 A 
BRANCH  13  20
ATOM     19  C   UNL     1      -0.290   1.098   0.605  0.00  0.00    +0.129 C 
ATOM     20  N   UNL     1      -0.204  -0.355   0.442  0.00  0.00    -0.336 N 
ATOM     21  C   UNL     1      -0.158  -1.224   1.621  0.00  0.00    +0.129 C 
ENDBRANCH  13  20
ENDBRANCH   1  16
BRANCH   1  22
ATOM     22  C   UNL     1      -1.460  -2.672  -5.332  0.00  0.00    +0.094 C 
BRANCH  22  23
ATOM     23  N   UNL     1      -2.289  -3.562  -4.514  0.00  0.00    -0.310 N 
ATOM     24  C   UNL     1      -3.607  -3.680  -4.771  0.00  0.00    +0.279 C 
ATOM     25  O   UNL     1      -4.108  -3.049  -5.682  0.00  0.00    -0.267 OA
ATOM     26  H   UNL     1      -1.889  -4.065  -3.788  0.00  0.00    +0.149 HD
BRANCH  24  27
ATOM     27  C   UNL     1      -4.438  -4.573  -3.951  0.00  0.00    +0.191 A 
ATOM     28  C   UNL     1      -5.770  -4.775  -4.120  0.00  0.00    +0.063 A 
ATOM     29  C   UNL     1      -6.169  -5.731  -3.088  0.00  0.00    +0.025 A 
ATOM     30  C   UNL     1      -7.380  -6.335  -2.735  0.00  0.00    +0.012 A 
ATOM     31  C   UNL     1      -7.423  -7.211  -1.688  0.00  0.00    +0.004 A 
ATOM     32  C   UNL     1      -6.272  -7.508  -0.972  0.00  0.00    +0.049 A 
ATOM     33  C   UNL     1      -5.064  -6.924  -1.303  0.00  0.00    +0.163 A 
ATOM     34  C   UNL     1      -4.998  -6.026  -2.368  0.00  0.00    +0.177 A 
ATOM     35  O   UNL     1      -3.992  -5.319  -2.919  0.00  0.00    -0.447 OA
BRANCH  33  36
ATOM     36  O   UNL     1      -3.944  -7.223  -0.593  0.00  0.00    -0.491 OA
ATOM     37  C   UNL     1      -4.087  -8.151   0.485  0.00  0.00    +0.277 C 
ENDBRANCH  33  36
ENDBRANCH  24  27
ENDBRANCH  22  23
ENDBRANCH   1  22
TORSDOF 7
