REMARK  Name = ZINC04084462
REMARK  16 active torsions:
REMARK  status: ('A' for Active; 'I' for Inactive)
REMARK    1  A    between atoms: C_1  and  C_2
REMARK    2  A    between atoms: C_2  and  C_4
REMARK    3  A    between atoms: C_2  and  C_5
REMARK    4  A    between atoms: C_5  and  C_7
REMARK    5  A    between atoms: C_5  and  N_27
REMARK    6  A    between atoms: N_9  and  C_10
REMARK    7  A    between atoms: C_10  and  C_11
REMARK    8  A    between atoms: C_15  and  C_19
REMARK    9  A    between atoms: N_21  and  CA_22
REMARK   10  A    between atoms: CA_22  and  CB_24
REMARK   11  A    between atoms: CA_22  and  C_25
REMARK   12  A    between atoms: C_28  and  O_30
REMARK   13  A    between atoms: O_30  and  C_31
REMARK   14  A    between atoms: C_31  and  C_32
REMARK   15  A    between atoms: C_31  and  C_33
REMARK   16  A    between atoms: C_31  and  C_34
REMARK                            x       y       z     vdW  Elec       q    Type
REMARK                         _______ _______ _______ _____ _____    ______ ____
ROOT
ATOM      1  C   UNK A   0      -1.134   3.550   4.947  0.00  0.00    +0.234 C 
ATOM      2  O   UNK A   0      -2.172   4.165   5.074  0.00  0.00    -0.274 OA
ATOM      3  N   UNK A   0      -0.693   3.219   3.718  0.00  0.00    -0.314 N 
ATOM      4  H   UNK A   0       0.137   2.727   3.617  0.00  0.00    +0.149 HD
ENDROOT
BRANCH   1   5
ATOM      5  C   UNK A   0      -0.339   3.155   6.165  0.00  0.00    +0.165 C 
BRANCH   5   6
ATOM      6  N   UNK A   0      -1.025   3.627   7.370  0.00  0.00    -0.270 N 
ATOM      7  C   UNK A   0      -0.324   3.856   8.499  0.00  0.00    +0.401 C 
ATOM      8  O   UNK A   0       0.877   3.669   8.517  0.00  0.00    -0.226 OA
ATOM      9  H   UNK A   0      -1.983   3.776   7.356  0.00  0.00    +0.153 HD
BRANCH   7  10
ATOM     10  O   UNK A   0      -0.954   4.290   9.607  0.00  0.00    -0.445 OA
BRANCH  10  11
ATOM     11  C   UNK A   0      -0.136   4.514  10.785  0.00  0.00    +0.107 C 
ATOM     12  C   UNK A   0       0.926   5.571  10.475  0.00  0.00    +0.055 C 
ATOM     13  C   UNK A   0      -1.021   5.001  11.934  0.00  0.00    +0.055 C 
ATOM     14  C   UNK A   0       0.548   3.206  11.188  0.00  0.00    +0.055 C 
ENDBRANCH  10  11
ENDBRANCH   7  10
ENDBRANCH   5   6
BRANCH   5  16
ATOM     15  C   UNK A   0      -1.600   1.002   6.291  0.00  0.00    +0.009 C 
ATOM     16  C   UNK A   0      -0.208   1.632   6.217  0.00  0.00    +0.012 C 
ATOM     17  C   UNK A   0       0.600   1.231   7.453  0.00  0.00    +0.009 C 
ENDBRANCH   5  16
ENDBRANCH   1   5
BRANCH   3  18
ATOM     18  C   UNK A   0      -1.466   3.603   2.534  0.00  0.00    +0.107 C 
BRANCH  18  19
ATOM     19  C   UNK A   0      -0.750   3.109   1.275  0.00  0.00    +0.006 C 
ATOM     20  C   UNK A   0      -0.729   1.579   1.267  0.00  0.00    +0.006 C 
ATOM     21  C   UNK A   0      -0.013   1.086   0.008  0.00  0.00    +0.013 C 
ATOM     22  C   UNK A   0      -0.753   1.593  -1.232  0.00  0.00    +0.075 C 
ATOM     23  C   UNK A   0      -0.773   3.123  -1.223  0.00  0.00    +0.013 C 
ATOM     24  C   UNK A   0      -1.490   3.616   0.036  0.00  0.00    +0.006 C 
BRANCH  22  25
ATOM     25  C   UNK A   0      -0.047   1.107  -2.471  0.00  0.00    +0.217 C 
ATOM     26  O   UNK A   0       0.949   0.422  -2.373  0.00  0.00    -0.275 OA
ATOM     27  N   ALA A   1      -0.524   1.433  -3.689  0.00  0.00    -0.302 N 
ATOM     28  H   ALA A   1      -1.321   1.980  -3.768  0.00  0.00    +0.150 HD
BRANCH  27  29
ATOM     29  CA  ALA A   1       0.162   0.960  -4.895  0.00  0.00    +0.183 C 
ATOM     30  CB  ALA A   1      -0.328  -0.447  -5.241  0.00  0.00    +0.040 C 
BRANCH  29  31
ATOM     31  C   ALA A   1      -0.137   1.892  -6.040  0.00  0.00    +0.376 C 
ATOM     32  O   ALA A   1      -0.849   2.853  -5.868  0.00  0.00    -0.244 OA
ATOM     33  OXT ALA A   1       0.389   1.656  -7.253  0.00  0.00    -0.244 OA
ENDBRANCH  29  31
ENDBRANCH  27  29
ENDBRANCH  22  25
ENDBRANCH  18  19
ENDBRANCH   3  18
TORSDOF 10
