REMARK  Name = ZINC02745456
REMARK  9 active torsions:
REMARK  status: ('A' for Active; 'I' for Inactive)
REMARK    1  A    between atoms: C_1  and  C_2
REMARK    2  A    between atoms: C_2  and  C_3
REMARK    3  A    between atoms: C_2  and  O_4
REMARK    4  A    between atoms: O_4  and  C_5
REMARK    5  A    between atoms: C_5  and  C_7
REMARK    6  A    between atoms: C_11  and  N_12
REMARK    7  A    between atoms: C_13  and  C_15
REMARK    8  A    between atoms: C_15  and  O_16
REMARK    9  A    between atoms: O_16  and  C_17
REMARK                            x       y       z     vdW  Elec       q    Type
REMARK                         _______ _______ _______ _____ _____    ______ ____
ROOT
ATOM      1  C   UNL     1       4.025   8.815   0.015  0.00  0.00    +0.091 A 
ATOM      2  C   UNL     1       3.549  10.188   0.020  0.00  0.00    -0.021 A 
ATOM      3  C   UNL     1       2.206  10.332   0.034  0.00  0.00    -0.004 A 
ATOM      4  S   UNL     1       1.574   8.678   0.032  0.00  0.00    -0.077 S 
ATOM      5  C   UNL     1       3.071   7.806   0.013  0.00  0.00    +0.086 A 
ATOM      6  C   UNL     1       1.434  11.615   0.049  0.00  0.00    +0.043 C 
ATOM      7  C   UNL     1       2.395  12.753   0.424  0.00  0.00    +0.005 C 
ATOM      8  C   UNL     1       3.663  12.628  -0.425  0.00  0.00    +0.005 C 
ATOM      9  C   UNL     1       4.467  11.404   0.017  0.00  0.00    +0.037 C 
ENDROOT
BRANCH   5  10
ATOM     10  N   UNL     1       3.269   6.434   0.004  0.00  0.00    -0.277 N 
ATOM     11  C   UNL     1       2.210   5.600   0.010  0.00  0.00    +0.255 C 
ATOM     12  O   UNL     1       1.084   6.051   0.023  0.00  0.00    -0.272 OA
ATOM     13  H   UNL     1       4.170   6.074  -0.006  0.00  0.00    +0.155 HD
BRANCH  11  14
ATOM     14  C   UNL     1       2.425   4.109   0.001  0.00  0.00    +0.324 C 
BRANCH  14  15
ATOM     15  O   UNL     1       1.160   3.445   0.009  0.00  0.00    -0.483 OA
BRANCH  15  16
ATOM     16  C   UNL     1       1.176   2.086   0.002  0.00  0.00    +0.121 A 
ATOM     17  C   UNL     1      -0.017   1.377   0.010  0.00  0.00    +0.046 A 
ATOM     18  C   UNL     1       0.002  -0.004   0.002  0.00  0.00    +0.018 A 
ATOM     19  C   UNL     1       1.209  -0.680  -0.013  0.00  0.00    +0.014 A 
ATOM     20  C   UNL     1       2.399   0.024  -0.020  0.00  0.00    +0.018 A 
ATOM     21  C   UNL     1       2.385   1.406  -0.012  0.00  0.00    +0.046 A 
ATOM     22  I   UNL     1       1.233  -2.775  -0.025  0.00  0.00    -0.044 I 
ENDBRANCH  15  16
ENDBRANCH  14  15
ENDBRANCH  11  14
ENDBRANCH   5  10
BRANCH   1  23
ATOM     23  C   UNL     1       5.457   8.508   0.008  0.00  0.00    +0.342 C 
ATOM     24  O   UNL     1       6.047   8.386  -1.049  0.00  0.00    -0.245 OA
BRANCH  23  25
ATOM     25  O   UNL     1       6.120   8.359   1.173  0.00  0.00    -0.458 OA
BRANCH  25  27
ATOM     26  C   UNL     1       8.256   8.633   2.311  0.00  0.00    +0.052 C 
ATOM     27  C   UNL     1       7.538   8.055   1.089  0.00  0.00    +0.171 C 
ATOM     28  C   UNL     1       7.733   6.538   1.053  0.00  0.00    +0.052 C 
ENDBRANCH  25  27
ENDBRANCH  23  25
ENDBRANCH   1  23
TORSDOF 7
