REMARK  Name = ZINC22473255
REMARK  8 active torsions:
REMARK  status: ('A' for Active; 'I' for Inactive)
REMARK    1  A    between atoms: C_4  and  C_7
REMARK    2  A    between atoms: C_7  and  N_8
REMARK    3  A    between atoms: N_8  and  C_9
REMARK    4  A    between atoms: C_9  and  C_10
REMARK    5  A    between atoms: C_10  and  C_11
REMARK    6  A    between atoms: C_11  and  N_12
REMARK    7  A    between atoms: C_15  and  O_16
REMARK    8  A    between atoms: C_24  and  C_26
REMARK                            x       y       z     vdW  Elec       q    Type
REMARK                         _______ _______ _______ _____ _____    ______ ____
ROOT
ATOM      1  N   UNL     1      -0.288   7.977   0.153  0.00  0.00    -0.292 N 
ATOM      2  C   UNL     1       0.907   7.374  -0.005  0.00  0.00    +0.265 C 
ATOM      3  O   UNL     1       0.970   6.163  -0.085  0.00  0.00    -0.268 OA
ENDROOT
BRANCH   2   4
ATOM      4  C   UNL     1       2.144   8.188  -0.083  0.00  0.00    +0.126 A 
ATOM      5  C   UNL     1       3.389   7.541  -0.110  0.00  0.00    +0.033 A 
ATOM      6  C   UNL     1       4.535   8.279  -0.180  0.00  0.00    +0.012 A 
ATOM      7  C   UNL     1       4.423   9.681  -0.226  0.00  0.00    +0.000 A 
ATOM      8  C   UNL     1       5.560  10.502  -0.301  0.00  0.00    +0.010 A 
ATOM      9  C   UNL     1       5.413  11.854  -0.344  0.00  0.00    +0.001 A 
ATOM     10  C   UNL     1       4.148  12.439  -0.308  0.00  0.00    +0.002 A 
ATOM     11  C   UNL     1       3.024  11.676  -0.241  0.00  0.00    +0.028 A 
ATOM     12  C   UNL     1       3.133  10.273  -0.196  0.00  0.00    +0.072 A 
ATOM     13  N   UNL     1       2.049   9.502  -0.126  0.00  0.00    -0.242 NA
ENDBRANCH   2   4
BRANCH   1  14
ATOM     14  C   UNL     1      -1.500   7.171   0.313  0.00  0.00    +0.143 C 
BRANCH  14  18
ATOM     15  C   UNL     1      -2.344   6.677   4.472  0.00  0.00    +0.000 A 
ATOM     16  C   UNL     1      -2.954   7.692   3.759  0.00  0.00    +0.000 A 
ATOM     17  C   UNL     1      -2.680   7.852   2.413  0.00  0.00    +0.005 A 
ATOM     18  C   UNL     1      -1.798   6.997   1.780  0.00  0.00    -0.030 A 
ATOM     19  C   UNL     1      -1.193   5.978   2.492  0.00  0.00    +0.005 A 
ATOM     20  C   UNL     1      -1.462   5.821   3.839  0.00  0.00    +0.000 A 
ENDBRANCH  14  18
ENDBRANCH   1  14
BRANCH   1  21
ATOM     21  C   UNL     1      -0.374   9.440   0.166  0.00  0.00    +0.110 C 
BRANCH  21  22
ATOM     22  C   UNL     1      -0.417   9.960  -1.272  0.00  0.00    +0.040 C 
BRANCH  22  23
ATOM     23  C   UNL     1      -0.507  11.487  -1.259  0.00  0.00    +0.114 C 
BRANCH  23  24
ATOM     24  N   UNL     1      -0.549  11.986  -2.636  0.00  0.00    -0.384 N 
ATOM     25  C   UNL     1      -0.631  13.339  -2.877  0.00  0.00    +0.053 A 
ATOM     26  C   UNL     1      -0.675  14.239  -1.843  0.00  0.00    +0.113 A 
ATOM     27  C   UNL     1      -0.758  15.610  -2.119  0.00  0.00    +0.286 A 
ATOM     28  O   UNL     1      -0.797  16.079  -3.377  0.00  0.00    -0.425 OA
ATOM     29  C   UNL     1      -0.758  15.253  -4.444  0.00  0.00    +0.141 A 
ATOM     30  C   UNL     1      -0.667  13.866  -4.252  0.00  0.00    +0.041 A 
ATOM     31  C   UNL     1      -0.620  13.009  -5.352  0.00  0.00    +0.013 A 
ATOM     32  C   UNL     1      -0.656  13.533  -6.626  0.00  0.00    +0.001 A 
ATOM     33  C   UNL     1      -0.739  14.904  -6.816  0.00  0.00    +0.004 A 
ATOM     34  C   UNL     1      -0.799  15.761  -5.736  0.00  0.00    +0.047 A 
ATOM     35  H   UNL     1      -0.514  11.279  -3.478  0.00  0.00    +0.160 HD
BRANCH  27  36
ATOM     36  O   UNL     1      -0.796  16.399  -1.191  0.00  0.00    -0.480 OA
ATOM     37  H   UNL     1      -0.862  17.479  -1.390  0.00  0.00    +0.295 HD
ENDBRANCH  27  36
ENDBRANCH  23  24
ENDBRANCH  22  23
ENDBRANCH  21  22
ENDBRANCH   1  21
TORSDOF 8
