REMARK  Name = ZINC64870367
REMARK  6 active torsions:
REMARK  status: ('A' for Active; 'I' for Inactive)
REMARK    1  A    between atoms: C_1  and  O_2
REMARK    2  A    between atoms: O_2  and  C_3
REMARK    3  A    between atoms: C_7  and  C_9
REMARK    4  A    between atoms: C_9  and  N_10
REMARK    5  A    between atoms: C_16  and  C_23
REMARK    6  A    between atoms: C_26  and  C_30
REMARK                            x       y       z     vdW  Elec       q    Type
REMARK                         _______ _______ _______ _____ _____    ______ ____
ROOT
ATOM      1  N   UNL     1       0.219  -4.643   2.929  0.00  0.00    -0.256 N 
ATOM      2  C   UNL     1       0.282  -4.804   4.268  0.00  0.00    +0.265 A 
ATOM      3  O   UNL     1       1.295  -4.529   4.883  0.00  0.00    -0.267 OA
ATOM      4  C   UNL     1      -0.908  -5.322   4.966  0.00  0.00    +0.063 A 
ATOM      5  C   UNL     1      -0.923  -5.515   6.346  0.00  0.00    +0.016 A 
ATOM      6  C   UNL     1      -2.062  -6.002   6.951  0.00  0.00    +0.008 A 
ATOM      7  C   UNL     1      -3.187  -6.298   6.197  0.00  0.00    -0.000 A 
ATOM      8  C   UNL     1      -3.186  -6.110   4.829  0.00  0.00    +0.034 A 
ATOM      9  C   UNL     1      -2.049  -5.622   4.202  0.00  0.00    +0.056 A 
ATOM     10  N   UNL     1      -2.006  -5.419   2.830  0.00  0.00    -0.307 N 
ATOM     11  H   UNL     1      -2.786  -5.621   2.290  0.00  0.00    +0.170 HD
ATOM     12  C   UNL     1      -0.896  -4.939   2.243  0.00  0.00    +0.330 A 
ATOM     13  O   UNL     1      -0.901  -4.771   1.039  0.00  0.00    -0.246 OA
ENDROOT
BRANCH   7  14
ATOM     14  C   UNL     1      -4.423  -6.829   6.876  0.00  0.00    +0.242 C 
ATOM     15  N   UNL     1      -4.500  -6.311   8.256  0.00  0.00    -0.265 NA
ATOM     16  C   UNL     1      -4.492  -7.495   9.147  0.00  0.00    +0.180 C 
ATOM     17  N   UNL     1      -4.968  -8.597   8.268  0.00  0.00    -0.177 NA
ATOM     18  O   UNL     1      -4.356  -8.265   6.960  0.00  0.00    -0.274 OA
ATOM     19  H   UNL     1      -3.721  -5.702   8.458  0.00  0.00    +0.127 HD
ATOM     20  H   UNL     1      -5.975  -8.598   8.204  0.00  0.00    +0.156 HD
BRANCH  16  21
ATOM     21  C   UNL     1      -5.432  -7.293  10.307  0.00  0.00    -0.013 A 
ATOM     22  C   UNL     1      -5.672  -6.019  10.788  0.00  0.00    +0.006 A 
ATOM     23  C   UNL     1      -6.535  -5.833  11.852  0.00  0.00    +0.002 A 
ATOM     24  C   UNL     1      -7.157  -6.921  12.436  0.00  0.00    +0.020 A 
ATOM     25  C   UNL     1      -6.918  -8.195  11.955  0.00  0.00    +0.041 A 
ATOM     26  C   UNL     1      -6.059  -8.380  10.886  0.00  0.00    +0.026 A 
ATOM     27 CL   UNL     1      -7.699  -9.561  12.687  0.00  0.00    -0.084 Cl
ENDBRANCH  16  21
ENDBRANCH   7  14
BRANCH   1  28
ATOM     28  C   UNL     1       1.389  -4.130   2.211  0.00  0.00    +0.165 C 
BRANCH  28  33
ATOM     29  C   UNL     1       0.626  -0.618   1.042  0.00  0.00    +0.120 A 
ATOM     30  C   UNL     1       1.202   0.139   2.051  0.00  0.00    +0.045 A 
ATOM     31  C   UNL     1       1.835  -0.488   3.107  0.00  0.00    +0.004 A 
ATOM     32  C   UNL     1       1.895  -1.869   3.158  0.00  0.00    +0.005 A 
ATOM     33  C   UNL     1       1.321  -2.625   2.153  0.00  0.00    -0.024 A 
ATOM     34  C   UNL     1       0.682  -2.003   1.097  0.00  0.00    +0.051 A 
BRANCH  29  36
ATOM     35  C   UNL     1      -0.017   1.425   0.010  0.00  0.00    +0.277 C 
ATOM     36  O   UNL     1       0.002  -0.004   0.002  0.00  0.00    -0.495 OA
ENDBRANCH  29  36
ENDBRANCH  28  33
ENDBRANCH   1  28
TORSDOF 5
