REMARK  Name = ZINC20729000
REMARK  7 active torsions:
REMARK  status: ('A' for Active; 'I' for Inactive)
REMARK    1  A    between atoms: N_7  and  C_20
REMARK    2  A    between atoms: C_11  and  C_12
REMARK    3  A    between atoms: C_20  and  C_21
REMARK    4  A    between atoms: N_23  and  C_24
REMARK    5  A    between atoms: C_24  and  C_25
REMARK    6  A    between atoms: C_25  and  C_26
REMARK    7  A    between atoms: C_26  and  N_27
REMARK                            x       y       z     vdW  Elec       q    Type
REMARK                         _______ _______ _______ _____ _____    ______ ____
ROOT
ATOM      1  C   UNL     1       5.740   4.345   1.003  0.00  0.00    +0.002 A 
ATOM      2  C   UNL     1       4.909   5.187   1.720  0.00  0.00    +0.001 A 
ATOM      3  C   UNL     1       3.604   4.811   1.974  0.00  0.00    +0.017 A 
ATOM      4  C   UNL     1       3.132   3.593   1.511  0.00  0.00    +0.034 A 
ATOM      5  C   UNL     1       3.962   2.736   0.786  0.00  0.00    +0.051 A 
ATOM      6  C   UNL     1       5.276   3.131   0.539  0.00  0.00    +0.024 A 
ATOM      7  N   UNL     1       3.536   1.509   0.295  0.00  0.00    -0.257 N 
ATOM      8  C   UNL     1       2.272   1.126   0.092  0.00  0.00    +0.258 C 
ATOM      9  O   UNL     1       2.044   0.050  -0.427  0.00  0.00    -0.269 OA
ATOM     10  C   UNL     1       1.147   2.001   0.493  0.00  0.00    +0.076 C 
ATOM     11  C   UNL     1      -0.053   1.957  -0.133  0.00  0.00    +0.028 C 
ATOM     12  S   UNL     1       1.464   3.110   1.841  0.00  0.00    -0.082 S 
ENDROOT
BRANCH  11  13
ATOM     13  C   UNL     1      -0.215   1.162  -1.359  0.00  0.00    -0.023 A 
ATOM     14  C   UNL     1      -1.425   0.507  -1.618  0.00  0.00    +0.008 A 
ATOM     15  C   UNL     1      -1.569  -0.236  -2.770  0.00  0.00    +0.002 A 
ATOM     16  C   UNL     1      -0.521  -0.338  -3.669  0.00  0.00    +0.015 A 
ATOM     17  C   UNL     1       0.679   0.307  -3.420  0.00  0.00    +0.018 A 
ATOM     18  C   UNL     1       0.837   1.060  -2.275  0.00  0.00    +0.023 A 
ATOM     19 BR   UNL     1       2.102   0.161  -4.656  0.00  0.00    -0.050 Br
ENDBRANCH  11  13
BRANCH   7  20
ATOM     20  C   UNL     1       4.579   0.534  -0.034  0.00  0.00    +0.209 C 
BRANCH  20  21
ATOM     21  C   UNL     1       4.967   0.684  -1.483  0.00  0.00    +0.231 C 
ATOM     22  O   UNL     1       4.425   1.522  -2.172  0.00  0.00    -0.274 OA
ATOM     23  N   UNL     1       5.915  -0.114  -2.012  0.00  0.00    -0.314 N 
ATOM     24  H   UNL     1       6.407  -0.874  -1.387  0.00  0.00    +0.149 HD
BRANCH  23  25
ATOM     25  C   UNL     1       6.293   0.031  -3.420  0.00  0.00    +0.102 C 
BRANCH  25  26
ATOM     26  C   UNL     1       7.382  -0.987  -3.764  0.00  0.00    +0.000 C 
BRANCH  26  27
ATOM     27  C   UNL     1       7.776  -0.835  -5.234  0.00  0.00    -0.077 C 
BRANCH  27  28
ATOM     28  N   UNL     1       8.822  -1.812  -5.564  0.00  0.00    +0.380 N 
ATOM     29  C   UNL     1       8.410  -3.185  -5.175  0.00  0.00    -0.079 C 
ATOM     30  C   UNL     1       9.327  -4.088  -6.037  0.00  0.00    -0.020 C 
ATOM     31  C   UNL     1       9.412  -3.319  -7.375  0.00  0.00    -0.020 C 
ATOM     32  C   UNL     1       9.060  -1.861  -7.023  0.00  0.00    -0.079 C 
ATOM     33  H   UNL     1       9.720  -1.485  -5.020  0.00  0.00    -0.082 HD
ENDBRANCH  27  28
ENDBRANCH  26  27
ENDBRANCH  25  26
ENDBRANCH  23  25
ENDBRANCH  20  21
ENDBRANCH   7  20
TORSDOF 7
