REMARK  Name = ZINC24842132
REMARK  9 active torsions:
REMARK  status: ('A' for Active; 'I' for Inactive)
REMARK    1  A    between atoms: C_1  and  C_2
REMARK    2  A    between atoms: C_2  and  C_4
REMARK    3  A    between atoms: C_2  and  S_23
REMARK    4  A    between atoms: C_4  and  O_6
REMARK    5  A    between atoms: O_6  and  C_7
REMARK    6  A    between atoms: C_7  and  C_8
REMARK    7  A    between atoms: C_10  and  O_11
REMARK    8  A    between atoms: C_20  and  C_22
REMARK    9  A    between atoms: S_23  and  C_24
REMARK                            x       y       z     vdW  Elec       q    Type
REMARK                         _______ _______ _______ _____ _____    ______ ____
ROOT
ATOM      1  C   UNL     1      -1.040  -6.384   0.558  0.00  0.00    +0.007 A 
ATOM      2  C   UNL     1      -2.172  -7.129   0.466  0.00  0.00    +0.095 A 
ATOM      3  C   UNL     1      -3.427  -6.491   0.379  0.00  0.00    +0.285 A 
ATOM      4  O   UNL     1      -3.540  -5.154   0.386  0.00  0.00    -0.425 OA
ATOM      5  C   UNL     1      -2.455  -4.355   0.476  0.00  0.00    +0.141 A 
ATOM      6  C   UNL     1      -1.171  -4.925   0.565  0.00  0.00    +0.024 A 
ATOM      7  C   UNL     1      -0.043  -4.102   0.658  0.00  0.00    +0.014 A 
ATOM      8  C   UNL     1      -0.191  -2.745   0.658  0.00  0.00    +0.024 A 
ATOM      9  C   UNL     1      -1.461  -2.174   0.576  0.00  0.00    +0.037 A 
ATOM     10  C   UNL     1      -2.589  -2.975   0.482  0.00  0.00    +0.070 A 
ATOM     11  N   UNL     1      -1.597  -0.785   0.582  0.00  0.00    -0.286 N 
ATOM     12  C   UNL     1      -2.656  -0.215   1.190  0.00  0.00    +0.214 C 
ATOM     13  O   UNL     1      -3.534  -0.909   1.657  0.00  0.00    -0.276 OA
ATOM     14  C   UNL     1      -2.749   1.286   1.289  0.00  0.00    +0.109 C 
ATOM     15  H   UNL     1      -0.840  -0.156   0.091  0.00  0.00    +0.155 HD
ENDROOT
BRANCH   3  16
ATOM     16  O   UNL     1      -4.434  -7.171   0.297  0.00  0.00    -0.480 OA
ATOM     17  H   UNL     1      -5.420  -6.688   0.229  0.00  0.00    +0.295 HD
ENDBRANCH   3  16
BRANCH   1  18
ATOM     18  C   UNL     1       0.313  -7.040   0.652  0.00  0.00    +0.268 C 
BRANCH  18  19
ATOM     19  O   UNL     1       0.154  -8.483   0.625  0.00  0.00    -0.459 OA
BRANCH  19  20
ATOM     20  C   UNL     1       1.272  -9.221   0.700  0.00  0.00    +0.321 C 
ATOM     21  O   UNL     1       2.349  -8.679   0.786  0.00  0.00    -0.250 OA
BRANCH  20  23
ATOM     22  C   UNL     1       1.138 -11.212  -0.772  0.00  0.00    +0.031 C 
ATOM     23  C   UNL     1       1.186 -10.726   0.677  0.00  0.00    +0.157 C 
BRANCH  23  24
ATOM     24  S   UNL     1       2.640 -11.428   1.503  0.00  0.00    -0.111 S 
BRANCH  24  25
ATOM     25  C   UNL     1       2.321 -13.160   1.529  0.00  0.00    +0.009 A 
ATOM     26  C   UNL     1       1.559 -13.713   2.551  0.00  0.00    +0.015 A 
ATOM     27  C   UNL     1       1.307 -15.071   2.565  0.00  0.00    +0.001 A 
ATOM     28  C   UNL     1       1.820 -15.881   1.569  0.00  0.00    +0.000 A 
ATOM     29  C   UNL     1       2.583 -15.335   0.553  0.00  0.00    +0.001 A 
ATOM     30  C   UNL     1       2.836 -13.978   0.530  0.00  0.00    +0.015 A 
ENDBRANCH  24  25
ENDBRANCH  23  24
ENDBRANCH  20  23
ENDBRANCH  19  20
ENDBRANCH  18  19
ENDBRANCH   1  18
TORSDOF 7
