REMARK  Name = ZINC59894348
REMARK  9 active torsions:
REMARK  status: ('A' for Active; 'I' for Inactive)
REMARK    1  A    between atoms: C_4  and  O_7
REMARK    2  A    between atoms: O_7  and  C_8
REMARK    3  A    between atoms: C_8  and  C_9
REMARK    4  A    between atoms: C_9  and  C_10
REMARK    5  A    between atoms: C_16  and  C_19
REMARK    6  A    between atoms: N_21  and  C_22
REMARK    7  A    between atoms: C_22  and  C_23
REMARK    8  A    between atoms: C_23  and  C_25
REMARK    9  A    between atoms: C_23  and  N_32
REMARK                            x       y       z     vdW  Elec       q    Type
REMARK                         _______ _______ _______ _____ _____    ______ ____
ROOT
ATOM      1  C   UNL     1       6.899  -8.317  -1.014  0.00  0.00    +0.218 C 
ATOM      2  O   UNL     1       7.937  -8.845  -0.679  0.00  0.00    -0.275 OA
ATOM      3  N   UNL     1       5.798  -9.066  -1.224  0.00  0.00    -0.316 N 
ATOM      4  H   UNL     1       4.967  -8.644  -1.492  0.00  0.00    +0.149 HD
ENDROOT
BRANCH   1  11
ATOM      5  C   UNL     1       4.729  -4.058  -0.582  0.00  0.00    +0.219 C 
ATOM      6  O   UNL     1       3.669  -4.631  -0.723  0.00  0.00    -0.275 OA
ATOM      7  N   UNL     1       5.849  -4.765  -0.332  0.00  0.00    -0.301 N 
ATOM      8  C   UNL     1       7.139  -4.086  -0.152  0.00  0.00    +0.108 C 
ATOM      9  C   UNL     1       8.159  -4.701  -1.116  0.00  0.00    +0.020 C 
ATOM     10  C   UNL     1       8.211  -6.215  -0.898  0.00  0.00    +0.016 C 
ATOM     11  C   UNL     1       6.838  -6.822  -1.196  0.00  0.00    +0.092 C 
ATOM     12  C   UNL     1       5.802  -6.230  -0.229  0.00  0.00    +0.120 C 
BRANCH   5  13
ATOM     13  C   UNL     1       4.794  -2.556  -0.685  0.00  0.00    +0.137 C 
BRANCH  13  14
ATOM     14  C   UNL     1       3.396  -2.004  -0.972  0.00  0.00    +0.238 C 
BRANCH  14  15
ATOM     15  O   UNL     1       3.457  -0.580  -1.070  0.00  0.00    -0.491 OA
BRANCH  15  19
ATOM     16  C   UNL     1      -0.080   1.399  -1.840  0.00  0.00    +0.000 A 
ATOM     17  C   UNL     1       1.093   2.115  -1.689  0.00  0.00    +0.004 A 
ATOM     18  C   UNL     1       2.278   1.455  -1.431  0.00  0.00    +0.045 A 
ATOM     19  C   UNL     1       2.292   0.072  -1.323  0.00  0.00    +0.121 A 
ATOM     20  C   UNL     1       1.114  -0.645  -1.475  0.00  0.00    +0.045 A 
ATOM     21  C   UNL     1      -0.070   0.020  -1.733  0.00  0.00    +0.004 A 
ENDBRANCH  15  19
ENDBRANCH  14  15
ENDBRANCH  13  14
ENDBRANCH   5  13
ENDBRANCH   1  11
BRANCH   3  22
ATOM     22  C   UNL     1       5.857 -10.519  -1.047  0.00  0.00    +0.093 C 
BRANCH  22  23
ATOM     23  C   UNL     1       4.456 -11.111  -1.214  0.00  0.00    -0.020 C 
BRANCH  23  24
ATOM     24  C   UNL     1       3.568 -10.620  -0.099  0.00  0.00    -0.058 A 
ATOM     25  C   UNL     1       3.636 -11.209   1.150  0.00  0.00    +0.002 A 
ATOM     26  C   UNL     1       2.822 -10.759   2.172  0.00  0.00    +0.002 A 
ATOM     27  C   UNL     1       1.939  -9.720   1.946  0.00  0.00    +0.020 A 
ATOM     28  C   UNL     1       1.870  -9.130   0.697  0.00  0.00    +0.041 A 
ATOM     29  C   UNL     1       2.689  -9.577  -0.325  0.00  0.00    +0.022 A 
ATOM     30 CL   UNL     1       0.760  -7.826   0.413  0.00  0.00    -0.084 Cl
ENDBRANCH  23  24
BRANCH  23  31
ATOM     31  N   UNL     1       4.534 -12.577  -1.167  0.00  0.00    +0.385 N 
ATOM     32  C   UNL     1       3.183 -13.168  -1.342  0.00  0.00    -0.078 C 
ATOM     33  C   UNL     1       3.486 -14.607  -1.829  0.00  0.00    -0.020 C 
ATOM     34  C   UNL     1       4.713 -14.410  -2.749  0.00  0.00    -0.020 C 
ATOM     35  C   UNL     1       5.344 -13.080  -2.298  0.00  0.00    -0.078 C 
ATOM     36  H   UNL     1       4.936 -12.877  -0.291  0.00  0.00    -0.081 HD
ENDBRANCH  23  31
ENDBRANCH  22  23
ENDBRANCH   3  22
TORSDOF 9
