REMARK  Name = ZINC44942753
REMARK  8 active torsions:
REMARK  status: ('A' for Active; 'I' for Inactive)
REMARK    1  A    between atoms: C_1  and  C_2
REMARK    2  A    between atoms: C_2  and  C_4
REMARK    3  A    between atoms: C_2  and  N_18
REMARK    4  A    between atoms: C_4  and  C_5
REMARK    5  A    between atoms: C_4  and  C_11
REMARK    6  A    between atoms: C_4  and  O_17
REMARK    7  A    between atoms: C_19  and  C_21
REMARK    8  A    between atoms: C_27  and  C_29
REMARK                            x       y       z     vdW  Elec       q    Type
REMARK                         _______ _______ _______ _____ _____    ______ ____
ROOT
ATOM      1  N   UNL     1      -1.385  -0.428   0.039  0.00  0.00    -0.309 N 
ATOM      2  C   UNL     1      -2.051  -0.579  -1.123  0.00  0.00    +0.217 C 
ATOM      3  O   UNL     1      -1.521  -0.270  -2.170  0.00  0.00    -0.275 OA
ATOM      4  H   UNL     1      -1.809  -0.675   0.876  0.00  0.00    +0.149 HD
ENDROOT
BRANCH   2   5
ATOM      5  C   UNL     1      -3.453  -1.132  -1.123  0.00  0.00    +0.087 C 
ATOM      6  C   UNL     1      -3.447  -2.536  -0.514  0.00  0.00    +0.013 C 
ATOM      7  C   UNL     1      -4.870  -3.098  -0.514  0.00  0.00    +0.001 C 
ATOM      8  C   UNL     1      -5.392  -3.166  -1.950  0.00  0.00    +0.001 C 
ATOM      9  C   UNL     1      -5.398  -1.762  -2.558  0.00  0.00    +0.013 C 
ATOM     10  C   UNL     1      -3.975  -1.201  -2.559  0.00  0.00    +0.087 C 
BRANCH  10  11
ATOM     11  C   UNL     1      -3.981   0.182  -3.158  0.00  0.00    +0.219 C 
ATOM     12  O   UNL     1      -4.228   1.143  -2.461  0.00  0.00    -0.275 OA
ATOM     13  N   UNL     1      -3.711   0.350  -4.468  0.00  0.00    -0.298 N 
ATOM     14  C   UNL     1      -3.536  -0.811  -5.351  0.00  0.00    +0.126 C 
ATOM     15  C   UNL     1      -4.513  -0.685  -6.526  0.00  0.00    +0.125 C 
ATOM     16  N   UNL     1      -4.389   0.663  -7.097  0.00  0.00    -0.314 N 
ATOM     17  C   UNL     1      -4.564   1.825  -6.214  0.00  0.00    +0.125 C 
ATOM     18  C   UNL     1      -3.593   1.699  -5.040  0.00  0.00    +0.126 C 
ATOM     19  C   UNL     1      -4.111   0.837  -8.448  0.00  0.00    +0.099 A 
ATOM     20  C   UNL     1      -4.069  -0.269  -9.291  0.00  0.00    +0.042 A 
ATOM     21  C   UNL     1      -3.792  -0.082 -10.633  0.00  0.00    +0.005 A 
ATOM     22  C   UNL     1      -3.564   1.210 -11.088  0.00  0.00    +0.018 A 
ATOM     23  C   UNL     1      -3.621   2.262 -10.196  0.00  0.00    +0.084 A 
ATOM     24  N   UNL     1      -3.894   2.054  -8.922  0.00  0.00    -0.350 N 
ATOM     25  H   UNL     1      -3.932   2.811  -8.317  0.00  0.00    +0.166 HD
ENDBRANCH  10  11
ENDBRANCH   2   5
BRANCH   1  27
ATOM     26  C   UNL     1      -0.078   1.639   0.040  0.00  0.00    +0.031 C 
ATOM     27  C   UNL     1      -0.023   0.110   0.038  0.00  0.00    +0.110 C 
BRANCH  27  28
ATOM     28  C   UNL     1       0.718  -0.375   1.286  0.00  0.00    +0.134 C 
BRANCH  28  29
ATOM     29  C   UNL     1       0.772  -1.881   1.284  0.00  0.00    -0.010 A 
ATOM     30  C   UNL     1       0.801  -2.570   0.086  0.00  0.00    +0.007 A 
ATOM     31  C   UNL     1       0.851  -3.952   0.085  0.00  0.00    +0.000 A 
ATOM     32  C   UNL     1       0.872  -4.644   1.281  0.00  0.00    +0.000 A 
ATOM     33  C   UNL     1       0.843  -3.955   2.479  0.00  0.00    +0.000 A 
ATOM     34  C   UNL     1       0.798  -2.573   2.481  0.00  0.00    +0.007 A 
ENDBRANCH  28  29
BRANCH  28  35
ATOM     35  C   UNL     1       2.120   0.178   1.285  0.00  0.00    -0.010 A 
ATOM     36  C   UNL     1       2.759   0.438   0.088  0.00  0.00    +0.007 A 
ATOM     37  C   UNL     1       4.045   0.946   0.087  0.00  0.00    +0.000 A 
ATOM     38  C   UNL     1       4.691   1.193   1.284  0.00  0.00    +0.000 A 
ATOM     39  C   UNL     1       4.051   0.933   2.481  0.00  0.00    +0.000 A 
ATOM     40  C   UNL     1       2.764   0.430   2.482  0.00  0.00    +0.007 A 
ENDBRANCH  28  35
BRANCH  28  41
ATOM     41  O   UNL     1       0.029   0.075   2.454  0.00  0.00    -0.377 OA
ATOM     42  H   UNL     1      -0.882  -0.243   2.521  0.00  0.00    +0.211 HD
ENDBRANCH  28  41
ENDBRANCH  27  28
ENDBRANCH   1  27
TORSDOF 7
