REMARK  Name = ZINC11528213
REMARK  10 active torsions:
REMARK  status: ('A' for Active; 'I' for Inactive)
REMARK    1  A    between atoms: C_1  and  C_2
REMARK    2  A    between atoms: C_7  and  N_8
REMARK    3  A    between atoms: C_11  and  C_16
REMARK    4  A    between atoms: C_16  and  S_17
REMARK    5  A    between atoms: S_17  and  C_18
REMARK    6  A    between atoms: N_28  and  C_29
REMARK    7  A    between atoms: C_29  and  C_30
REMARK    8  A    between atoms: C_30  and  C_31
REMARK    9  A    between atoms: C_31  and  O_32
REMARK   10  A    between atoms: O_32  and  C_33
REMARK                            x       y       z     vdW  Elec       q    Type
REMARK                         _______ _______ _______ _____ _____    ______ ____
ROOT
ATOM      1  C   UNL     1       2.741   3.937   3.373  0.00  0.00    +0.153 C 
ENDROOT
BRANCH   1   5
ATOM      2  N   UNL     1       2.568   8.732   3.425  0.00  0.00    -0.283 N 
ATOM      3  C   UNL     1       3.136   7.571   2.938  0.00  0.00    +0.224 A 
ATOM      4  N   UNL     1       2.698   6.387   3.359  0.00  0.00    -0.198 NA
ATOM      5  C   UNL     1       3.240   5.276   2.893  0.00  0.00    +0.146 A 
ATOM      6  N   UNL     1       4.223   5.335   2.011  0.00  0.00    -0.199 NA
ATOM      7  C   UNL     1       4.663   6.515   1.581  0.00  0.00    +0.217 A 
ATOM      8  N   UNL     1       4.120   7.635   2.047  0.00  0.00    -0.181 NA
ATOM      9  N   UNL     1       5.685   6.576   0.656  0.00  0.00    -0.327 N 
ATOM     10  H   UNL     1       1.795   8.686   4.009  0.00  0.00    +0.155 HD
ATOM     11  H   UNL     1       6.008   7.437   0.346  0.00  0.00    +0.145 HD
ATOM     12  H   UNL     1       6.081   5.758   0.316  0.00  0.00    +0.145 HD
BRANCH   2  19
ATOM     13  C   UNL     1       0.866  11.010   3.518  0.00  0.00    +0.045 C 
ATOM     14  C   UNL     1       2.313  11.112   3.108  0.00  0.00    -0.029 A 
ATOM     15  C   UNL     1       2.850  12.338   2.764  0.00  0.00    +0.005 A 
ATOM     16  C   UNL     1       4.177  12.432   2.389  0.00  0.00    +0.000 A 
ATOM     17  C   UNL     1       4.972  11.300   2.357  0.00  0.00    +0.002 A 
ATOM     18  C   UNL     1       4.443  10.073   2.705  0.00  0.00    +0.023 A 
ATOM     19  C   UNL     1       3.108   9.974   3.077  0.00  0.00    +0.036 A 
ENDBRANCH   2  19
ENDBRANCH   1   5
BRANCH   1  20
ATOM     20  S   UNL     1       1.398   3.374   2.299  0.00  0.00    -0.080 S 
BRANCH  20  21
ATOM     21  C   UNL     1       1.016   1.835   3.068  0.00  0.00    +0.173 A 
ATOM     22  N   UNL     1       1.705   1.476   4.123  0.00  0.00    -0.223 NA
ATOM     23  C   UNL     1       1.464   0.307   4.762  0.00  0.00    +0.080 A 
ATOM     24  C   UNL     1       2.198  -0.077   5.887  0.00  0.00    +0.048 A 
ATOM     25  C   UNL     1       1.917  -1.277   6.504  0.00  0.00    +0.043 A 
ATOM     26  C   UNL     1       0.912  -2.108   6.021  0.00  0.00    +0.021 A 
ATOM     27  C   UNL     1       0.181  -1.753   4.922  0.00  0.00    +0.017 A 
ATOM     28  C   UNL     1       0.445  -0.545   4.278  0.00  0.00    +0.065 A 
ATOM     29  C   UNL     1      -0.315  -0.115   3.097  0.00  0.00    +0.262 A 
ATOM     30  O   UNL     1      -1.208  -0.802   2.636  0.00  0.00    -0.267 OA
ATOM     31  N   UNL     1       0.016   1.071   2.537  0.00  0.00    -0.287 N 
ATOM     32 CL   UNL     1       2.828  -1.756   7.902  0.00  0.00    -0.083 Cl
BRANCH  31  33
ATOM     33  C   UNL     1      -0.707   1.544   1.354  0.00  0.00    +0.129 C 
BRANCH  33  34
ATOM     34  C   UNL     1      -0.001   1.046   0.091  0.00  0.00    +0.050 C 
BRANCH  34  35
ATOM     35  C   UNL     1      -0.757   1.539  -1.144  0.00  0.00    +0.161 C 
BRANCH  35  36
ATOM     36  O   UNL     1      -0.098   1.073  -2.324  0.00  0.00    -0.383 OA
ATOM     37  C   UNL     1      -0.727   1.481  -3.540  0.00  0.00    +0.193 C 
ENDBRANCH  35  36
ENDBRANCH  34  35
ENDBRANCH  33  34
ENDBRANCH  31  33
ENDBRANCH  20  21
ENDBRANCH   1  20
TORSDOF 8
