REMARK  Name = ZINC21309860
REMARK  7 active torsions:
REMARK  status: ('A' for Active; 'I' for Inactive)
REMARK    1  A    between atoms: C_11  and  C_30
REMARK    2  A    between atoms: C_14  and  C_16
REMARK    3  A    between atoms: C_16  and  N_17
REMARK    4  A    between atoms: N_17  and  C_18
REMARK    5  A    between atoms: N_17  and  C_24
REMARK    6  A    between atoms: C_18  and  C_19
REMARK    7  A    between atoms: C_24  and  C_25
REMARK                            x       y       z     vdW  Elec       q    Type
REMARK                         _______ _______ _______ _____ _____    ______ ____
ROOT
ATOM      1  C   UNL     1      -2.459  -2.029   3.445  0.00  0.00    +0.002 A 
ATOM      2  C   UNL     1      -2.423  -1.736   2.094  0.00  0.00    +0.002 A 
ATOM      3  C   UNL     1      -2.333  -0.423   1.667  0.00  0.00    +0.025 A 
ATOM      4  C   UNL     1      -2.279   0.602   2.597  0.00  0.00    +0.058 A 
ATOM      5  C   UNL     1      -2.337   0.307   3.959  0.00  0.00    +0.055 A 
ATOM      6  C   UNL     1      -2.417  -1.010   4.380  0.00  0.00    +0.025 A 
ATOM      7  N   UNL     1      -2.321   1.357   4.884  0.00  0.00    -0.284 N 
ATOM      8  C   UNL     1      -1.391   2.335   4.796  0.00  0.00    +0.219 C 
ATOM      9  O   UNL     1      -1.437   3.279   5.557  0.00  0.00    -0.275 OA
ATOM     10  C   UNL     1      -0.301   2.262   3.761  0.00  0.00    +0.128 C 
ATOM     11  C   UNL     1      -0.862   2.607   2.380  0.00  0.00    +0.194 C 
ATOM     12  N   UNL     1      -2.147   1.935   2.184  0.00  0.00    -0.259 N 
ATOM     13  C   UNL     1      -3.183   2.584   1.617  0.00  0.00    +0.204 C 
ATOM     14  O   UNL     1      -3.055   3.738   1.264  0.00  0.00    -0.277 OA
ATOM     15  H   UNL     1      -3.067   1.392   5.691  0.00  0.00    +0.155 HD
ENDROOT
BRANCH  11  16
ATOM     16  C   UNL     1       0.122   2.148   1.302  0.00  0.00    +0.409 C 
ATOM     17  F   UNL     1       0.307   0.764   1.398  0.00  0.00    -0.169 F 
ATOM     18  F   UNL     1       1.349   2.796   1.483  0.00  0.00    -0.169 F 
ATOM     19  F   UNL     1      -0.390   2.463   0.038  0.00  0.00    -0.169 F 
ENDBRANCH  11  16
BRANCH  13  20
ATOM     20  C   UNL     1      -4.500   1.878   1.423  0.00  0.00    +0.020 C 
BRANCH  20  21
ATOM     21  N   UNL     1      -5.458   2.794   0.791  0.00  0.00    +0.393 N 
ATOM     22  H   UNL     1      -5.477   3.723   1.380  0.00  0.00    -0.080 HD
BRANCH  21  23
ATOM     23  C   UNL     1      -5.039   3.135  -0.575  0.00  0.00    -0.002 C 
BRANCH  23  24
ATOM     24  C   UNL     1      -4.878   1.871  -1.381  0.00  0.00    +0.089 A 
ATOM     25  C   UNL     1      -5.811   1.323  -2.179  0.00  0.00    +0.042 A 
ATOM     26  C   UNL     1      -5.240   0.157  -2.737  0.00  0.00    +0.041 A 
ATOM     27  C   UNL     1      -3.994   0.057  -2.240  0.00  0.00    +0.195 A 
ATOM     28  O   UNL     1      -3.780   1.099  -1.419  0.00  0.00    -0.470 OA
ENDBRANCH  23  24
ENDBRANCH  21  23
BRANCH  21  29
ATOM     29  C   UNL     1      -6.813   2.227   0.799  0.00  0.00    -0.034 C 
BRANCH  29  30
ATOM     30  C   UNL     1      -7.815   3.314   0.510  0.00  0.00    -0.027 A 
ATOM     31  C   UNL     1      -8.386   3.658  -0.670  0.00  0.00    +0.009 A 
ATOM     32  C   UNL     1      -9.291   4.702  -0.699  0.00  0.00    +0.008 A 
ATOM     33  C   UNL     1      -9.581   5.352   0.454  0.00  0.00    +0.045 A 
ATOM     34  S   UNL     1      -8.565   4.481   1.635  0.00  0.00    -0.103 S 
ENDBRANCH  29  30
ENDBRANCH  21  29
ENDBRANCH  20  21
ENDBRANCH  13  20
TORSDOF 7
