REMARK  Name = ZINC61095753
REMARK  4 active torsions:
REMARK  status: ('A' for Active; 'I' for Inactive)
REMARK    1  A    between atoms: C_3  and  C_11
REMARK    2  A    between atoms: C_6  and  N_7
REMARK    3  A    between atoms: C_11  and  N_12
REMARK    4  A    between atoms: N_12  and  C_13
REMARK                            x       y       z     vdW  Elec       q    Type
REMARK                         _______ _______ _______ _____ _____    ______ ____
ROOT
ATOM      1  C   UNL     1       3.672   2.184  -0.022  0.00  0.00    +0.138 C 
ENDROOT
BRANCH   1   4
ATOM      2  C   UNL     1      -0.017   1.378   0.010  0.00  0.00    +0.033 A 
ATOM      3  C   UNL     1       1.171   2.086   0.002  0.00  0.00    +0.009 A 
ATOM      4  C   UNL     1       2.377   1.412  -0.013  0.00  0.00    -0.012 A 
ATOM      5  C   UNL     1       2.397   0.029  -0.021  0.00  0.00    +0.048 A 
ATOM      6  C   UNL     1       1.208  -0.679  -0.013  0.00  0.00    +0.053 A 
ATOM      7  C   UNL     1       0.002  -0.004   0.002  0.00  0.00    +0.128 A 
ATOM      8 CL   UNL     1       3.912  -0.818  -0.040  0.00  0.00    -0.083 Cl
BRANCH   7   9
ATOM      9  N   UNL     1      -1.270  -0.761   0.011  0.00  0.00    +0.056 N 
ATOM     10  O   UNL     1      -2.325  -0.171   0.024  0.00  0.00    -0.126 OA
ATOM     11  O   UNL     1      -1.253  -1.970   0.004  0.00  0.00    -0.126 OA
ENDBRANCH   7   9
ENDBRANCH   1   4
BRANCH   1  12
ATOM     12  N   UNL     1       4.287   2.121   1.306  0.00  0.00    -0.337 N 
ATOM     13  H   UNL     1       3.850   1.630   2.020  0.00  0.00    +0.146 HD
BRANCH  12  14
ATOM     14  C   UNL     1       5.504   2.767   1.544  0.00  0.00    +0.069 A 
ATOM     15  C   UNL     1       6.127   3.474   0.525  0.00  0.00    +0.064 A 
ATOM     16  C   UNL     1       7.331   4.113   0.762  0.00  0.00    +0.128 A 
ATOM     17  C   UNL     1       7.916   4.048   2.016  0.00  0.00    +0.079 A 
ATOM     18  C   UNL     1       7.297   3.343   3.035  0.00  0.00    +0.163 A 
ATOM     19  C   UNL     1       6.089   2.707   2.804  0.00  0.00    +0.179 A 
ATOM     20  F   UNL     1       5.482   2.025   3.800  0.00  0.00    -0.201 F 
ATOM     21  F   UNL     1       7.870   3.281   4.257  0.00  0.00    -0.202 F 
ATOM     22  F   UNL     1       7.937   4.801  -0.230  0.00  0.00    -0.205 F 
ENDBRANCH  12  14
ENDBRANCH   1  12
TORSDOF 4
