REMARK  Name = ZINC40570115
REMARK  13 active torsions:
REMARK  status: ('A' for Active; 'I' for Inactive)
REMARK    1  A    between atoms: C_1  and  C_2
REMARK    2  A    between atoms: C_7  and  O_8
REMARK    3  A    between atoms: O_8  and  C_9
REMARK    4  A    between atoms: C_9  and  C_11
REMARK    5  A    between atoms: C_12  and  N_37
REMARK    6  A    between atoms: C_14  and  C_25
REMARK    7  A    between atoms: N_22  and  C_24
REMARK    8  A    between atoms: C_27  and  O_35
REMARK    9  A    between atoms: C_28  and  O_33
REMARK   10  A    between atoms: C_29  and  O_31
REMARK   11  A    between atoms: O_31  and  C_32
REMARK   12  A    between atoms: O_33  and  C_34
REMARK   13  A    between atoms: O_35  and  C_36
REMARK                            x       y       z     vdW  Elec       q    Type
REMARK                         _______ _______ _______ _____ _____    ______ ____
ROOT
ATOM      1  C   UNL     1      -1.114  -0.074   4.789  0.00  0.00    +0.120 A 
ATOM      2  C   UNL     1      -0.844  -0.648   6.015  0.00  0.00    +0.056 A 
ATOM      3  C   UNL     1      -0.511   0.226   7.126  0.00  0.00    +0.037 A 
ATOM      4  C   UNL     1      -0.199  -0.121   8.473  0.00  0.00    -0.003 A 
ATOM      5  C   UNL     1       0.094   0.891   9.385  0.00  0.00    -0.034 A 
ATOM      6  C   UNL     1       0.080   2.210   8.977  0.00  0.00    +0.043 A 
ATOM      7  N   UNL     1      -0.213   2.520   7.723  0.00  0.00    -0.244 NA
ATOM      8  C   UNL     1      -0.497   1.606   6.824  0.00  0.00    +0.112 A 
ATOM      9  S   UNL     1      -0.917   1.670   5.099  0.00  0.00    -0.060 S 
ATOM     10  C   UNL     1       0.400   3.330   9.936  0.00  0.00    +0.037 C 
ATOM     11  C   UNL     1       0.307   2.822  11.375  0.00  0.00    -0.073 C 
ATOM     12  N   UNL     1       1.111   1.596  11.492  0.00  0.00    +0.381 N 
ATOM     13  C   UNL     1       0.417   0.504  10.804  0.00  0.00    -0.041 C 
ATOM     14  C   UNL     1       1.283   1.254  12.910  0.00  0.00    -0.096 C 
ATOM     15  H   UNL     1       2.014   1.742  11.067  0.00  0.00    -0.082 HD
ENDROOT
BRANCH   4  16
ATOM     16  C   UNL     1      -0.186  -1.540   8.898  0.00  0.00    -0.010 A 
ATOM     17  C   UNL     1       0.856  -2.378   8.501  0.00  0.00    +0.058 A 
ATOM     18  C   UNL     1       0.866  -3.703   8.899  0.00  0.00    +0.166 A 
ATOM     19  C   UNL     1      -0.162  -4.199   9.695  0.00  0.00    +0.204 A 
ATOM     20  C   UNL     1      -1.202  -3.365  10.092  0.00  0.00    +0.166 A 
ATOM     21  C   UNL     1      -1.213  -2.038   9.700  0.00  0.00    +0.058 A 
BRANCH  20  22
ATOM     22  O   UNL     1      -2.206  -3.852  10.869  0.00  0.00    -0.491 OA
ATOM     23  C   UNL     1      -3.241  -2.939  11.239  0.00  0.00    +0.277 C 
ENDBRANCH  20  22
BRANCH  19  24
ATOM     24  O   UNL     1      -0.151  -5.502  10.085  0.00  0.00    -0.488 OA
ATOM     25  C   UNL     1       0.509  -5.806  11.315  0.00  0.00    +0.277 C 
ENDBRANCH  19  24
BRANCH  18  26
ATOM     26  O   UNL     1       1.881  -4.521   8.513  0.00  0.00    -0.491 OA
ATOM     27  C   UNL     1       2.903  -3.946   7.696  0.00  0.00    +0.277 C 
ENDBRANCH  18  26
ENDBRANCH   4  16
BRANCH   2  28
ATOM     28  N   UNL     1      -0.891  -2.024   6.182  0.00  0.00    -0.356 N 
ATOM     29  H   UNL     1      -0.957  -2.605   5.408  0.00  0.00    +0.142 HD
ATOM     30  H   UNL     1      -0.856  -2.406   7.073  0.00  0.00    +0.142 HD
ENDBRANCH   2  28
BRANCH   1  31
ATOM     31  C   UNL     1      -1.457  -0.716   3.577  0.00  0.00    +0.353 C 
ATOM     32  O   UNL     1      -1.550  -1.929   3.535  0.00  0.00    -0.244 OA
BRANCH  31  33
ATOM     33  O   UNL     1      -1.682   0.017   2.465  0.00  0.00    -0.422 OA
BRANCH  33  40
ATOM     34  C   UNL     1       0.286  -1.077   0.758  0.00  0.00    +0.047 C 
ATOM     35  C   UNL     1      -1.190  -1.189   0.474  0.00  0.00    -0.008 A 
ATOM     36  C   UNL     1      -1.628  -1.852  -0.656  0.00  0.00    +0.007 A 
ATOM     37  C   UNL     1      -2.981  -1.956  -0.917  0.00  0.00    +0.000 A 
ATOM     38  C   UNL     1      -3.900  -1.396  -0.049  0.00  0.00    +0.004 A 
ATOM     39  C   UNL     1      -3.468  -0.732   1.082  0.00  0.00    +0.046 A 
ATOM     40  C   UNL     1      -2.110  -0.631   1.350  0.00  0.00    +0.135 A 
ENDBRANCH  33  40
ENDBRANCH  31  33
ENDBRANCH   1  31
TORSDOF 8
