REMARK  Name = ZINC12566078
REMARK  5 active torsions:
REMARK  status: ('A' for Active; 'I' for Inactive)
REMARK    1  A    between atoms: C_1  and  C_2
REMARK    2  A    between atoms: C_7  and  C_15
REMARK    3  A    between atoms: C_13  and  C_14
REMARK    4  A    between atoms: C_15  and  N_16
REMARK    5  A    between atoms: N_16  and  C_17
REMARK                            x       y       z     vdW  Elec       q    Type
REMARK                         _______ _______ _______ _____ _____    ______ ____
ROOT
ATOM      1  C   UNL     1      12.493  -0.896   6.433  0.00  0.00    +0.044 C 
ATOM      2  C   UNL     1      11.071  -1.046   5.957  0.00  0.00    -0.046 A 
ATOM      3  C   UNL     1      10.025  -0.878   6.854  0.00  0.00    +0.004 A 
ATOM      4  C   UNL     1       8.729  -1.009   6.444  0.00  0.00    +0.010 A 
ATOM      5  C   UNL     1       8.452  -1.314   5.107  0.00  0.00    -0.001 A 
ATOM      6  C   UNL     1       7.074  -1.456   4.632  0.00  0.00    +0.020 A 
ATOM      7  C   UNL     1       6.868  -1.759   3.327  0.00  0.00    +0.034 A 
ATOM      8  C   UNL     1       7.963  -1.920   2.452  0.00  0.00    +0.254 A 
ATOM      9  O   UNL     1       7.755  -2.188   1.281  0.00  0.00    -0.268 OA
ATOM     10  N   UNL     1       9.232  -1.787   2.878  0.00  0.00    -0.322 N 
ATOM     11  H   UNL     1       9.962  -1.905   2.250  0.00  0.00    +0.169 HD
ATOM     12  C   UNL     1       9.510  -1.485   4.194  0.00  0.00    +0.052 A 
ATOM     13  C   UNL     1      10.822  -1.347   4.635  0.00  0.00    -0.024 A 
ATOM     14  C   UNL     1      11.967  -1.528   3.672  0.00  0.00    +0.046 C 
ENDROOT
BRANCH   7  15
ATOM     15  C   UNL     1       5.462  -1.917   2.806  0.00  0.00    +0.142 C 
BRANCH  15  16
ATOM     16  N   UNL     1       5.010  -0.648   2.229  0.00  0.00    -0.339 N 
ATOM     17  H   UNL     1       5.599   0.122   2.229  0.00  0.00    +0.146 HD
BRANCH  16  18
ATOM     18  C   UNL     1       3.727  -0.548   1.679  0.00  0.00    +0.031 A 
ATOM     19  C   UNL     1       2.883  -1.651   1.679  0.00  0.00    +0.027 A 
ATOM     20  C   UNL     1       1.616  -1.553   1.136  0.00  0.00    +0.051 A 
ATOM     21  C   UNL     1       1.184  -0.356   0.590  0.00  0.00    +0.166 A 
ATOM     22  C   UNL     1       2.029   0.752   0.587  0.00  0.00    +0.168 A 
ATOM     23  C   UNL     1       3.298   0.653   1.132  0.00  0.00    +0.072 A 
ATOM     24  O   UNL     1       1.376   1.797  -0.001  0.00  0.00    -0.453 OA
ATOM     25  C   UNL     1      -0.018   1.436   0.010  0.00  0.00    +0.466 C 
ATOM     26  O   UNL     1       0.002  -0.004   0.002  0.00  0.00    -0.453 OA
ENDBRANCH  16  18
ENDBRANCH  15  16
ENDBRANCH   7  15
TORSDOF 3
