REMARK  Name = ZINC36007493
REMARK  6 active torsions:
REMARK  status: ('A' for Active; 'I' for Inactive)
REMARK    1  A    between atoms: C_4  and  N_7
REMARK    2  A    between atoms: N_7  and  C_8
REMARK    3  A    between atoms: C_8  and  N_10
REMARK    4  A    between atoms: C_22  and  C_24
REMARK    5  A    between atoms: C_24  and  C_25
REMARK    6  A    between atoms: N_27  and  C_28
REMARK                            x       y       z     vdW  Elec       q    Type
REMARK                         _______ _______ _______ _____ _____    ______ ____
ROOT
ATOM      1  N   UNL     1       5.217  -2.663   0.008  0.00  0.00    -0.296 N 
ATOM      2  C   UNL     1       5.582  -4.072  -0.176  0.00  0.00    +0.096 C 
ATOM      3  C   UNL     1       4.346  -4.965  -0.256  0.00  0.00    +0.024 C 
ATOM      4  C   UNL     1       4.801  -6.415  -0.457  0.00  0.00    +0.002 C 
ATOM      5  C   UNL     1       5.694  -6.853   0.704  0.00  0.00    +0.002 C 
ATOM      6  C   UNL     1       6.913  -5.930   0.810  0.00  0.00    +0.024 C 
ATOM      7  C   UNL     1       6.427  -4.500   1.026  0.00  0.00    +0.093 C 
ATOM      8  N   UNL     1       7.516  -3.565   1.239  0.00  0.00    -0.309 N 
ATOM      9  C   UNL     1       7.461  -2.281   0.865  0.00  0.00    +0.234 C 
ATOM     10  O   UNL     1       8.377  -1.552   1.182  0.00  0.00    -0.274 OA
ATOM     11  C   UNL     1       6.326  -1.695   0.067  0.00  0.00    +0.170 C 
ATOM     12  H   UNL     1       8.322  -3.886   1.673  0.00  0.00    +0.149 HD
ENDROOT
BRANCH   1  13
ATOM     13  C   UNL     1       3.931  -2.273   0.113  0.00  0.00    +0.138 C 
ATOM     14  S   UNL     1       2.674  -3.327  -0.378  0.00  0.00    -0.018 S 
BRANCH  13  15
ATOM     15  N   UNL     1       3.635  -1.053   0.603  0.00  0.00    -0.297 N 
ATOM     16  H   UNL     1       3.442  -0.321  -0.003  0.00  0.00    +0.154 HD
BRANCH  15  20
ATOM     17  C   UNL     1       3.547  -0.428   4.721  0.00  0.00    +0.000 A 
ATOM     18  C   UNL     1       3.292   0.622   3.858  0.00  0.00    +0.002 A 
ATOM     19  C   UNL     1       3.320   0.418   2.493  0.00  0.00    +0.023 A 
ATOM     20  C   UNL     1       3.606  -0.843   1.986  0.00  0.00    +0.033 A 
ATOM     21  C   UNL     1       3.861  -1.896   2.855  0.00  0.00    +0.023 A 
ATOM     22  C   UNL     1       3.831  -1.685   4.220  0.00  0.00    +0.002 A 
ENDBRANCH  15  20
ENDBRANCH  13  15
ENDBRANCH   1  13
BRANCH  11  23
ATOM     23  C   UNL     1       5.843  -0.408   0.739  0.00  0.00    +0.128 C 
BRANCH  23  24
ATOM     24  C   UNL     1       5.084   0.426  -0.261  0.00  0.00    +0.219 C 
ATOM     25  O   UNL     1       4.784  -0.043  -1.339  0.00  0.00    -0.275 OA
ATOM     26  N   UNL     1       4.740   1.694   0.042  0.00  0.00    -0.285 N 
ATOM     27  H   UNL     1       5.039   2.092   0.874  0.00  0.00    +0.155 HD
BRANCH  26  28
ATOM     28  C   UNL     1       3.949   2.436  -0.846  0.00  0.00    +0.037 A 
ATOM     29  C   UNL     1       3.417   1.829  -1.975  0.00  0.00    +0.027 A 
ATOM     30  C   UNL     1       2.637   2.560  -2.851  0.00  0.00    +0.051 A 
ATOM     31  C   UNL     1       2.384   3.899  -2.605  0.00  0.00    +0.166 A 
ATOM     32  C   UNL     1       2.916   4.511  -1.472  0.00  0.00    +0.168 A 
ATOM     33  C   UNL     1       3.693   3.776  -0.592  0.00  0.00    +0.072 A 
ATOM     34  O   UNL     1       2.526   5.819  -1.458  0.00  0.00    -0.453 OA
ATOM     35  C   UNL     1       2.091   6.105  -2.801  0.00  0.00    +0.466 C 
ATOM     36  O   UNL     1       1.660   4.825  -3.300  0.00  0.00    -0.453 OA
ENDBRANCH  26  28
ENDBRANCH  23  24
ENDBRANCH  11  23
TORSDOF 6
