REMARK  Name = ZINC12796878
REMARK  7 active torsions:
REMARK  status: ('A' for Active; 'I' for Inactive)
REMARK    1  A    between atoms: C_1  and  C_2
REMARK    2  A    between atoms: C_3  and  C_28
REMARK    3  A    between atoms: C_4  and  C_25
REMARK    4  A    between atoms: C_5  and  S_9
REMARK    5  A    between atoms: C_7  and  C_8
REMARK    6  A    between atoms: S_9  and  C_10
REMARK    7  A    between atoms: C_10  and  C_11
REMARK                            x       y       z     vdW  Elec       q    Type
REMARK                         _______ _______ _______ _____ _____    ______ ____
ROOT
ATOM      1  C   UNL     1       1.189  -2.212   0.007  0.00  0.00    +0.046 C 
ATOM      2  C   UNL     1       1.195  -0.705   0.009  0.00  0.00    -0.026 A 
ATOM      3  C   UNL     1       2.393  -0.013  -0.003  0.00  0.00    -0.031 A 
ATOM      4  C   UNL     1       2.353   1.386  -0.001  0.00  0.00    +0.071 A 
ATOM      5  C   UNL     1       1.101   2.027   0.014  0.00  0.00    +0.110 A 
ATOM      6  N   UNL     1      -0.016   1.314   0.025  0.00  0.00    -0.245 NA
ATOM      7  C   UNL     1       0.002  -0.004   0.023  0.00  0.00    +0.043 A 
ATOM      8  C   UNL     1      -1.301  -0.761   0.036  0.00  0.00    +0.066 C 
ATOM      9  C   UNL     1       3.709  -0.747  -0.018  0.00  0.00    +0.045 C 
ENDROOT
BRANCH   4  10
ATOM     10  C   UNL     1       3.599   2.173  -0.014  0.00  0.00    +0.244 C 
ATOM     11  O   UNL     1       4.101   2.499  -1.072  0.00  0.00    -0.270 OA
ATOM     12  N   UNL     1       4.182   2.531   1.147  0.00  0.00    -0.325 N 
ATOM     13  H   UNL     1       3.781   2.271   1.992  0.00  0.00    +0.145 HD
ATOM     14  H   UNL     1       5.002   3.049   1.139  0.00  0.00    +0.145 HD
ENDBRANCH   4  10
BRANCH   5  15
ATOM     15  S   UNL     1       1.018   3.787   0.017  0.00  0.00    -0.096 S 
BRANCH  15  16
ATOM     16  C   UNL     1      -0.778   4.017   0.037  0.00  0.00    +0.171 C 
BRANCH  16  17
ATOM     17  C   UNL     1      -1.096   5.490   0.042  0.00  0.00    +0.226 C 
ATOM     18  O   UNL     1      -0.197   6.304   0.033  0.00  0.00    -0.275 OA
ATOM     19  N   UNL     1      -2.379   5.902   0.057  0.00  0.00    -0.297 N 
ATOM     20  C   UNL     1      -3.484   4.937  -0.054  0.00  0.00    +0.108 C 
ATOM     21  C   UNL     1      -4.450   5.152   1.119  0.00  0.00    +0.019 C 
ATOM     22  C   UNL     1      -4.890   6.619   1.162  0.00  0.00    +0.007 C 
ATOM     23  C   UNL     1      -3.662   7.505   1.365  0.00  0.00    +0.010 C 
ATOM     24  C   UNL     1      -2.711   7.325   0.177  0.00  0.00    +0.079 C 
ATOM     25  C   UNL     1      -1.450   8.153   0.417  0.00  0.00    +0.023 C 
ATOM     26  C   UNL     1      -1.837   9.631   0.531  0.00  0.00    +0.002 C 
ATOM     27  C   UNL     1      -2.813   9.824   1.692  0.00  0.00    +0.000 C 
ATOM     28  C   UNL     1      -4.067   8.975   1.463  0.00  0.00    +0.005 C 
ENDBRANCH  16  17
ENDBRANCH  15  16
ENDBRANCH   5  15
TORSDOF 4
