REMARK  Name = ZINC10078632
REMARK  11 active torsions:
REMARK  status: ('A' for Active; 'I' for Inactive)
REMARK    1  A    between atoms: C_1  and  C_2
REMARK    2  A    between atoms: C_2  and  N_3
REMARK    3  A    between atoms: N_3  and  C_4
REMARK    4  A    between atoms: N_3  and  C_6
REMARK    5  A    between atoms: C_4  and  C_5
REMARK    6  A    between atoms: C_9  and  C_12
REMARK    7  A    between atoms: N_17  and  S_18
REMARK    8  A    between atoms: S_18  and  C_21
REMARK    9  A    between atoms: C_24  and  C_27
REMARK   10  A    between atoms: C_28  and  C_30
REMARK   11  A    between atoms: C_33  and  N_36
REMARK                            x       y       z     vdW  Elec       q    Type
REMARK                         _______ _______ _______ _____ _____    ______ ____
ROOT
ATOM      1  C   UNL     1       0.734  -5.561  -1.655  0.00  0.00    +0.199 C 
ATOM      2  N   UNL     1       1.935  -6.230  -1.136  0.00  0.00    -0.275 N 
ATOM      3  C   UNL     1       2.676  -6.720  -2.314  0.00  0.00    +0.127 C 
ATOM      4  C   UNL     1       2.290  -5.737  -3.437  0.00  0.00    +0.131 C 
ATOM      5  N   UNL     1       0.950  -5.253  -3.074  0.00  0.00    -0.150 NA
ATOM      6  C   UNL     1       2.289  -6.368   0.157  0.00  0.00    +0.248 C 
ATOM      7  O   UNL     1       1.547  -5.974   1.035  0.00  0.00    -0.270 OA
ENDROOT
BRANCH   1  11
ATOM      8  C   UNL     1       0.050  -1.948   0.518  0.00  0.00    +0.013 A 
ATOM      9  C   UNL     1      -0.952  -2.894   0.418  0.00  0.00    +0.022 A 
ATOM     10  C   UNL     1      -0.731  -4.063  -0.285  0.00  0.00    +0.008 A 
ATOM     11  C   UNL     1       0.492  -4.286  -0.889  0.00  0.00    -0.011 A 
ATOM     12  C   UNL     1       1.495  -3.339  -0.789  0.00  0.00    +0.008 A 
ATOM     13  C   UNL     1       1.272  -2.168  -0.090  0.00  0.00    +0.022 A 
BRANCH   8  14
ATOM     14  N   UNL     1      -0.173  -0.765   1.229  0.00  0.00    -0.394 NA
ATOM     15  H   UNL     1       0.656  -0.191   1.197  0.00  0.00    +0.126 HD
BRANCH  14  17
ATOM     16  C   UNL     1      -1.463   1.315   1.325  0.00  0.00    +0.022 C 
ATOM     17  C   UNL     1      -1.297  -0.036   0.626  0.00  0.00    +0.081 C 
ENDBRANCH  14  17
BRANCH  14  18
ATOM     18  C   UNL     1      -0.492  -1.087   2.627  0.00  0.00    +0.081 C 
ATOM     19  C   UNL     1       0.725  -1.735   3.291  0.00  0.00    +0.022 C 
ENDBRANCH  14  18
ENDBRANCH   8  14
ENDBRANCH   1  11
BRANCH   6  20
ATOM     20  C   UNL     1       3.580  -6.998   0.506  0.00  0.00    +0.037 A 
ATOM     21  C   UNL     1       4.174  -7.911  -0.366  0.00  0.00    +0.015 A 
ATOM     22  C   UNL     1       5.378  -8.495  -0.034  0.00  0.00    +0.033 A 
ATOM     23  C   UNL     1       5.998  -8.178   1.161  0.00  0.00    +0.126 A 
ATOM     24  C   UNL     1       5.415  -7.274   2.031  0.00  0.00    +0.033 A 
ATOM     25  C   UNL     1       4.214  -6.678   1.708  0.00  0.00    +0.015 A 
BRANCH  23  26
ATOM     26  N   UNL     1       7.291  -8.809   1.511  0.00  0.00    +0.056 N 
ATOM     27  O   UNL     1       7.803  -9.599   0.753  0.00  0.00    -0.126 OA
ATOM     28  O   UNL     1       7.835  -8.533   2.555  0.00  0.00    -0.126 OA
ENDBRANCH  23  26
ENDBRANCH   6  20
BRANCH   5  29
ATOM     29  S   UNL     1      -0.122  -4.496  -4.085  0.00  0.00    +0.063 S 
ATOM     30  O   UNL     1       0.128  -4.998  -5.390  0.00  0.00    -0.153 OA
ATOM     31  O   UNL     1      -1.397  -4.585  -3.465  0.00  0.00    -0.153 OA
BRANCH  29  32
ATOM     32  C   UNL     1       0.306  -2.787  -4.112  0.00  0.00    +0.106 A 
ATOM     33  C   UNL     1      -0.344  -1.898  -3.276  0.00  0.00    +0.029 A 
ATOM     34  C   UNL     1      -0.008  -0.557  -3.297  0.00  0.00    +0.005 A 
ATOM     35  C   UNL     1       0.978  -0.105  -4.155  0.00  0.00    -0.050 A 
ATOM     36  C   UNL     1       1.628  -0.994  -4.990  0.00  0.00    +0.005 A 
ATOM     37  C   UNL     1       1.295  -2.335  -4.965  0.00  0.00    +0.029 A 
ATOM     38  C   UNL     1       1.343   1.357  -4.179  0.00  0.00    +0.044 C 
ENDBRANCH  29  32
ENDBRANCH   5  29
TORSDOF 8
