REMARK  Name = ZINC39856775
REMARK  9 active torsions:
REMARK  status: ('A' for Active; 'I' for Inactive)
REMARK    1  A    between atoms: C_4  and  C_7
REMARK    2  A    between atoms: C_7  and  C_8
REMARK    3  A    between atoms: C_8  and  N_9
REMARK    4  A    between atoms: C_12  and  C_30
REMARK    5  A    between atoms: N_16  and  N_17
REMARK    6  A    between atoms: C_18  and  C_19
REMARK    7  A    between atoms: C_22  and  C_24
REMARK    8  A    between atoms: C_30  and  C_31
REMARK    9  A    between atoms: N_33  and  C_34
REMARK                            x       y       z     vdW  Elec       q    Type
REMARK                         _______ _______ _______ _____ _____    ______ ____
ROOT
ATOM      1  N   UNL     1       5.439  -1.687   1.383  0.00  0.00    -0.248 N 
ATOM      2  C   UNL     1       5.434  -3.009   1.376  0.00  0.00    +0.235 C 
ATOM      3  O   UNL     1       4.405  -3.650   1.385  0.00  0.00    -0.274 OA
ATOM      4  C   UNL     1       6.801  -3.675   1.354  0.00  0.00    +0.149 C 
ATOM      5  S   UNL     1       7.890  -2.191   1.348  0.00  0.00    -0.075 S 
ATOM      6  C   UNL     1       6.604  -0.951   1.366  0.00  0.00    +0.185 C 
ATOM      7  N   UNL     1       6.738   0.360   1.365  0.00  0.00    -0.126 NA
ENDROOT
BRANCH   7   8
ATOM      8  N   UNL     1       7.915   0.888   1.348  0.00  0.00    -0.152 NA
ATOM      9  C   UNL     1       8.048   2.191   1.348  0.00  0.00    +0.181 C 
BRANCH   9  10
ATOM     10  C   UNL     1       9.341   2.771   1.329  0.00  0.00    +0.148 A 
ATOM     11  C   UNL     1       9.624   4.122   1.332  0.00  0.00    +0.051 A 
ATOM     12  C   UNL     1      11.019   4.242   1.308  0.00  0.00    +0.050 A 
ATOM     13  C   UNL     1      11.531   2.978   1.292  0.00  0.00    +0.136 A 
ATOM     14  O   UNL     1      10.511   2.099   1.311  0.00  0.00    -0.454 OA
BRANCH  13  15
ATOM     15  C   UNL     1      12.965   2.632   1.265  0.00  0.00    +0.017 A 
ATOM     16  C   UNL     1      13.931   3.641   1.260  0.00  0.00    +0.011 A 
ATOM     17  C   UNL     1      15.270   3.310   1.234  0.00  0.00    +0.001 A 
ATOM     18  C   UNL     1      15.657   1.982   1.213  0.00  0.00    +0.000 A 
ATOM     19  C   UNL     1      14.706   0.977   1.219  0.00  0.00    +0.001 A 
ATOM     20  C   UNL     1      13.364   1.293   1.250  0.00  0.00    +0.011 A 
ENDBRANCH  13  15
ENDBRANCH   9  10
ENDBRANCH   7   8
BRANCH   1  21
ATOM     21  C   UNL     1       4.157  -0.978   1.403  0.00  0.00    +0.120 C 
BRANCH  21  22
ATOM     22  C   UNL     1       3.689  -0.729  -0.032  0.00  0.00    +0.054 C 
BRANCH  22  26
ATOM     23  C   UNL     1      -0.049   1.338   0.026  0.00  0.00    +0.000 A 
ATOM     24  C   UNL     1       1.135   2.051   0.010  0.00  0.00    +0.000 A 
ATOM     25  C   UNL     1       2.345   1.382  -0.008  0.00  0.00    +0.004 A 
ATOM     26  C   UNL     1       2.370   0.000  -0.011  0.00  0.00    -0.046 A 
ATOM     27  C   UNL     1       1.186  -0.713   0.005  0.00  0.00    +0.004 A 
ATOM     28  C   UNL     1      -0.024  -0.044   0.022  0.00  0.00    +0.000 A 
ENDBRANCH  22  26
ENDBRANCH  21  22
ENDBRANCH   1  21
BRANCH   4  29
ATOM     29  C   UNL     1       6.992  -4.509   0.086  0.00  0.00    +0.120 C 
BRANCH  29  30
ATOM     30  C   UNL     1       8.303  -5.247   0.162  0.00  0.00    +0.219 C 
ATOM     31  O   UNL     1       9.016  -5.118   1.135  0.00  0.00    -0.275 OA
ATOM     32  N   UNL     1       8.685  -6.050  -0.851  0.00  0.00    -0.285 N 
ATOM     33  H   UNL     1       8.086  -6.205  -1.598  0.00  0.00    +0.155 HD
BRANCH  32  34
ATOM     34  C   UNL     1       9.945  -6.659  -0.825  0.00  0.00    +0.033 A 
ATOM     35  C   UNL     1      10.654  -6.841  -2.005  0.00  0.00    +0.023 A 
ATOM     36  C   UNL     1      11.897  -7.443  -1.976  0.00  0.00    +0.002 A 
ATOM     37  C   UNL     1      12.435  -7.862  -0.773  0.00  0.00    +0.000 A 
ATOM     38  C   UNL     1      11.732  -7.682   0.403  0.00  0.00    +0.002 A 
ATOM     39  C   UNL     1      10.491  -7.076   0.382  0.00  0.00    +0.023 A 
ENDBRANCH  32  34
ENDBRANCH  29  30
ENDBRANCH   4  29
TORSDOF 9
