REMARK  Name = ZINC04886756
REMARK  11 active torsions:
REMARK  status: ('A' for Active; 'I' for Inactive)
REMARK    1  A    between atoms: C_1  and  N_68
REMARK    2  A    between atoms: C_8  and  O_34
REMARK    3  A    between atoms: C_10  and  C_12
REMARK    4  A    between atoms: C_17  and  O_32
REMARK    5  A    between atoms: C_18  and  O_30
REMARK    6  A    between atoms: C_20  and  C_22
REMARK    7  A    between atoms: C_20  and  O_29
REMARK    8  A    between atoms: C_22  and  C_23
REMARK    9  A    between atoms: O_30  and  C_31
REMARK   10  A    between atoms: O_32  and  C_33
REMARK   11  A    between atoms: O_34  and  C_35
REMARK                            x       y       z     vdW  Elec       q    Type
REMARK                         _______ _______ _______ _____ _____    ______ ____
ROOT
ATOM      1  C   UNL     1      -3.497  -0.023  -2.957  0.00  0.00    +0.143 C 
ATOM      2  C   UNL     1      -4.136  -1.339  -2.579  0.00  0.00    -0.008 A 
ATOM      3  C   UNL     1      -5.338  -1.925  -2.919  0.00  0.00    +0.010 A 
ATOM      4  C   UNL     1      -5.671  -3.168  -2.411  0.00  0.00    +0.050 A 
ATOM      5  C   UNL     1      -4.798  -3.827  -1.561  0.00  0.00    +0.162 A 
ATOM      6  C   UNL     1      -3.585  -3.236  -1.218  0.00  0.00    +0.170 A 
ATOM      7  C   UNL     1      -3.258  -1.993  -1.729  0.00  0.00    +0.062 A 
ATOM      8  C   UNL     1      -2.051  -1.101  -1.557  0.00  0.00    +0.202 C 
ATOM      9  O   UNL     1      -2.463   0.211  -1.981  0.00  0.00    -0.338 OA
ENDROOT
BRANCH   1  19
ATOM     10  C   UNL     1      -4.184   1.437  -0.538  0.00  0.00    -0.095 C 
ATOM     11  C   UNL     1      -6.284   2.073  -1.566  0.00  0.00    -0.074 C 
ATOM     12  C   UNL     1      -7.428   1.495  -2.401  0.00  0.00    +0.017 C 
ATOM     13  C   UNL     1      -6.911   1.058  -3.748  0.00  0.00    -0.040 A 
ATOM     14  C   UNL     1      -7.827   0.842  -4.767  0.00  0.00    +0.053 A 
ATOM     15  C   UNL     1      -7.402   0.437  -6.021  0.00  0.00    +0.170 A 
ATOM     16  C   UNL     1      -6.045   0.246  -6.259  0.00  0.00    +0.208 A 
ATOM     17  C   UNL     1      -5.131   0.464  -5.239  0.00  0.00    +0.167 A 
ATOM     18  C   UNL     1      -5.565   0.873  -3.981  0.00  0.00    -0.009 A 
ATOM     19  C   UNL     1      -4.534   1.101  -2.907  0.00  0.00    -0.000 C 
ATOM     20  O   UNL     1      -5.881  -0.149  -7.557  0.00  0.00    -0.449 OA
ATOM     21  C   UNL     1      -7.110   0.197  -8.222  0.00  0.00    +0.467 C 
ATOM     22  O   UNL     1      -8.090   0.163  -7.167  0.00  0.00    -0.452 OA
ATOM     23  N   UNL     1      -5.175   1.097  -1.582  0.00  0.00    +0.385 N 
ATOM     24  H   UNL     1      -5.550   0.160  -1.393  0.00  0.00    -0.081 HD
BRANCH  17  25
ATOM     25  O   UNL     1      -3.804   0.278  -5.468  0.00  0.00    -0.491 OA
ATOM     26  C   UNL     1      -3.069   1.397  -5.969  0.00  0.00    +0.277 C 
ENDBRANCH  17  25
ENDBRANCH   1  19
BRANCH   8  27
ATOM     27  O   UNL     1      -0.974  -1.567  -2.372  0.00  0.00    -0.361 OA
ATOM     28  H   UNL     1      -0.164  -1.045  -2.290  0.00  0.00    +0.213 HD
ENDBRANCH   8  27
BRANCH   6  29
ATOM     29  O   UNL     1      -2.724  -3.879  -0.384  0.00  0.00    -0.491 OA
ATOM     30  C   UNL     1      -2.868  -3.628   1.015  0.00  0.00    +0.277 C 
ENDBRANCH   6  29
BRANCH   5  31
ATOM     31  O   UNL     1      -5.126  -5.049  -1.061  0.00  0.00    -0.491 OA
ATOM     32  C   UNL     1      -6.386  -5.594  -1.456  0.00  0.00    +0.277 C 
ENDBRANCH   5  31
BRANCH   8  33
ATOM     33  C   UNL     1      -1.624  -1.070  -0.088  0.00  0.00    +0.105 C 
BRANCH  33  34
ATOM     34  C   UNL     1      -0.535  -0.044   0.097  0.00  0.00    -0.042 A 
ATOM     35  C   UNL     1      -0.861   1.263   0.404  0.00  0.00    +0.004 A 
ATOM     36  C   UNL     1       0.138   2.204   0.574  0.00  0.00    +0.000 A 
ATOM     37  C   UNL     1       1.463   1.837   0.435  0.00  0.00    +0.000 A 
ATOM     38  C   UNL     1       1.790   0.529   0.129  0.00  0.00    +0.000 A 
ATOM     39  C   UNL     1       0.791  -0.412  -0.040  0.00  0.00    +0.004 A 
ENDBRANCH  33  34
ENDBRANCH   8  33
TORSDOF 7
