REMARK  Name = ZINC14667009
REMARK  11 active torsions:
REMARK  status: ('A' for Active; 'I' for Inactive)
REMARK    1  A    between atoms: C_1  and  C_2
REMARK    2  A    between atoms: C_2  and  C_3
REMARK    3  A    between atoms: C_2  and  C_4
REMARK    4  A    between atoms: C_4  and  O_5
REMARK    5  A    between atoms: O_5  and  C_6
REMARK    6  A    between atoms: C_11  and  C_12
REMARK    7  A    between atoms: N_14  and  N_15
REMARK    8  A    between atoms: C_16  and  C_18
REMARK    9  A    between atoms: C_18  and  O_19
REMARK   10  A    between atoms: O_19  and  C_20
REMARK   11  A    between atoms: C_23  and  C_26
REMARK                            x       y       z     vdW  Elec       q    Type
REMARK                         _______ _______ _______ _____ _____    ______ ____
ROOT
ATOM      1  N   UNL     1       3.587   6.023  -0.002  0.00  0.00    -0.231 N 
ATOM      2  C   UNL     1       3.559   7.370   0.005  0.00  0.00    +0.267 C 
ATOM      3  O   UNL     1       2.496   7.955   0.019  0.00  0.00    -0.271 OA
ATOM      4  H   UNL     1       4.437   5.556  -0.012  0.00  0.00    +0.173 HD
ENDROOT
BRANCH   1   7
ATOM      5  C   UNL     1       2.417   3.950  -0.001  0.00  0.00    +0.264 C 
ATOM      6  O   UNL     1       3.482   3.364  -0.014  0.00  0.00    -0.269 OA
ATOM      7  N   UNL     1       2.389   5.297   0.006  0.00  0.00    -0.230 N 
ATOM      8  H   UNL     1       1.539   5.765   0.017  0.00  0.00    +0.173 HD
BRANCH   5  14
ATOM      9  C   UNL     1       1.180   1.785   0.000  0.00  0.00    +0.133 A 
ATOM     10  C   UNL     1      -0.013   1.076   0.008  0.00  0.00    +0.047 A 
ATOM     11  C   UNL     1      -1.218   1.749   0.017  0.00  0.00    +0.019 A 
ATOM     12  C   UNL     1      -1.247   3.135   0.030  0.00  0.00    +0.019 A 
ATOM     13  C   UNL     1      -0.071   3.855   0.022  0.00  0.00    +0.032 A 
ATOM     14  C   UNL     1       1.155   3.186   0.008  0.00  0.00    +0.081 A 
ATOM     15 BR   UNL     1      -2.906   4.041   0.050  0.00  0.00    -0.050 Br
BRANCH   9  16
ATOM     16  O   UNL     1       2.365   1.124  -0.015  0.00  0.00    -0.491 OA
BRANCH  16  17
ATOM     17  C   UNL     1       2.312  -0.304  -0.022  0.00  0.00    +0.232 C 
BRANCH  17  19
ATOM     18  C   UNL     1       4.445  -0.495   1.264  0.00  0.00    +0.010 C 
ATOM     19  C   UNL     1       3.734  -0.867  -0.038  0.00  0.00    +0.020 C 
ATOM     20  C   UNL     1       3.678  -2.390  -0.172  0.00  0.00    +0.010 C 
ENDBRANCH  17  19
ENDBRANCH  16  17
ENDBRANCH   9  16
ENDBRANCH   5  14
ENDBRANCH   1   7
BRANCH   2  21
ATOM     21  C   UNL     1       4.848   8.151  -0.003  0.00  0.00    +0.326 C 
BRANCH  21  22
ATOM     22  O   UNL     1       4.558   9.550   0.007  0.00  0.00    -0.483 OA
BRANCH  22  23
ATOM     23  C   UNL     1       5.618  10.400   0.001  0.00  0.00    +0.121 A 
ATOM     24  C   UNL     1       6.911   9.895  -0.009  0.00  0.00    +0.046 A 
ATOM     25  C   UNL     1       7.989  10.755  -0.021  0.00  0.00    +0.012 A 
ATOM     26  C   UNL     1       7.779  12.133  -0.012  0.00  0.00    -0.018 A 
ATOM     27  C   UNL     1       6.479  12.638   0.003  0.00  0.00    +0.012 A 
ATOM     28  C   UNL     1       5.405  11.772   0.009  0.00  0.00    +0.046 A 
BRANCH  26  29
ATOM     29  C   UNL     1       8.936  13.062  -0.018  0.00  0.00    -0.018 A 
ATOM     30  C   UNL     1       8.727  14.439  -0.014  0.00  0.00    +0.008 A 
ATOM     31  C   UNL     1       9.808  15.298  -0.016  0.00  0.00    +0.001 A 
ATOM     32  C   UNL     1      11.096  14.794  -0.031  0.00  0.00    +0.000 A 
ATOM     33  C   UNL     1      11.309  13.427  -0.039  0.00  0.00    +0.001 A 
ATOM     34  C   UNL     1      10.236  12.559  -0.033  0.00  0.00    +0.008 A 
ENDBRANCH  26  29
ENDBRANCH  22  23
ENDBRANCH  21  22
ENDBRANCH   2  21
TORSDOF 9
