REMARK  Name = ZINC12048890
REMARK  8 active torsions:
REMARK  status: ('A' for Active; 'I' for Inactive)
REMARK    1  A    between atoms: C_1  and  C_2
REMARK    2  A    between atoms: C_2  and  C_4
REMARK    3  A    between atoms: C_2  and  N_61
REMARK    4  A    between atoms: N_6  and  C_7
REMARK    5  A    between atoms: C_7  and  C_8
REMARK    6  A    between atoms: C_15  and  C_22
REMARK    7  A    between atoms: C_25  and  C_27
REMARK    8  A    between atoms: C_27  and  C_29
REMARK                            x       y       z     vdW  Elec       q    Type
REMARK                         _______ _______ _______ _____ _____    ______ ____
ROOT
ATOM      1  C   UNL     1      -0.867   1.308  -1.219  0.00  0.00    +0.195 C 
ATOM      2  C   UNL     1      -0.123   0.885  -2.507  0.00  0.00    +0.085 C 
ATOM      3  C   UNL     1      -0.547   1.968  -3.481  0.00  0.00    +0.006 A 
ATOM      4  C   UNL     1      -0.481   2.053  -4.877  0.00  0.00    -0.011 A 
ATOM      5  C   UNL     1       0.078   1.015  -5.645  0.00  0.00    +0.009 A 
ATOM      6  C   UNL     1       0.129   1.121  -6.997  0.00  0.00    +0.009 A 
ATOM      7  C   UNL     1      -0.372   2.261  -7.650  0.00  0.00    -0.011 A 
ATOM      8  C   UNL     1      -0.930   3.300  -6.923  0.00  0.00    +0.017 A 
ATOM      9  C   UNL     1      -0.991   3.208  -5.525  0.00  0.00    -0.017 A 
ATOM     10  C   UNL     1      -1.549   4.241  -4.750  0.00  0.00    +0.012 A 
ATOM     11  C   UNL     1      -1.591   4.132  -3.398  0.00  0.00    +0.046 A 
ATOM     12  C   UNL     1      -1.087   2.997  -2.740  0.00  0.00    +0.125 A 
ATOM     13  O   UNL     1      -1.040   2.723  -1.406  0.00  0.00    -0.487 OA
ENDROOT
BRANCH   7  14
ATOM     14  C   UNL     1      -0.304   2.351  -9.123  0.00  0.00    +0.020 A 
ATOM     15  C   UNL     1       0.209   1.433 -10.029  0.00  0.00    +0.017 A 
ATOM     16  C   UNL     1       0.167   1.730 -11.359  0.00  0.00    +0.019 A 
ATOM     17  C   UNL     1      -0.390   2.944 -11.755  0.00  0.00    +0.055 A 
ATOM     18  S   UNL     1      -0.867   3.665 -10.192  0.00  0.00    -0.085 S 
BRANCH  17  19
ATOM     19  C   UNL     1      -0.544   3.467 -13.055  0.00  0.00    +0.167 C 
ATOM     20  O   UNL     1      -0.162   2.828 -14.016  0.00  0.00    -0.292 OA
ATOM     21  C   UNL     1      -1.182   4.818 -13.254  0.00  0.00    +0.092 C 
ENDBRANCH  17  19
ENDBRANCH   7  14
BRANCH   1  22
ATOM     22  C   UNL     1      -0.013   1.024   0.019  0.00  0.00    +0.149 C 
BRANCH  22  25
ATOM     23  C   UNL     1      -0.179   1.288   2.436  0.00  0.00    +0.199 C 
ATOM     24  O   UNL     1       0.927   0.802   2.535  0.00  0.00    -0.278 OA
ATOM     25  N   UNL     1      -0.741   1.443   1.220  0.00  0.00    -0.313 N 
ATOM     26  H   UNL     1      -1.626   1.831   1.140  0.00  0.00    +0.149 HD
BRANCH  23  28
ATOM     27  C   UNL     1      -0.902   3.244   3.777  0.00  0.00    -0.004 C 
ATOM     28  C   UNL     1      -0.927   1.718   3.671  0.00  0.00    +0.016 C 
BRANCH  28  34
ATOM     29  C   UNL     1      -1.179   1.211   6.026  0.00  0.00    -0.049 C 
ATOM     30  C   UNL     1      -0.499   0.540   7.223  0.00  0.00    +0.141 C 
ATOM     31  O   UNL     1       0.763   1.168   7.462  0.00  0.00    -0.383 OA
ATOM     32  C   UNL     1       1.655   1.112   6.346  0.00  0.00    +0.141 C 
ATOM     33  C   UNL     1       0.997   1.789   5.140  0.00  0.00    -0.049 C 
ATOM     34  N   UNL     1      -0.283   1.108   4.855  0.00  0.00    +0.390 N 
ATOM     35  H   UNL     1      -0.099   0.117   4.660  0.00  0.00    -0.081 HD
ENDBRANCH  28  34
ENDBRANCH  23  28
ENDBRANCH  22  25
ENDBRANCH   1  22
TORSDOF 6
