REMARK  Name = ZINC24605373
REMARK  8 active torsions:
REMARK  status: ('A' for Active; 'I' for Inactive)
REMARK    1  A    between atoms: C_1  and  C_2
REMARK    2  A    between atoms: C_2  and  S_3
REMARK    3  A    between atoms: S_3  and  C_4
REMARK    4  A    between atoms: C_9  and  C_19
REMARK    5  A    between atoms: C_21  and  O_28
REMARK    6  A    between atoms: C_22  and  O_26
REMARK    7  A    between atoms: O_26  and  C_27
REMARK    8  A    between atoms: O_28  and  C_29
REMARK                            x       y       z     vdW  Elec       q    Type
REMARK                         _______ _______ _______ _____ _____    ______ ____
ROOT
ATOM      1  C   UNL     1      -4.349   0.429   0.940  0.00  0.00    +0.210 A 
ATOM      2  N   UNL     1      -3.498  -0.580   0.704  0.00  0.00    -0.187 NA
ATOM      3  C   UNL     1      -2.335  -0.097   0.361  0.00  0.00    +0.219 A 
ATOM      4  N   UNL     1      -2.422   1.256   0.365  0.00  0.00    -0.220 N 
ATOM      5  N   UNL     1      -3.726   1.571   0.744  0.00  0.00    -0.141 NA
ATOM      6  C   UNL     1      -1.309   2.132   0.020  0.00  0.00    +0.176 C 
ATOM      7  C   UNL     1      -0.016   1.346   0.009  0.00  0.00    +0.041 C 
ATOM      8  C   UNL     1       0.002  -0.004   0.002  0.00  0.00    +0.020 C 
ATOM      9  N   UNL     1      -1.155  -0.744   0.032  0.00  0.00    -0.287 N 
ATOM     10  C   UNL     1       1.308  -0.762  -0.034  0.00  0.00    +0.052 C 
ATOM     11  C   UNL     1       2.388   0.041   0.695  0.00  0.00    +0.014 C 
ATOM     12  C   UNL     1       2.522   1.404   0.006  0.00  0.00    +0.080 C 
ATOM     13  C   UNL     1       1.181   2.083   0.002  0.00  0.00    +0.163 C 
ATOM     14  O   UNL     1       1.131   3.298  -0.009  0.00  0.00    -0.292 OA
ATOM     15  H   UNL     1      -1.164  -1.821  -0.196  0.00  0.00    +0.155 HD
ENDROOT
BRANCH   6  16
ATOM     16  C   UNL     1      -1.542   2.729  -1.344  0.00  0.00    -0.014 A 
ATOM     17  C   UNL     1      -1.638   4.101  -1.490  0.00  0.00    +0.055 A 
ATOM     18  C   UNL     1      -1.852   4.652  -2.743  0.00  0.00    +0.163 A 
ATOM     19  C   UNL     1      -1.969   3.822  -3.854  0.00  0.00    +0.175 A 
ATOM     20  C   UNL     1      -1.872   2.447  -3.701  0.00  0.00    +0.063 A 
ATOM     21  C   UNL     1      -1.653   1.904  -2.448  0.00  0.00    +0.025 A 
ATOM     22 BR   UNL     1      -2.031   1.315  -5.208  0.00  0.00    -0.046 Br
BRANCH  19  23
ATOM     23  O   UNL     1      -2.179   4.358  -5.086  0.00  0.00    -0.490 OA
ATOM     24  C   UNL     1      -1.022   4.682  -5.858  0.00  0.00    +0.277 C 
ENDBRANCH  19  23
BRANCH  18  25
ATOM     25  O   UNL     1      -1.946   6.000  -2.887  0.00  0.00    -0.491 OA
ATOM     26  C   UNL     1      -1.816   6.790  -1.704  0.00  0.00    +0.277 C 
ENDBRANCH  18  25
ENDBRANCH   6  16
BRANCH   1  27
ATOM     27  S   UNL     1      -6.032   0.253   1.432  0.00  0.00    -0.085 S 
BRANCH  27  29
ATOM     28  C   UNL     1      -7.717  -1.839   1.949  0.00  0.00    +0.016 C 
ATOM     29  C   UNL     1      -6.277  -1.542   1.526  0.00  0.00    +0.074 C 
ENDBRANCH  27  29
ENDBRANCH   1  27
TORSDOF 5
