REMARK  Name = ZINC38547740
REMARK  9 active torsions:
REMARK  status: ('A' for Active; 'I' for Inactive)
REMARK    1  A    between atoms: C_1  and  C_2
REMARK    2  A    between atoms: C_6  and  N_8
REMARK    3  A    between atoms: N_8  and  C_9
REMARK    4  A    between atoms: C_9  and  C_11
REMARK    5  A    between atoms: C_9  and  C_16
REMARK    6  A    between atoms: C_17  and  C_30
REMARK    7  A    between atoms: C_18  and  C_29
REMARK    8  A    between atoms: C_20  and  N_21
REMARK    9  A    between atoms: C_22  and  C_24
REMARK                            x       y       z     vdW  Elec       q    Type
REMARK                         _______ _______ _______ _____ _____    ______ ____
ROOT
ATOM      1  C   UNL     1       0.272  -4.339   2.372  0.00  0.00    +0.135 C 
ENDROOT
BRANCH   1   2
ATOM      2  C   UNL     1      -0.541  -4.824   3.544  0.00  0.00    +0.009 A 
ATOM      3  C   UNL     1      -1.562  -5.739   3.362  0.00  0.00    -0.033 A 
ATOM      4  C   UNL     1      -2.273  -6.155   4.437  0.00  0.00    -0.008 A 
ATOM      5  S   UNL     1      -1.504  -5.247   5.767  0.00  0.00    -0.078 S 
ATOM      6  C   UNL     1      -0.280  -4.374   4.803  0.00  0.00    +0.078 A 
ATOM      7  C   UNL     1      -3.419  -7.133   4.495  0.00  0.00    +0.052 C 
ATOM      8  C   UNL     1      -1.879  -6.266   1.986  0.00  0.00    +0.045 C 
BRANCH   6   9
ATOM      9  N   UNL     1       0.690  -3.466   5.229  0.00  0.00    -0.273 N 
ATOM     10  C   UNL     1       0.814  -3.177   6.540  0.00  0.00    +0.284 C 
ATOM     11  O   UNL     1       0.080  -3.708   7.353  0.00  0.00    -0.266 OA
ATOM     12  H   UNL     1       1.276  -3.042   4.582  0.00  0.00    +0.156 HD
BRANCH  10  13
ATOM     13  C   UNL     1       1.834  -2.223   6.987  0.00  0.00    +0.189 A 
ATOM     14  C   UNL     1       2.069  -1.847   8.279  0.00  0.00    +0.054 A 
ATOM     15  C   UNL     1       3.126  -0.924   8.244  0.00  0.00    +0.042 A 
ATOM     16  C   UNL     1       3.485  -0.779   6.950  0.00  0.00    +0.196 A 
ATOM     17  O   UNL     1       2.708  -1.567   6.196  0.00  0.00    -0.458 OA
ENDBRANCH  10  13
ENDBRANCH   6   9
ENDBRANCH   1   2
BRANCH   1  18
ATOM     18  C   UNL     1       1.621  -5.010   2.384  0.00  0.00    -0.016 A 
ATOM     19  C   UNL     1       1.826  -6.186   1.688  0.00  0.00    +0.013 A 
ATOM     20  C   UNL     1       3.051  -6.764   1.719  0.00  0.00    +0.045 A 
ATOM     21  S   UNL     1       3.966  -5.635   2.757  0.00  0.00    -0.105 S 
ATOM     22  C   UNL     1       2.654  -4.466   3.074  0.00  0.00    +0.051 A 
ENDBRANCH   1  18
BRANCH   1  23
ATOM     23  N   UNL     1       0.448  -2.887   2.468  0.00  0.00    -0.320 N 
ATOM     24  H   UNL     1       0.309  -2.437   3.315  0.00  0.00    +0.148 HD
BRANCH  23  30
ATOM     25  C   UNL     1       1.482   1.376   0.552  0.00  0.00    +0.063 C 
ATOM     26  C   UNL     1       1.316  -0.113   0.394  0.00  0.00    +0.014 A 
ATOM     27  C   UNL     1       1.528  -0.695  -0.840  0.00  0.00    +0.021 A 
ATOM     28  C   UNL     1       1.373  -2.068  -0.980  0.00  0.00    +0.005 A 
ATOM     29  C   UNL     1       1.010  -2.808   0.131  0.00  0.00    +0.041 A 
ATOM     30  C   UNL     1       0.813  -2.156   1.343  0.00  0.00    +0.097 A 
ATOM     31  N   UNL     1       0.975  -0.845   1.438  0.00  0.00    -0.347 N 
ATOM     32  H   UNL     1       0.837  -0.411   2.294  0.00  0.00    +0.167 HD
ENDBRANCH  23  30
ENDBRANCH   1  23
TORSDOF 6
