REMARK  Name = ZINC10001275
REMARK  15 active torsions:
REMARK  status: ('A' for Active; 'I' for Inactive)
REMARK    1  A    between atoms: C_1  and  C_2
REMARK    2  A    between atoms: C_2  and  O_3
REMARK    3  A    between atoms: O_3  and  C_4
REMARK    4  A    between atoms: C_6  and  C_15
REMARK    5  A    between atoms: C_9  and  O_10
REMARK    6  A    between atoms: O_10  and  C_11
REMARK    7  A    between atoms: C_11  and  C_12
REMARK    8  A    between atoms: C_11  and  C_13
REMARK    9  A    between atoms: N_16  and  N_17
REMARK   10  A    between atoms: C_18  and  C_20
REMARK   11  A    between atoms: C_20  and  C_22
REMARK   12  A    between atoms: C_20  and  N_25
REMARK   13  A    between atoms: C_22  and  C_23
REMARK   14  A    between atoms: C_22  and  C_24
REMARK   15  A    between atoms: C_26  and  C_28
REMARK                            x       y       z     vdW  Elec       q    Type
REMARK                         _______ _______ _______ _____ _____    ______ ____
ROOT
ATOM      1  N   UNL     1       8.215  -2.623   0.519  0.00  0.00    -0.205 N 
ATOM      2  C   UNL     1       8.595  -3.731  -0.147  0.00  0.00    +0.253 C 
ATOM      3  O   UNL     1       7.762  -4.537  -0.507  0.00  0.00    -0.272 OA
ATOM      4  H   UNL     1       8.885  -2.013   0.866  0.00  0.00    +0.177 HD
ENDROOT
BRANCH   1   6
ATOM      5  C   UNL     1       6.489  -1.283   1.351  0.00  0.00    +0.138 C 
ATOM      6  N   UNL     1       6.854  -2.351   0.710  0.00  0.00    -0.188 NA
BRANCH   5   9
ATOM      7  C   UNL     1       3.317   0.415   2.427  0.00  0.00    +0.164 A 
ATOM      8  C   UNL     1       4.662   0.151   2.241  0.00  0.00    +0.059 A 
ATOM      9  C   UNL     1       5.057  -0.998   1.551  0.00  0.00    -0.001 A 
ATOM     10  C   UNL     1       4.091  -1.875   1.052  0.00  0.00    +0.028 A 
ATOM     11  C   UNL     1       2.751  -1.609   1.247  0.00  0.00    +0.064 A 
ATOM     12  C   UNL     1       2.360  -0.465   1.928  0.00  0.00    +0.176 A 
ATOM     13 BR   UNL     1       1.446  -2.802   0.578  0.00  0.00    -0.046 Br
BRANCH   7  14
ATOM     14  O   UNL     1       2.930   1.532   3.098  0.00  0.00    -0.489 OA
BRANCH  14  16
ATOM     15  C   UNL     1       3.341   3.585   4.305  0.00  0.00    +0.048 C 
ATOM     16  C   UNL     1       3.965   2.390   3.583  0.00  0.00    +0.226 C 
ENDBRANCH  14  16
ENDBRANCH   7  14
BRANCH  12  17
ATOM     17  O   UNL     1       1.038  -0.204   2.112  0.00  0.00    -0.485 OA
BRANCH  17  18
ATOM     18  C   UNL     1       0.382   0.569   1.105  0.00  0.00    +0.168 C 
ATOM     19  C   UNL     1       0.486   2.055   1.456  0.00  0.00    +0.051 C 
ATOM     20  C   UNL     1      -1.091   0.164   1.030  0.00  0.00    +0.051 C 
ENDBRANCH  17  18
ENDBRANCH  12  17
ENDBRANCH   5   9
ENDBRANCH   1   6
BRANCH   2  21
ATOM     21  C   UNL     1      10.053  -3.970  -0.444  0.00  0.00    +0.163 C 
BRANCH  21  22
ATOM     22  N   UNL     1      10.302  -5.411  -0.539  0.00  0.00    -0.300 N 
ATOM     23  C   UNL     1      11.534  -5.899  -0.296  0.00  0.00    +0.247 C 
ATOM     24  O   UNL     1      12.439  -5.144   0.002  0.00  0.00    -0.270 OA
ATOM     25  H   UNL     1       9.580  -6.013  -0.777  0.00  0.00    +0.150 HD
BRANCH  23  26
ATOM     26  C   UNL     1      11.786  -7.351  -0.393  0.00  0.00    +0.072 A 
ATOM     27  C   UNL     1      10.747  -8.222  -0.730  0.00  0.00    +0.016 A 
ATOM     28  C   UNL     1      10.990  -9.576  -0.823  0.00  0.00    +0.001 A 
ATOM     29  C   UNL     1      12.257 -10.076  -0.573  0.00  0.00    +0.003 A 
ATOM     30  C   UNL     1      13.290  -9.223  -0.234  0.00  0.00    +0.039 A 
ATOM     31  C   UNL     1      13.063  -7.861  -0.142  0.00  0.00    +0.135 A 
ATOM     32  F   UNL     1      14.073  -7.027   0.191  0.00  0.00    -0.205 F 
ENDBRANCH  23  26
ENDBRANCH  21  22
BRANCH  21  33
ATOM     33  C   UNL     1      10.419  -3.300  -1.769  0.00  0.00    +0.012 C 
ATOM     34  C   UNL     1      10.207  -1.790  -1.653  0.00  0.00    +0.009 C 
ATOM     35  C   UNL     1      11.886  -3.586  -2.096  0.00  0.00    +0.009 C 
ENDBRANCH  21  33
ENDBRANCH   2  21
TORSDOF 10
