REMARK  Name = ZINC12022196
REMARK  6 active torsions:
REMARK  status: ('A' for Active; 'I' for Inactive)
REMARK    1  A    between atoms: C_1  and  O_2
REMARK    2  A    between atoms: O_2  and  C_3
REMARK    3  A    between atoms: C_5  and  N_30
REMARK    4  A    between atoms: C_18  and  C_19
REMARK    5  A    between atoms: C_18  and  N_64
REMARK    6  A    between atoms: C_31  and  C_33
REMARK                            x       y       z     vdW  Elec       q    Type
REMARK                         _______ _______ _______ _____ _____    ______ ____
ROOT
ATOM      1  C   UNL     1       1.679   5.500   0.448  0.00  0.00    +0.153 C 
ATOM      2  C   UNL     1       2.303   4.160   0.000  0.00  0.00    +0.133 C 
ATOM      3  C   UNL     1       1.160   3.168   0.007  0.00  0.00    -0.021 A 
ATOM      4  C   UNL     1       1.173   1.784   0.000  0.00  0.00    +0.006 A 
ATOM      5  C   UNL     1      -0.013   1.076   0.008  0.00  0.00    +0.000 A 
ATOM      6  C   UNL     1      -1.219   1.752   0.017  0.00  0.00    +0.000 A 
ATOM      7  C   UNL     1      -1.235   3.132   0.030  0.00  0.00    +0.004 A 
ATOM      8  C   UNL     1      -0.047   3.845   0.022  0.00  0.00    -0.034 A 
ATOM      9  C   UNL     1       0.208   5.333   0.027  0.00  0.00    +0.021 C 
ATOM     10  C   UNL     1      -0.004   5.914  -1.368  0.00  0.00    -0.005 C 
ATOM     11  C   UNL     1       0.236   7.426  -1.328  0.00  0.00    -0.077 C 
ATOM     12  C   UNL     1      -0.443   7.536   0.997  0.00  0.00    -0.077 C 
ATOM     13  C   UNL     1      -0.705   6.027   1.034  0.00  0.00    -0.005 C 
ATOM     14  N   UNL     1      -0.710   8.036  -0.369  0.00  0.00    +0.383 N 
ATOM     15  H   UNL     1      -1.667   7.777  -0.636  0.00  0.00    -0.081 HD
ENDROOT
BRANCH   2  16
ATOM     16  N   UNL     1       2.860   4.285  -1.349  0.00  0.00    -0.299 N 
ATOM     17  C   UNL     1       3.817   3.432  -1.765  0.00  0.00    +0.280 C 
ATOM     18  O   UNL     1       4.219   2.558  -1.019  0.00  0.00    -0.267 OA
ATOM     19  H   UNL     1       2.539   4.981  -1.944  0.00  0.00    +0.150 HD
BRANCH  17  20
ATOM     20  C   UNL     1       4.374   3.556  -3.116  0.00  0.00    +0.189 A 
ATOM     21  C   UNL     1       5.347   2.766  -3.659  0.00  0.00    +0.054 A 
ATOM     22  C   UNL     1       5.568   3.237  -4.962  0.00  0.00    +0.042 A 
ATOM     23  C   UNL     1       4.738   4.286  -5.152  0.00  0.00    +0.196 A 
ATOM     24  O   UNL     1       4.020   4.475  -4.038  0.00  0.00    -0.458 OA
ENDBRANCH  17  20
ENDBRANCH   2  16
BRANCH   1  26
ATOM     25  C   UNL     1       2.970   6.349   2.280  0.00  0.00    +0.194 C 
ATOM     26  O   UNL     1       1.788   5.664   1.863  0.00  0.00    -0.377 OA
ENDBRANCH   1  26
BRANCH  14  27
ATOM     27  C   UNL     1      -0.584   9.507  -0.401  0.00  0.00    -0.022 C 
BRANCH  27  28
ATOM     28  C   UNL     1      -0.588   9.972  -1.834  0.00  0.00    +0.026 A 
ATOM     29  C   UNL     1      -1.792  10.363  -2.417  0.00  0.00    +0.022 A 
ATOM     30  C   UNL     1      -1.815  10.787  -3.715  0.00  0.00    +0.012 A 
ATOM     31  C   UNL     1      -0.601  10.812  -4.427  0.00  0.00    +0.003 A 
ATOM     32  C   UNL     1      -0.547  11.236  -5.765  0.00  0.00    +0.010 A 
ATOM     33  C   UNL     1       0.646  11.247  -6.420  0.00  0.00    +0.004 A 
ATOM     34  C   UNL     1       1.817  10.843  -5.782  0.00  0.00    +0.040 A 
ATOM     35  C   UNL     1       1.802  10.426  -4.485  0.00  0.00    +0.149 A 
ATOM     36  C   UNL     1       0.587  10.401  -3.774  0.00  0.00    +0.106 A 
ATOM     37  N   UNL     1       0.541  10.002  -2.499  0.00  0.00    -0.251 NA
ATOM     38  F   UNL     1       2.948  10.037  -3.884  0.00  0.00    -0.203 F 
ENDBRANCH  27  28
ENDBRANCH  14  27
TORSDOF 5
