REMARK  Name = ZINC14473557
REMARK  6 active torsions:
REMARK  status: ('A' for Active; 'I' for Inactive)
REMARK    1  A    between atoms: C_1  and  C_2
REMARK    2  A    between atoms: C_2  and  N_3
REMARK    3  A    between atoms: N_3  and  C_4
REMARK    4  A    between atoms: C_10  and  C_12
REMARK    5  A    between atoms: C_25  and  C_28
REMARK    6  A    between atoms: C_30  and  N_35
REMARK                            x       y       z     vdW  Elec       q    Type
REMARK                         _______ _______ _______ _____ _____    ______ ____
ROOT
ATOM      1  C   UNL     1       1.153  -4.929  -1.326  0.00  0.00    +0.038 A 
ATOM      2  C   UNL     1      -0.142  -5.183  -1.790  0.00  0.00    +0.015 A 
ATOM      3  C   UNL     1      -1.220  -4.673  -1.105  0.00  0.00    +0.024 A 
ATOM      4  C   UNL     1      -1.024  -3.909   0.043  0.00  0.00    +0.031 A 
ATOM      5  C   UNL     1       0.259  -3.650   0.513  0.00  0.00    -0.019 A 
ATOM      6  C   UNL     1       1.343  -4.163  -0.176  0.00  0.00    +0.019 A 
ATOM      7  C   UNL     1       0.511  -2.834   1.741  0.00  0.00    +0.049 C 
ATOM      8  C   UNL     1       0.900  -3.717   2.902  0.00  0.00    -0.023 C 
ATOM      9  C   UNL     1       0.392  -3.251   4.017  0.00  0.00    -0.030 C 
ATOM     10  C   UNL     1      -0.402  -1.986   3.750  0.00  0.00    +0.033 C 
ATOM     11  C   UNL     1      -0.744  -2.089   2.235  0.00  0.00    +0.029 C 
ATOM     12  C   UNL     1      -1.972  -2.995   2.106  0.00  0.00    +0.106 C 
ATOM     13  N   UNL     1      -2.128  -3.387   0.702  0.00  0.00    -0.336 N 
ATOM     14  H   UNL     1      -2.985  -3.300   0.254  0.00  0.00    +0.147 HD
ENDROOT
BRANCH  12  15
ATOM     15  C   UNL     1      -1.782  -4.226   2.955  0.00  0.00    -0.007 A 
ATOM     16  C   UNL     1      -1.048  -5.292   2.472  0.00  0.00    +0.039 A 
ATOM     17  C   UNL     1      -0.874  -6.421   3.251  0.00  0.00    +0.127 A 
ATOM     18  C   UNL     1      -1.435  -6.484   4.513  0.00  0.00    +0.034 A 
ATOM     19  C   UNL     1      -2.170  -5.418   4.997  0.00  0.00    +0.022 A 
ATOM     20  C   UNL     1      -2.344  -4.288   4.218  0.00  0.00    +0.046 A 
ATOM     21 CL   UNL     1      -3.260  -2.946   4.828  0.00  0.00    -0.083 Cl
BRANCH  17  22
ATOM     22  N   UNL     1      -0.086  -7.562   2.733  0.00  0.00    +0.056 N 
ATOM     23  O   UNL     1       0.408  -7.507   1.621  0.00  0.00    -0.126 OA
ATOM     24  O   UNL     1       0.067  -8.557   3.419  0.00  0.00    -0.126 OA
ENDBRANCH  17  22
ENDBRANCH  12  15
BRANCH   1  26
ATOM     25  N   UNL     1       2.349  -6.773  -2.398  0.00  0.00    -0.268 N 
ATOM     26  C   UNL     1       2.317  -5.470  -2.053  0.00  0.00    +0.251 C 
ATOM     27  O   UNL     1       3.246  -4.742  -2.341  0.00  0.00    -0.270 OA
BRANCH  25  28
ATOM     28  C   UNL     1       3.510  -7.320  -2.952  0.00  0.00    +0.037 A 
ATOM     29  C   UNL     1       3.499  -8.617  -3.451  0.00  0.00    +0.023 A 
ATOM     30  C   UNL     1       4.646  -9.152  -4.004  0.00  0.00    +0.002 A 
ATOM     31  C   UNL     1       5.807  -8.404  -4.050  0.00  0.00    +0.000 A 
ATOM     32  C   UNL     1       5.824  -7.115  -3.549  0.00  0.00    +0.002 A 
ATOM     33  C   UNL     1       4.679  -6.571  -3.001  0.00  0.00    +0.023 A 
ENDBRANCH  25  28
BRANCH  25  35
ATOM     34  C   UNL     1       0.444  -7.813  -3.524  0.00  0.00    +0.025 C 
ATOM     35  C   UNL     1       1.168  -7.615  -2.191  0.00  0.00    +0.110 C 
ENDBRANCH  25  35
ENDBRANCH   1  26
TORSDOF 5
