REMARK  Name = ZINC13134963
REMARK  10 active torsions:
REMARK  status: ('A' for Active; 'I' for Inactive)
REMARK    1  A    between atoms: C_1  and  C_2
REMARK    2  A    between atoms: C_2  and  O_3
REMARK    3  A    between atoms: O_3  and  C_4
REMARK    4  A    between atoms: C_4  and  C_6
REMARK    5  A    between atoms: C_7  and  C_29
REMARK    6  A    between atoms: C_13  and  C_17
REMARK    7  A    between atoms: C_18  and  C_19
REMARK    8  A    between atoms: C_21  and  O_27
REMARK    9  A    between atoms: C_22  and  O_26
REMARK   10  A    between atoms: O_27  and  C_28
REMARK                            x       y       z     vdW  Elec       q    Type
REMARK                         _______ _______ _______ _____ _____    ______ ____
ROOT
ATOM      1  C   UNL     1       5.731  -2.537  -0.065  0.00  0.00    +0.102 A 
ATOM      2  C   UNL     1       5.920  -1.184  -0.060  0.00  0.00    -0.015 A 
ATOM      3  C   UNL     1       4.818  -0.328  -0.045  0.00  0.00    +0.076 A 
ATOM      4  C   UNL     1       4.788   1.152  -0.037  0.00  0.00    +0.260 A 
ATOM      5  O   UNL     1       5.821   1.796  -0.044  0.00  0.00    -0.267 OA
ATOM      6  N   UNL     1       3.591   1.770  -0.023  0.00  0.00    -0.307 N 
ATOM      7  H   UNL     1       3.555   2.739  -0.018  0.00  0.00    +0.170 HD
ATOM      8  C   UNL     1       2.423   1.053  -0.015  0.00  0.00    +0.135 A 
ATOM      9  N   UNL     1       2.424  -0.268  -0.017  0.00  0.00    -0.222 NA
ATOM     10  C   UNL     1       3.549  -0.959  -0.036  0.00  0.00    +0.117 A 
ATOM     11  S   UNL     1       3.953  -2.688  -0.049  0.00  0.00    -0.062 S 
ATOM     12  C   UNL     1       7.316  -0.616  -0.071  0.00  0.00    +0.046 C 
ENDROOT
BRANCH   1  13
ATOM     13  C   UNL     1       6.738  -3.599  -0.081  0.00  0.00    +0.346 C 
ATOM     14  O   UNL     1       7.921  -3.316  -0.091  0.00  0.00    -0.244 OA
BRANCH  13  15
ATOM     15  O   UNL     1       6.354  -4.892  -0.083  0.00  0.00    -0.461 OA
BRANCH  15  17
ATOM     16  C   UNL     1       6.766  -7.273  -0.100  0.00  0.00    +0.048 C 
ATOM     17  C   UNL     1       7.390  -5.876  -0.099  0.00  0.00    +0.229 C 
ENDBRANCH  15  17
ENDBRANCH  13  15
ENDBRANCH   1  13
BRANCH   8  18
ATOM     18  C   UNL     1       1.147   1.767   0.001  0.00  0.00    +0.047 C 
ATOM     19  C   UNL     1      -0.013   1.076   0.008  0.00  0.00    +0.011 C 
BRANCH  19  20
ATOM     20  C   UNL     1      -1.296   1.794   0.018  0.00  0.00    -0.020 A 
ATOM     21  C   UNL     1      -2.499   1.079   0.014  0.00  0.00    +0.057 A 
ATOM     22  C   UNL     1      -3.702   1.758   0.029  0.00  0.00    +0.163 A 
ATOM     23  C   UNL     1      -3.716   3.153   0.036  0.00  0.00    +0.177 A 
ATOM     24  C   UNL     1      -2.522   3.863   0.035  0.00  0.00    +0.087 A 
ATOM     25  C   UNL     1      -1.317   3.192   0.026  0.00  0.00    +0.031 A 
ATOM     26 CL   UNL     1      -2.547   5.599   0.044  0.00  0.00    -0.080 Cl
BRANCH  23  27
ATOM     27  O   UNL     1      -4.900   3.818   0.045  0.00  0.00    -0.502 OA
ATOM     28  H   UNL     1      -5.247   4.016  -0.835  0.00  0.00    +0.292 HD
ENDBRANCH  23  27
BRANCH  22  29
ATOM     29  O   UNL     1      -4.873   1.067   0.031  0.00  0.00    -0.491 OA
ATOM     30  C   UNL     1      -4.784  -0.359   0.024  0.00  0.00    +0.277 C 
ENDBRANCH  22  29
ENDBRANCH  19  20
ENDBRANCH   8  18
TORSDOF 7
