REMARK  Name = ZINC13030103
REMARK  14 active torsions:
REMARK  status: ('A' for Active; 'I' for Inactive)
REMARK    1  A    between atoms: C_1  and  C_2
REMARK    2  A    between atoms: C_2  and  C_3
REMARK    3  A    between atoms: C_3  and  C_4
REMARK    4  A    between atoms: C_4  and  N_63
REMARK    5  A    between atoms: C_5  and  C_6
REMARK    6  A    between atoms: C_5  and  N_63
REMARK    7  A    between atoms: C_7  and  C_30
REMARK    8  A    between atoms: C_8  and  C_21
REMARK    9  A    between atoms: N_13  and  C_14
REMARK   10  A    between atoms: C_14  and  C_15
REMARK   11  A    between atoms: C_25  and  N_27
REMARK   12  A    between atoms: C_30  and  O_32
REMARK   13  A    between atoms: O_32  and  C_33
REMARK   14  A    between atoms: C_33  and  C_34
REMARK                            x       y       z     vdW  Elec       q    Type
REMARK                         _______ _______ _______ _____ _____    ______ ____
ROOT
ATOM      1  C   UNL     1       1.233  -2.763  -1.941  0.00  0.00    +0.010 C 
ATOM      2  C   UNL     1       0.803  -2.397  -0.714  0.00  0.00    +0.076 C 
ATOM      3  C   UNL     1       0.074  -3.435   0.115  0.00  0.00    +0.143 C 
ATOM      4  N   UNL     1      -0.119  -4.761  -0.495  0.00  0.00    -0.288 N 
ATOM      5  C   UNL     1       0.368  -4.975  -1.733  0.00  0.00    +0.307 C 
ATOM      6  O   UNL     1       0.219  -6.068  -2.243  0.00  0.00    -0.252 OA
ATOM      7  N   UNL     1       1.012  -4.022  -2.420  0.00  0.00    -0.256 N 
ATOM      8  H   UNL     1      -0.582  -5.466  -0.015  0.00  0.00    +0.151 HD
ENDROOT
BRANCH   3   9
ATOM      9  C   UNL     1       0.832  -3.616   1.405  0.00  0.00    -0.020 A 
ATOM     10  C   UNL     1       1.964  -4.410   1.435  0.00  0.00    +0.006 A 
ATOM     11  C   UNL     1       2.659  -4.576   2.618  0.00  0.00    +0.003 A 
ATOM     12  C   UNL     1       2.224  -3.947   3.770  0.00  0.00    +0.033 A 
ATOM     13  C   UNL     1       1.093  -3.153   3.739  0.00  0.00    +0.127 A 
ATOM     14  C   UNL     1       0.400  -2.984   2.555  0.00  0.00    +0.038 A 
BRANCH  13  15
ATOM     15  N   UNL     1       0.627  -2.480   4.973  0.00  0.00    +0.056 N 
ATOM     16  O   UNL     1       1.241  -2.627   6.015  0.00  0.00    -0.126 OA
ATOM     17  O   UNL     1      -0.369  -1.780   4.945  0.00  0.00    -0.126 OA
ENDBRANCH  13  15
ENDBRANCH   3   9
BRANCH   2  18
ATOM     18  C   UNL     1       1.032  -1.093  -0.218  0.00  0.00    +0.339 C 
ATOM     19  O   UNL     1       1.728  -0.316  -0.845  0.00  0.00    -0.245 OA
BRANCH  18  20
ATOM     20  O   UNL     1       0.477  -0.709   0.951  0.00  0.00    -0.462 OA
BRANCH  20  21
ATOM     21  C   UNL     1       0.750   0.623   1.393  0.00  0.00    +0.229 C 
ATOM     22  C   UNL     1       0.041   0.873   2.725  0.00  0.00    +0.048 C 
ENDBRANCH  20  21
ENDBRANCH  18  20
ENDBRANCH   2  18
BRANCH   1  23
ATOM     23  C   UNL     1       1.969  -1.763  -2.797  0.00  0.00    -0.030 C 
BRANCH  23  24
ATOM     24  N   UNL     1       3.400  -1.784  -2.442  0.00  0.00    +0.383 N 
ATOM     25  H   UNL     1       3.502  -1.618  -1.433  0.00  0.00    -0.085 HD
ATOM     26  H   UNL     1       3.795  -2.702  -2.678  0.00  0.00    -0.085 HD
BRANCH  24  27
ATOM     27  C   UNL     1       4.127  -0.736  -3.183  0.00  0.00    -0.082 C 
BRANCH  27  28
ATOM     28  C   UNL     1       5.622  -0.855  -2.882  0.00  0.00    -0.019 C 
BRANCH  28  30
ATOM     29  C   UNL     1       7.865   0.184  -3.247  0.00  0.00    +0.004 C 
ATOM     30  C   UNL     1       6.370   0.302  -3.548  0.00  0.00    -0.005 C 
ENDBRANCH  28  30
ENDBRANCH  27  28
ENDBRANCH  24  27
ENDBRANCH  23  24
ENDBRANCH   1  23
BRANCH   7  31
ATOM     31  C   UNL     1       1.505  -4.350  -3.760  0.00  0.00    +0.150 C 
BRANCH  31  32
ATOM     32  C   UNL     1       0.394  -4.172  -4.762  0.00  0.00    -0.030 A 
ATOM     33  C   UNL     1      -0.448  -5.229  -5.055  0.00  0.00    +0.005 A 
ATOM     34  C   UNL     1      -1.470  -5.066  -5.970  0.00  0.00    +0.000 A 
ATOM     35  C   UNL     1      -1.645  -3.848  -6.601  0.00  0.00    +0.000 A 
ATOM     36  C   UNL     1      -0.800  -2.792  -6.311  0.00  0.00    +0.000 A 
ATOM     37  C   UNL     1       0.219  -2.954  -5.392  0.00  0.00    +0.005 A 
ENDBRANCH  31  32
ENDBRANCH   7  31
TORSDOF 12
