REMARK  Name = ZINC22106812
REMARK  9 active torsions:
REMARK  status: ('A' for Active; 'I' for Inactive)
REMARK    1  A    between atoms: C_1  and  C_2
REMARK    2  A    between atoms: C_2  and  C_4
REMARK    3  A    between atoms: C_2  and  S_17
REMARK    4  A    between atoms: N_6  and  C_7
REMARK    5  A    between atoms: C_10  and  O_13
REMARK    6  A    between atoms: O_13  and  C_14
REMARK    7  A    between atoms: S_17  and  C_18
REMARK    8  A    between atoms: C_21  and  C_24
REMARK    9  A    between atoms: N_22  and  N_23
REMARK                            x       y       z     vdW  Elec       q    Type
REMARK                         _______ _______ _______ _____ _____    ______ ____
ROOT
ATOM      1  C   UNL     1       0.754  -6.833  -1.266  0.00  0.00    +0.029 C 
ATOM      2  C   UNL     1       1.638  -6.917  -0.020  0.00  0.00    +0.137 C 
ENDROOT
BRANCH   2   3
ATOM      3  C   UNL     1       2.289  -8.274   0.043  0.00  0.00    +0.230 C 
ATOM      4  O   UNL     1       3.437  -8.414  -0.321  0.00  0.00    -0.274 OA
ATOM      5  N   UNL     1       1.595  -9.333   0.505  0.00  0.00    -0.285 N 
ATOM      6  H   UNL     1       0.530  -9.226   0.757  0.00  0.00    +0.155 HD
BRANCH   5   7
ATOM      7  C   UNL     1       2.231 -10.572   0.665  0.00  0.00    +0.034 A 
ATOM      8  C   UNL     1       1.522 -11.748   0.462  0.00  0.00    +0.027 A 
ATOM      9  C   UNL     1       2.151 -12.968   0.614  0.00  0.00    +0.047 A 
ATOM     10  C   UNL     1       3.487 -13.019   0.981  0.00  0.00    +0.127 A 
ATOM     11  C   UNL     1       4.195 -11.844   1.189  0.00  0.00    +0.047 A 
ATOM     12  C   UNL     1       3.569 -10.623   1.032  0.00  0.00    +0.027 A 
BRANCH  10  13
ATOM     13  O   UNL     1       4.104 -14.220   1.136  0.00  0.00    -0.434 OA
BRANCH  13  14
ATOM     14  C   UNL     1       3.315 -15.389   0.905  0.00  0.00    +0.541 C 
ATOM     15  F   UNL     1       2.234 -15.405   1.793  0.00  0.00    -0.166 F 
ATOM     16  F   UNL     1       2.839 -15.378  -0.410  0.00  0.00    -0.166 F 
ENDBRANCH  13  14
ENDBRANCH  10  13
ENDBRANCH   5   7
ENDBRANCH   2   3
BRANCH   2  17
ATOM     17  S   UNL     1       2.916  -5.638  -0.100  0.00  0.00    -0.072 S 
BRANCH  17  18
ATOM     18  C   UNL     1       1.910  -4.194  -0.013  0.00  0.00    +0.209 A 
ATOM     19  N   UNL     1       0.600  -4.161   0.082  0.00  0.00    -0.121 NA
ATOM     20  N   UNL     1       0.190  -2.944   0.123  0.00  0.00    -0.127 NA
ATOM     21  C   UNL     1       1.214  -2.124   0.058  0.00  0.00    +0.183 A 
ATOM     22  N   UNL     1       2.346  -2.900  -0.038  0.00  0.00    -0.224 N 
BRANCH  21  23
ATOM     23  C   UNL     1       1.159  -0.647   0.076  0.00  0.00    +0.035 A 
ATOM     24  C   UNL     1       1.891   0.093  -0.854  0.00  0.00    +0.013 A 
ATOM     25  C   UNL     1       1.836   1.471  -0.831  0.00  0.00    +0.001 A 
ATOM     26  C   UNL     1       1.058   2.120   0.111  0.00  0.00    +0.001 A 
ATOM     27  C   UNL     1       0.330   1.394   1.036  0.00  0.00    +0.016 A 
ATOM     28  C   UNL     1       0.376   0.014   1.024  0.00  0.00    +0.029 A 
ATOM     29 BR   UNL     1      -0.621  -0.978   2.289  0.00  0.00    -0.050 Br
ENDBRANCH  21  23
BRANCH  22  30
ATOM     30  N   UNL     1       3.638  -2.466  -0.134  0.00  0.00    -0.295 N 
ATOM     31  H   UNL     1       3.857  -1.388  -0.144  0.00  0.00    +0.163 HD
ATOM     32  H   UNL     1       4.459  -3.194  -0.203  0.00  0.00    +0.163 HD
ENDBRANCH  22  30
ENDBRANCH  17  18
ENDBRANCH   2  17
TORSDOF 8
