REMARK  Name = ZINC37905154
REMARK  7 active torsions:
REMARK  status: ('A' for Active; 'I' for Inactive)
REMARK    1  A    between atoms: C_1  and  C_2
REMARK    2  A    between atoms: C_5  and  N_10
REMARK    3  A    between atoms: C_6  and  C_9
REMARK    4  A    between atoms: C_7  and  N_8
REMARK    5  A    between atoms: N_10  and  S_11
REMARK    6  A    between atoms: S_11  and  C_14
REMARK    7  A    between atoms: C_18  and  C_20
REMARK                            x       y       z     vdW  Elec       q    Type
REMARK                         _______ _______ _______ _____ _____    ______ ____
ROOT
ATOM      1  N   UNL     1       0.058  -4.172  -0.027  0.00  0.00    -0.216 N 
ATOM      2  H   UNL     1      -0.470  -4.660   0.624  0.00  0.00    +0.174 HD
ENDROOT
BRANCH   1   7
ATOM      3  C   UNL     1       0.672   1.450   0.443  0.00  0.00    +0.045 C 
ATOM      4  C   UNL     1       0.509  -0.043   0.320  0.00  0.00    -0.029 A 
ATOM      5  C   UNL     1       0.417  -0.626  -0.929  0.00  0.00    +0.007 A 
ATOM      6  C   UNL     1       0.268  -1.994  -1.047  0.00  0.00    +0.025 A 
ATOM      7  C   UNL     1       0.210  -2.789   0.092  0.00  0.00    +0.053 A 
ATOM      8  C   UNL     1       0.302  -2.206   1.348  0.00  0.00    -0.007 A 
ATOM      9  C   UNL     1       0.458  -0.832   1.462  0.00  0.00    +0.032 A 
ATOM     10  C   UNL     1       0.240  -3.064   2.585  0.00  0.00    +0.047 C 
BRANCH   9  11
ATOM     11  N   UNL     1       0.558  -0.242   2.724  0.00  0.00    -0.358 N 
ATOM     12  H   UNL     1       0.663   0.719   2.804  0.00  0.00    +0.142 HD
ATOM     13  H   UNL     1       0.522  -0.793   3.522  0.00  0.00    +0.142 HD
ENDBRANCH   9  11
ENDBRANCH   1   7
BRANCH   1  14
ATOM     14  S   UNL     1       0.780  -4.979  -1.280  0.00  0.00    +0.072 S 
ATOM     15  O   UNL     1       0.556  -6.364  -1.054  0.00  0.00    -0.150 OA
ATOM     16  O   UNL     1       0.369  -4.326  -2.474  0.00  0.00    -0.150 OA
BRANCH  14  17
ATOM     17  C   UNL     1       2.517  -4.719  -1.136  0.00  0.00    +0.110 A 
ATOM     18  C   UNL     1       3.106  -3.633  -1.758  0.00  0.00    +0.029 A 
ATOM     19  C   UNL     1       4.469  -3.421  -1.650  0.00  0.00    +0.003 A 
ATOM     20  C   UNL     1       5.250  -4.293  -0.919  0.00  0.00    +0.019 A 
ATOM     21  C   UNL     1       4.661  -5.391  -0.289  0.00  0.00    +0.054 A 
ATOM     22  C   UNL     1       3.284  -5.596  -0.398  0.00  0.00    +0.047 A 
BRANCH  21  23
ATOM     23  C   UNL     1       5.465  -6.300   0.471  0.00  0.00    +0.099 C 
ATOM     24  N   UNL     1       6.104  -7.022   1.074  0.00  0.00    -0.191 NA
ENDBRANCH  21  23
ENDBRANCH  14  17
ENDBRANCH   1  14
TORSDOF 5
