REMARK  Name = ZINC08828079
REMARK  6 active torsions:
REMARK  status: ('A' for Active; 'I' for Inactive)
REMARK    1  A    between atoms: C_4  and  C_7
REMARK    2  A    between atoms: C_7  and  N_8
REMARK    3  A    between atoms: C_9  and  C_11
REMARK    4  A    between atoms: C_11  and  C_32
REMARK    5  A    between atoms: N_13  and  C_26
REMARK    6  A    between atoms: C_17  and  C_18
REMARK                            x       y       z     vdW  Elec       q    Type
REMARK                         _______ _______ _______ _____ _____    ______ ____
ROOT
ATOM      1  C   UNL     1       7.327   1.976   1.066  0.00  0.00    +0.144 C 
ATOM      2  C   UNL     1       6.047   2.295   0.605  0.00  0.00    +0.111 A 
ATOM      3  N   UNL     1       5.142   1.482  -0.031  0.00  0.00    -0.269 N 
ATOM      4  C   UNL     1       3.959   1.944  -0.400  0.00  0.00    +0.270 A 
ATOM      5  O   UNL     1       3.144   1.234  -0.959  0.00  0.00    -0.266 OA
ATOM      6  C   UNL     1       3.675   3.362  -0.106  0.00  0.00    +0.080 A 
ATOM      7  C   UNL     1       2.561   4.091  -0.371  0.00  0.00    +0.030 C 
ATOM      8  S   UNL     1       5.190   3.859   0.701  0.00  0.00    -0.064 S 
ENDROOT
BRANCH   7   9
ATOM      9  C   UNL     1       1.486   3.517  -1.192  0.00  0.00    -0.005 A 
ATOM     10  C   UNL     1       1.792   2.823  -2.368  0.00  0.00    +0.009 A 
ATOM     11  C   UNL     1       0.777   2.287  -3.132  0.00  0.00    +0.001 A 
ATOM     12  C   UNL     1      -0.543   2.439  -2.743  0.00  0.00    +0.001 A 
ATOM     13  C   UNL     1      -0.855   3.119  -1.578  0.00  0.00    +0.020 A 
ATOM     14  C   UNL     1       0.148   3.661  -0.801  0.00  0.00    +0.048 A 
ATOM     15 CL   UNL     1      -0.246   4.519   0.656  0.00  0.00    -0.083 Cl
ENDBRANCH   7   9
BRANCH   3  16
ATOM     16  C   UNL     1       5.473   0.145  -0.287  0.00  0.00    +0.051 A 
ATOM     17  C   UNL     1       6.229  -0.183  -1.405  0.00  0.00    +0.026 A 
ATOM     18  C   UNL     1       6.558  -1.502  -1.651  0.00  0.00    +0.002 A 
ATOM     19  C   UNL     1       6.127  -2.496  -0.792  0.00  0.00    +0.000 A 
ATOM     20  C   UNL     1       5.370  -2.173   0.319  0.00  0.00    +0.002 A 
ATOM     21  C   UNL     1       5.042  -0.856   0.574  0.00  0.00    +0.026 A 
ENDBRANCH   3  16
BRANCH   1  23
ATOM     22  N   UNL     1       9.425   2.717   2.054  0.00  0.00    -0.307 N 
ATOM     23  C   UNL     1       8.190   3.024   1.609  0.00  0.00    +0.257 C 
ATOM     24  O   UNL     1       7.794   4.174   1.660  0.00  0.00    -0.269 OA
ATOM     25  H   UNL     1       9.741   1.800   2.014  0.00  0.00    +0.149 HD
BRANCH  22  26
ATOM     26  C   UNL     1      10.290   3.766   2.598  0.00  0.00    +0.139 C 
BRANCH  26  30
ATOM     27  C   UNL     1      14.018   2.061   3.798  0.00  0.00    +0.000 A 
ATOM     28  C   UNL     1      13.858   2.537   2.510  0.00  0.00    +0.000 A 
ATOM     29  C   UNL     1      12.652   3.089   2.122  0.00  0.00    +0.005 A 
ATOM     30  C   UNL     1      11.605   3.164   3.021  0.00  0.00    -0.030 A 
ATOM     31  C   UNL     1      11.766   2.692   4.311  0.00  0.00    +0.005 A 
ATOM     32  C   UNL     1      12.971   2.136   4.698  0.00  0.00    +0.000 A 
ENDBRANCH  26  30
ENDBRANCH  22  26
ENDBRANCH   1  23
BRANCH   1  33
ATOM     33  C   UNL     1       7.793   0.624   1.007  0.00  0.00    +0.107 C 
ATOM     34  N   UNL     1       8.163  -0.449   0.960  0.00  0.00    -0.191 NA
ENDBRANCH   1  33
TORSDOF 6
