REMARK  Name = ZINC02874418
REMARK  6 active torsions:
REMARK  status: ('A' for Active; 'I' for Inactive)
REMARK    1  A    between atoms: C_4  and  N_7
REMARK    2  A    between atoms: N_7  and  S_8
REMARK    3  A    between atoms: S_8  and  C_11
REMARK    4  A    between atoms: C_18  and  S_26
REMARK    5  A    between atoms: S_26  and  N_29
REMARK    6  A    between atoms: N_29  and  C_30
REMARK                            x       y       z     vdW  Elec       q    Type
REMARK                         _______ _______ _______ _____ _____    ______ ____
ROOT
ATOM      1  C   UNL     1       5.309   1.016   0.642  0.00  0.00    +0.109 A 
ATOM      2  C   UNL     1       4.562   2.076   0.152  0.00  0.00    +0.029 A 
ATOM      3  C   UNL     1       4.888   3.377   0.479  0.00  0.00    +0.011 A 
ATOM      4  C   UNL     1       5.982   3.623   1.298  0.00  0.00    -0.000 A 
ATOM      5  C   UNL     1       6.384   4.993   1.677  0.00  0.00    +0.025 A 
ATOM      6  C   UNL     1       5.668   6.097   1.219  0.00  0.00    +0.014 A 
ATOM      7  C   UNL     1       6.059   7.367   1.585  0.00  0.00    +0.029 A 
ATOM      8  C   UNL     1       7.161   7.546   2.405  0.00  0.00    +0.112 A 
ATOM      9  C   UNL     1       7.877   6.461   2.864  0.00  0.00    +0.075 A 
ATOM     10  C   UNL     1       7.499   5.172   2.507  0.00  0.00    +0.142 A 
ATOM     11  O   UNL     1       8.208   4.114   2.963  0.00  0.00    -0.422 OA
ATOM     12  C   UNL     1       7.899   2.844   2.658  0.00  0.00    +0.345 A 
ATOM     13  O   UNL     1       8.576   1.935   3.099  0.00  0.00    -0.245 OA
ATOM     14  C   UNL     1       6.748   2.547   1.794  0.00  0.00    +0.069 A 
ATOM     15  C   UNL     1       6.399   1.241   1.457  0.00  0.00    +0.044 A 
ENDROOT
BRANCH   1  16
ATOM     16  S   UNL     1       4.867  -0.635   0.214  0.00  0.00    +0.072 S 
ATOM     17  O   UNL     1       6.011  -1.440   0.462  0.00  0.00    -0.150 OA
ATOM     18  O   UNL     1       4.242  -0.571  -1.060  0.00  0.00    -0.150 OA
BRANCH  16  19
ATOM     19  N   UNL     1       3.704  -1.124   1.287  0.00  0.00    -0.216 N 
ATOM     20  H   UNL     1       2.821  -1.368   0.968  0.00  0.00    +0.174 HD
BRANCH  19  24
ATOM     21  C   UNL     1       4.571  -1.307   5.356  0.00  0.00    +0.000 A 
ATOM     22  C   UNL     1       5.458  -1.836   4.437  0.00  0.00    +0.002 A 
ATOM     23  C   UNL     1       5.174  -1.777   3.087  0.00  0.00    +0.024 A 
ATOM     24  C   UNL     1       3.994  -1.186   2.652  0.00  0.00    +0.048 A 
ATOM     25  C   UNL     1       3.105  -0.655   3.578  0.00  0.00    +0.024 A 
ATOM     26  C   UNL     1       3.396  -0.718   4.926  0.00  0.00    +0.002 A 
ENDBRANCH  19  24
ENDBRANCH  16  19
ENDBRANCH   1  16
BRANCH   8  27
ATOM     27  S   UNL     1       7.653   9.175   2.865  0.00  0.00    +0.072 S 
ATOM     28  O   UNL     1       9.003   9.084   3.298  0.00  0.00    -0.150 OA
ATOM     29  O   UNL     1       7.247  10.035   1.809  0.00  0.00    -0.150 OA
BRANCH  27  30
ATOM     30  N   UNL     1       6.758   9.600   4.192  0.00  0.00    -0.216 N 
ATOM     31  H   UNL     1       7.200   9.801   5.031  0.00  0.00    +0.174 HD
BRANCH  30  32
ATOM     32  C   UNL     1       5.366   9.670   4.102  0.00  0.00    +0.048 A 
ATOM     33  C   UNL     1       4.769  10.324   3.032  0.00  0.00    +0.024 A 
ATOM     34  C   UNL     1       3.392  10.387   2.943  0.00  0.00    +0.002 A 
ATOM     35  C   UNL     1       2.608   9.809   3.924  0.00  0.00    +0.000 A 
ATOM     36  C   UNL     1       3.199   9.161   4.994  0.00  0.00    +0.002 A 
ATOM     37  C   UNL     1       4.575   9.090   5.085  0.00  0.00    +0.024 A 
ENDBRANCH  30  32
ENDBRANCH  27  30
ENDBRANCH   8  27
TORSDOF 6
