REMARK  Name = ZINC44020436
REMARK  8 active torsions:
REMARK  status: ('A' for Active; 'I' for Inactive)
REMARK    1  A    between atoms: C_1  and  C_2
REMARK    2  A    between atoms: C_6  and  N_9
REMARK    3  A    between atoms: C_7  and  C_8
REMARK    4  A    between atoms: N_9  and  C_10
REMARK    5  A    between atoms: N_14  and  C_19
REMARK    6  A    between atoms: C_19  and  C_20
REMARK    7  A    between atoms: C_19  and  C_21
REMARK    8  A    between atoms: C_19  and  C_22
REMARK                            x       y       z     vdW  Elec       q    Type
REMARK                         _______ _______ _______ _____ _____    ______ ____
ROOT
ATOM      1  C   UNL     1       0.013  -4.166   2.298  0.00  0.00    +0.109 A 
ATOM      2  C   UNL     1      -0.157  -4.929   3.420  0.00  0.00    +0.112 A 
ATOM      3  C   UNL     1      -0.199  -6.327   3.293  0.00  0.00    +0.259 A 
ATOM      4  O   UNL     1      -0.350  -7.027   4.280  0.00  0.00    -0.267 OA
ATOM      5  N   UNL     1      -0.072  -6.889   2.075  0.00  0.00    -0.256 N 
ATOM      6  C   UNL     1       0.094  -6.123   0.982  0.00  0.00    +0.331 A 
ATOM      7  O   UNL     1       0.207  -6.651  -0.107  0.00  0.00    -0.246 OA
ATOM      8  N   UNL     1       0.132  -4.781   1.075  0.00  0.00    -0.295 N 
ATOM      9  H   UNL     1       0.249  -4.245   0.275  0.00  0.00    +0.172 HD
ENDROOT
BRANCH   5  10
ATOM     10  C   UNL     1      -0.115  -8.348   1.941  0.00  0.00    +0.045 C 
ATOM     11  C   UNL     1      -0.320  -8.981   3.318  0.00  0.00    +0.034 C 
ATOM     12  C   UNL     1      -1.273  -8.741   1.022  0.00  0.00    +0.034 C 
ATOM     13  C   UNL     1       1.202  -8.844   1.342  0.00  0.00    +0.034 C 
ENDBRANCH   5  10
BRANCH   1  14
ATOM     14  N   UNL     1       0.058  -2.797   2.392  0.00  0.00    -0.300 N 
ATOM     15  H   UNL     1      -0.684  -2.314   2.788  0.00  0.00    +0.154 HD
BRANCH  14  21
ATOM     16  C   UNL     1       2.274   1.481   1.420  0.00  0.00    +0.044 C 
ATOM     17  C   UNL     1       2.274  -0.025   1.434  0.00  0.00    -0.046 A 
ATOM     18  C   UNL     1       3.379  -0.720   0.977  0.00  0.00    +0.004 A 
ATOM     19  C   UNL     1       3.383  -2.103   0.988  0.00  0.00    +0.002 A 
ATOM     20  C   UNL     1       2.284  -2.795   1.457  0.00  0.00    +0.023 A 
ATOM     21  C   UNL     1       1.173  -2.100   1.917  0.00  0.00    +0.036 A 
ATOM     22  C   UNL     1       1.173  -0.711   1.909  0.00  0.00    -0.026 A 
ATOM     23  C   UNL     1      -0.028   0.047   2.413  0.00  0.00    +0.046 C 
ENDBRANCH  14  21
ENDBRANCH   1  14
TORSDOF 3
