REMARK  Name = ZINC21258221
REMARK  11 active torsions:
REMARK  status: ('A' for Active; 'I' for Inactive)
REMARK    1  A    between atoms: C_1  and  C_2
REMARK    2  A    between atoms: C_2  and  O_3
REMARK    3  A    between atoms: O_3  and  C_4
REMARK    4  A    between atoms: C_6  and  C_14
REMARK    5  A    between atoms: C_8  and  N_11
REMARK    6  A    between atoms: C_9  and  O_10
REMARK    7  A    between atoms: C_19  and  C_24
REMARK    8  A    between atoms: C_27  and  O_30
REMARK    9  A    between atoms: O_30  and  C_31
REMARK   10  A    between atoms: C_31  and  C_32
REMARK   11  A    between atoms: C_31  and  C_33
REMARK                            x       y       z     vdW  Elec       q    Type
REMARK                         _______ _______ _______ _____ _____    ______ ____
ROOT
ATOM      1  C   UNL     1     -10.286   3.717  -0.416  0.00  0.00    +0.136 C 
ATOM      2  C   UNL     1      -8.830   3.396  -0.176  0.00  0.00    +0.036 C 
ATOM      3  C   UNL     1      -7.792   4.216  -0.410  0.00  0.00    +0.017 C 
ATOM      4  C   UNL     1      -6.370   3.752  -0.142  0.00  0.00    +0.059 C 
ATOM      5  C   UNL     1      -6.351   2.796   1.049  0.00  0.00    +0.032 C 
ATOM      6  C   UNL     1      -7.242   1.597   0.702  0.00  0.00    +0.088 C 
ATOM      7  C   UNL     1      -8.610   2.102   0.355  0.00  0.00    +0.163 C 
ATOM      8  O   UNL     1      -9.566   1.375   0.538  0.00  0.00    -0.292 OA
ATOM      9  N   UNL     1      -7.895   5.482  -0.888  0.00  0.00    -0.316 N 
ATOM     10  C   UNL     1      -8.680   5.859  -1.972  0.00  0.00    +0.052 A 
ATOM     11  C   UNL     1      -8.137   6.404  -3.123  0.00  0.00    +0.025 A 
ATOM     12  C   UNL     1      -8.982   6.859  -4.122  0.00  0.00    +0.002 A 
ATOM     13  C   UNL     1     -10.353   6.766  -3.971  0.00  0.00    +0.002 A 
ATOM     14  C   UNL     1     -10.897   6.200  -2.831  0.00  0.00    +0.025 A 
ATOM     15  C   UNL     1     -10.054   5.730  -1.836  0.00  0.00    +0.049 A 
ATOM     16  N   UNL     1     -10.553   5.113  -0.691  0.00  0.00    -0.331 N 
ATOM     17  H   UNL     1      -7.332   6.298  -0.410  0.00  0.00    +0.152 HD
ATOM     18  H   UNL     1     -11.160   5.705   0.011  0.00  0.00    +0.147 HD
ENDROOT
BRANCH   1  21
ATOM     19  C   UNL     1     -12.211   1.206  -2.480  0.00  0.00    +0.164 A 
ATOM     20  C   UNL     1     -11.762   1.955  -1.405  0.00  0.00    +0.055 A 
ATOM     21  C   UNL     1     -10.769   2.899  -1.586  0.00  0.00    -0.017 A 
ATOM     22  C   UNL     1     -10.213   3.090  -2.838  0.00  0.00    +0.042 A 
ATOM     23  C   UNL     1     -10.653   2.342  -3.914  0.00  0.00    +0.171 A 
ATOM     24  C   UNL     1     -11.652   1.399  -3.740  0.00  0.00    +0.189 A 
BRANCH  23  25
ATOM     25  N   UNL     1     -10.056   2.550  -5.253  0.00  0.00    +0.060 N 
ATOM     26  O   UNL     1      -9.178   3.379  -5.406  0.00  0.00    -0.126 OA
ATOM     27  O   UNL     1     -10.444   1.891  -6.201  0.00  0.00    -0.126 OA
ENDBRANCH  23  25
BRANCH  24  28
ATOM     28  O   UNL     1     -12.087   0.663  -4.798  0.00  0.00    -0.502 OA
ATOM     29  H   UNL     1     -11.644   0.816  -5.793  0.00  0.00    +0.292 HD
ENDBRANCH  24  28
BRANCH  19  30
ATOM     30  O   UNL     1     -13.193   0.281  -2.304  0.00  0.00    -0.488 OA
BRANCH  30  32
ATOM     31  C   UNL     1     -14.805  -0.941  -0.982  0.00  0.00    +0.048 C 
ATOM     32  C   UNL     1     -13.719   0.137  -0.984  0.00  0.00    +0.226 C 
ENDBRANCH  30  32
ENDBRANCH  19  30
ENDBRANCH   1  21
BRANCH   5  33
ATOM     33  C   UNL     1      -4.942   2.327   1.306  0.00  0.00    -0.043 A 
ATOM     34  C   UNL     1      -4.347   2.568   2.530  0.00  0.00    +0.007 A 
ATOM     35  C   UNL     1      -3.055   2.140   2.768  0.00  0.00    +0.046 A 
ATOM     36  C   UNL     1      -2.355   1.467   1.777  0.00  0.00    +0.121 A 
ATOM     37  C   UNL     1      -2.953   1.231   0.548  0.00  0.00    +0.046 A 
ATOM     38  C   UNL     1      -4.246   1.657   0.317  0.00  0.00    +0.007 A 
BRANCH  36  39
ATOM     39  O   UNL     1      -1.084   1.044   2.009  0.00  0.00    -0.489 OA
BRANCH  39  40
ATOM     40  C   UNL     1      -0.382   0.466   0.907  0.00  0.00    +0.167 C 
ATOM     41  C   UNL     1      -0.726  -1.022   0.808  0.00  0.00    +0.051 C 
ATOM     42  C   UNL     1       1.124   0.628   1.120  0.00  0.00    +0.051 C 
ENDBRANCH  39  40
ENDBRANCH  36  39
ENDBRANCH   5  33
TORSDOF 8
