REMARK  Name = ZINC13063829
REMARK  10 active torsions:
REMARK  status: ('A' for Active; 'I' for Inactive)
REMARK    1  A    between atoms: C_1  and  C_2
REMARK    2  A    between atoms: C_2  and  C_3
REMARK    3  A    between atoms: C_3  and  C_5
REMARK    4  A    between atoms: C_3  and  N_72
REMARK    5  A    between atoms: N_9  and  C_10
REMARK    6  A    between atoms: C_16  and  C_17
REMARK    7  A    between atoms: C_16  and  N_72
REMARK    8  A    between atoms: C_26  and  C_27
REMARK    9  A    between atoms: C_26  and  N_72
REMARK   10  A    between atoms: C_32  and  C_39
REMARK                            x       y       z     vdW  Elec       q    Type
REMARK                         _______ _______ _______ _____ _____    ______ ____
ROOT
ATOM      1  N   UNL     1       0.855   3.907   1.228  0.00  0.00    +0.392 N 
ATOM      2  H   UNL     1       0.940   3.496   2.165  0.00  0.00    -0.080 HD
ENDROOT
BRANCH   1   3
ATOM      3  C   UNL     1       1.705   3.145   0.290  0.00  0.00    +0.003 C 
BRANCH   3   4
ATOM      4  C   UNL     1       1.776   3.842  -1.044  0.00  0.00    +0.138 A 
ATOM      5  N   UNL     1       1.964   5.123  -1.249  0.00  0.00    -0.115 NA
ATOM      6  N   UNL     1       1.963   5.327  -2.521  0.00  0.00    -0.023 NA
ATOM      7  N   UNL     1       1.781   4.210  -3.133  0.00  0.00    -0.044 NA
ATOM      8  N   UNL     1       1.661   3.270  -2.257  0.00  0.00    -0.228 N 
BRANCH   8   9
ATOM      9  C   UNL     1       1.442   1.848  -2.531  0.00  0.00    +0.111 C 
ATOM     10  C   UNL     1       2.604   1.304  -3.365  0.00  0.00    +0.027 C 
ATOM     11  C   UNL     1       2.375  -0.182  -3.651  0.00  0.00    +0.002 C 
ATOM     12  C   UNL     1       1.067  -0.356  -4.425  0.00  0.00    +0.000 C 
ATOM     13  C   UNL     1      -0.095   0.188  -3.591  0.00  0.00    +0.002 C 
ATOM     14  C   UNL     1       0.134   1.673  -3.305  0.00  0.00    +0.027 C 
ENDBRANCH   8   9
ENDBRANCH   3   4
BRANCH   3  16
ATOM     15  C   UNL     1       3.047   2.264   2.204  0.00  0.00    +0.002 C 
ATOM     16  C   UNL     1       3.111   3.030   0.881  0.00  0.00    -0.011 C 
ENDBRANCH   3  16
ENDBRANCH   1   3
BRANCH   1  17
ATOM     17  C   UNL     1      -0.558   3.837   0.800  0.00  0.00    -0.041 C 
BRANCH  17  18
ATOM     18  C   UNL     1      -1.082   2.453   1.084  0.00  0.00    -0.060 A 
ATOM     19  C   UNL     1      -0.999   1.471   0.115  0.00  0.00    +0.005 A 
ATOM     20  C   UNL     1      -1.472   0.198   0.373  0.00  0.00    +0.050 A 
ATOM     21  C   UNL     1      -2.044  -0.093   1.601  0.00  0.00    +0.166 A 
ATOM     22  C   UNL     1      -2.133   0.897   2.576  0.00  0.00    +0.166 A 
ATOM     23  C   UNL     1      -1.650   2.169   2.312  0.00  0.00    +0.051 A 
ATOM     24  O   UNL     1      -2.728   0.367   3.684  0.00  0.00    -0.453 OA
ATOM     25  C   UNL     1      -3.370  -0.841   3.234  0.00  0.00    +0.466 C 
ATOM     26  O   UNL     1      -2.583  -1.244   2.098  0.00  0.00    -0.453 OA
ENDBRANCH  17  18
ENDBRANCH   1  17
BRANCH   1  27
ATOM     27  C   UNL     1       1.297   5.317   1.279  0.00  0.00    -0.036 C 
BRANCH  27  28
ATOM     28  C   UNL     1       0.711   5.963   2.508  0.00  0.00    +0.001 A 
ATOM     29  C   UNL     1       1.431   6.008   3.656  0.00  0.00    +0.017 A 
ATOM     30  C   UNL     1       0.833   6.642   4.832  0.00  0.00    -0.001 A 
ATOM     31  C   UNL     1       1.527   6.720   6.045  0.00  0.00    +0.010 A 
ATOM     32  C   UNL     1       0.941   7.318   7.123  0.00  0.00    +0.004 A 
ATOM     33  C   UNL     1      -0.337   7.851   7.028  0.00  0.00    -0.048 A 
ATOM     34  C   UNL     1      -1.040   7.787   5.844  0.00  0.00    +0.029 A 
ATOM     35  C   UNL     1      -0.463   7.181   4.732  0.00  0.00    +0.049 A 
ATOM     36  N   UNL     1      -1.143   7.104   3.535  0.00  0.00    -0.322 N 
ATOM     37  H   UNL     1      -2.036   7.476   3.467  0.00  0.00    +0.169 HD
ATOM     38  C   UNL     1      -0.583   6.524   2.458  0.00  0.00    +0.251 A 
ATOM     39  O   UNL     1      -1.211   6.477   1.415  0.00  0.00    -0.268 OA
ATOM     40  C   UNL     1      -0.964   8.508   8.231  0.00  0.00    +0.044 C 
ENDBRANCH  27  28
ENDBRANCH   1  27
TORSDOF 8
