REMARK  Name = ZINC23646092
REMARK  8 active torsions:
REMARK  status: ('A' for Active; 'I' for Inactive)
REMARK    1  A    between atoms: C_3  and  C_6
REMARK    2  A    between atoms: C_9  and  C_26
REMARK    3  A    between atoms: C_12  and  C_14
REMARK    4  A    between atoms: C_14  and  O_15
REMARK    5  A    between atoms: O_15  and  C_16
REMARK    6  A    between atoms: C_16  and  C_18
REMARK    7  A    between atoms: C_21  and  O_25
REMARK    8  A    between atoms: C_23  and  O_24
REMARK                            x       y       z     vdW  Elec       q    Type
REMARK                         _______ _______ _______ _____ _____    ______ ____
ROOT
ATOM      1  C   UNL     1       1.369   1.884  -0.001  0.00  0.00    +0.144 C 
ATOM      2  C   UNL     1       2.215   0.596  -0.016  0.00  0.00    +0.088 C 
ATOM      3  C   UNL     1       1.188  -0.514  -0.012  0.00  0.00    +0.075 C 
ATOM      4  N   UNL     1       0.002  -0.004   0.002  0.00  0.00    -0.180 NA
ATOM      5  N   UNL     1      -0.017   1.389   0.010  0.00  0.00    -0.182 N 
ATOM      6  C   UNL     1      -1.124   2.158   0.019  0.00  0.00    +0.273 C 
ATOM      7  O   UNL     1      -1.023   3.367   0.025  0.00  0.00    -0.270 OA
ENDROOT
BRANCH   1  10
ATOM      8  C   UNL     1       2.462   4.425  -2.620  0.00  0.00    +0.008 A 
ATOM      9  C   UNL     1       2.356   3.840  -1.372  0.00  0.00    +0.013 A 
ATOM     10  C   UNL     1       1.629   2.704  -1.238  0.00  0.00    +0.013 A 
ATOM     11  S   UNL     1       1.054   2.435  -2.907  0.00  0.00    -0.100 S 
ATOM     12  C   UNL     1       1.827   3.851  -3.671  0.00  0.00    +0.045 A 
ENDBRANCH   1  10
BRANCH   3  13
ATOM     13  C   UNL     1       1.492  -1.949  -0.022  0.00  0.00    +0.035 A 
ATOM     14  C   UNL     1       0.623  -3.026  -0.013  0.00  0.00    +0.017 A 
ATOM     15  C   UNL     1       1.153  -4.294  -0.030  0.00  0.00    +0.008 A 
ATOM     16  C   UNL     1       2.503  -4.451  -0.043  0.00  0.00    +0.046 A 
ATOM     17  S   UNL     1       3.082  -2.762  -0.040  0.00  0.00    -0.095 S 
ENDBRANCH   3  13
BRANCH   6  18
ATOM     18  C   UNL     1      -2.487   1.516   0.023  0.00  0.00    +0.330 C 
BRANCH  18  19
ATOM     19  O   UNL     1      -3.508   2.548   0.034  0.00  0.00    -0.452 OA
BRANCH  19  20
ATOM     20  C   UNL     1      -4.792   2.138   0.038  0.00  0.00    +0.343 C 
ATOM     21  O   UNL     1      -5.051   0.951   0.034  0.00  0.00    -0.245 OA
BRANCH  20  22
ATOM     22  C   UNL     1      -5.881   3.128   0.049  0.00  0.00    +0.100 A 
ATOM     23  C   UNL     1      -5.586   4.496   0.060  0.00  0.00    +0.022 A 
ATOM     24  C   UNL     1      -6.596   5.414   0.065  0.00  0.00    +0.046 A 
ATOM     25  C   UNL     1      -7.925   4.998   0.070  0.00  0.00    +0.120 A 
ATOM     26  C   UNL     1      -8.235   3.646   0.064  0.00  0.00    +0.091 A 
ATOM     27  C   UNL     1      -7.219   2.705   0.054  0.00  0.00    +0.134 A 
BRANCH  27  28
ATOM     28  O   UNL     1      -7.516   1.382   0.048  0.00  0.00    -0.506 OA
ATOM     29  H   UNL     1      -8.566   1.053   0.051  0.00  0.00    +0.292 HD
ENDBRANCH  27  28
BRANCH  25  30
ATOM     30  O   UNL     1      -8.921   5.920   0.081  0.00  0.00    -0.507 OA
ATOM     31  H   UNL     1      -9.972   5.594   0.084  0.00  0.00    +0.292 HD
ENDBRANCH  25  30
ENDBRANCH  20  22
ENDBRANCH  19  20
ENDBRANCH  18  19
ENDBRANCH   6  18
TORSDOF 8
