REMARK  Name = ZINC32637735
REMARK  5 active torsions:
REMARK  status: ('A' for Active; 'I' for Inactive)
REMARK    1  A    between atoms: C_1  and  C_2
REMARK    2  A    between atoms: C_2  and  C_4
REMARK    3  A    between atoms: C_2  and  O_18
REMARK    4  A    between atoms: N_6  and  C_7
REMARK    5  A    between atoms: O_18  and  C_19
REMARK                            x       y       z     vdW  Elec       q    Type
REMARK                         _______ _______ _______ _____ _____    ______ ____
ROOT
ATOM      1  C   UNL     1      -1.411  -0.464   0.409  0.00  0.00    +0.258 C 
ATOM      2  O   UNL     1      -1.840  -0.730   1.512  0.00  0.00    -0.271 OA
ATOM      3  N   UNL     1      -2.251  -0.402  -0.643  0.00  0.00    -0.282 N 
ATOM      4  H   UNL     1      -1.899  -0.271  -1.538  0.00  0.00    +0.155 HD
ENDROOT
BRANCH   3   5
ATOM      5  C   UNL     1      -3.632  -0.526  -0.446  0.00  0.00    +0.036 A 
ATOM      6  C   UNL     1      -4.417  -1.155  -1.405  0.00  0.00    +0.027 A 
ATOM      7  C   UNL     1      -5.779  -1.281  -1.216  0.00  0.00    +0.050 A 
ATOM      8  C   UNL     1      -6.368  -0.780  -0.066  0.00  0.00    +0.157 A 
ATOM      9  C   UNL     1      -5.582  -0.148   0.898  0.00  0.00    +0.089 A 
ATOM     10  C   UNL     1      -4.215  -0.027   0.710  0.00  0.00    +0.052 A 
ATOM     11  N   UNL     1      -6.445   0.243   1.922  0.00  0.00    -0.288 N 
ATOM     12  H   UNL     1      -6.195   0.708   2.736  0.00  0.00    +0.172 HD
ATOM     13  C   UNL     1      -7.688  -0.143   1.574  0.00  0.00    +0.419 A 
ATOM     14  O   UNL     1      -8.691   0.038   2.238  0.00  0.00    -0.223 OA
ATOM     15  O   UNL     1      -7.648  -0.757   0.382  0.00  0.00    -0.408 OA
ENDBRANCH   3   5
BRANCH   1  17
ATOM     16  C   UNL     1       0.268   1.252  -0.214  0.00  0.00    +0.062 C 
ATOM     17  C   UNL     1       0.060  -0.202   0.215  0.00  0.00    +0.256 C 
BRANCH  17  18
ATOM     18  O   UNL     1       0.752  -0.440   1.443  0.00  0.00    -0.479 OA
BRANCH  18  19
ATOM     19  C   UNL     1       2.071  -0.758   1.357  0.00  0.00    +0.136 A 
ATOM     20  C   UNL     1       2.713  -0.727   0.128  0.00  0.00    +0.049 A 
ATOM     21  C   UNL     1       4.054  -1.050   0.042  0.00  0.00    +0.042 A 
ATOM     22  C   UNL     1       4.756  -1.406   1.182  0.00  0.00    +0.125 A 
ATOM     23  C   UNL     1       4.116  -1.437   2.409  0.00  0.00    +0.057 A 
ATOM     24  C   UNL     1       2.777  -1.109   2.499  0.00  0.00    +0.062 A 
ATOM     25 BR   UNL     1       1.905  -1.144   4.177  0.00  0.00    -0.046 Br
ATOM     26  F   UNL     1       6.067  -1.722   1.095  0.00  0.00    -0.205 F 
ENDBRANCH  18  19
ENDBRANCH  17  18
ENDBRANCH   1  17
TORSDOF 4
