REMARK  Name = ZINC09089128
REMARK  4 active torsions:
REMARK  status: ('A' for Active; 'I' for Inactive)
REMARK    1  A    between atoms: C_5  and  C_7
REMARK    2  A    between atoms: N_8  and  N_9
REMARK    3  A    between atoms: C_10  and  C_12
REMARK    4  A    between atoms: C_14  and  C_18
REMARK                            x       y       z     vdW  Elec       q    Type
REMARK                         _______ _______ _______ _____ _____    ______ ____
ROOT
ATOM      1  C   UNL     1       3.671  -6.273  -0.067  0.00  0.00    +0.122 A 
ATOM      2  C   UNL     1       4.799  -7.071  -0.076  0.00  0.00    +0.062 A 
ATOM      3  C   UNL     1       4.318  -8.393  -0.081  0.00  0.00    +0.093 A 
ATOM      4  N   UNL     1       3.003  -8.338  -0.074  0.00  0.00    -0.173 NA
ATOM      5  N   UNL     1       2.598  -7.120  -0.060  0.00  0.00    -0.272 N 
ATOM      6  H   UNL     1       1.669  -6.841  -0.050  0.00  0.00    +0.189 HD
ENDROOT
BRANCH   3   7
ATOM      7  C   UNL     1       5.144  -9.627  -0.092  0.00  0.00    +0.004 A 
ATOM      8  C   UNL     1       6.535  -9.537  -0.093  0.00  0.00    +0.011 A 
ATOM      9  C   UNL     1       7.299 -10.686  -0.103  0.00  0.00    +0.022 A 
ATOM     10  C   UNL     1       6.686 -11.927  -0.112  0.00  0.00    +0.059 A 
ATOM     11  C   UNL     1       5.304 -12.022  -0.111  0.00  0.00    +0.060 A 
ATOM     12  C   UNL     1       4.532 -10.877  -0.095  0.00  0.00    +0.031 A 
ATOM     13 CL   UNL     1       4.543 -13.582  -0.124  0.00  0.00    -0.082 Cl
ATOM     14 CL   UNL     1       7.653 -13.369  -0.125  0.00  0.00    -0.082 Cl
ENDBRANCH   3   7
BRANCH   1  16
ATOM     15  N   UNL     1       2.448  -4.159  -0.044  0.00  0.00    -0.202 N 
ATOM     16  C   UNL     1       3.632  -4.802  -0.058  0.00  0.00    +0.281 C 
ATOM     17  O   UNL     1       4.670  -4.167  -0.065  0.00  0.00    -0.267 OA
ATOM     18  H   UNL     1       1.621  -4.666  -0.038  0.00  0.00    +0.178 HD
BRANCH  15  20
ATOM     19  C   UNL     1       1.271  -2.139  -0.022  0.00  0.00    +0.158 C 
ATOM     20  N   UNL     1       2.412  -2.759  -0.036  0.00  0.00    -0.186 NA
BRANCH  19  25
ATOM     21  C   UNL     1      -0.017   1.379   0.010  0.00  0.00    +0.004 A 
ATOM     22  C   UNL     1       1.194   2.059   0.002  0.00  0.00    +0.020 A 
ATOM     23  C   UNL     1       2.376   1.341  -0.013  0.00  0.00    +0.111 A 
ATOM     24  N   UNL     1       2.369   0.024  -0.020  0.00  0.00    -0.254 NA
ATOM     25  C   UNL     1       1.232  -0.665  -0.013  0.00  0.00    +0.083 A 
ATOM     26  C   UNL     1       0.002  -0.004   0.002  0.00  0.00    +0.029 A 
ENDBRANCH  19  25
ENDBRANCH  15  20
ENDBRANCH   1  16
TORSDOF 4
