REMARK  Name = ZINC46743976
REMARK  8 active torsions:
REMARK  status: ('A' for Active; 'I' for Inactive)
REMARK    1  A    between atoms: C_4  and  N_25
REMARK    2  A    between atoms: C_5  and  N_7
REMARK    3  A    between atoms: N_7  and  C_8
REMARK    4  A    between atoms: C_8  and  C_9
REMARK    5  A    between atoms: C_9  and  C_10
REMARK    6  A    between atoms: N_12  and  C_13
REMARK    7  A    between atoms: C_13  and  C_15
REMARK    8  A    between atoms: C_13  and  C_20
REMARK                            x       y       z     vdW  Elec       q    Type
REMARK                         _______ _______ _______ _____ _____    ______ ____
ROOT
ATOM      1  C   UNL     1      -1.115  -4.300   1.316  0.00  0.00    +0.215 C 
ATOM      2  O   UNL     1      -2.142  -3.654   1.299  0.00  0.00    -0.276 OA
ATOM      3  N   UNL     1      -1.162  -5.634   1.498  0.00  0.00    -0.308 N 
ATOM      4  H   UNL     1      -0.339  -6.140   1.587  0.00  0.00    +0.149 HD
ENDROOT
BRANCH   1   5
ATOM      5  C   UNL     1       0.212  -3.609   1.133  0.00  0.00    +0.114 C 
BRANCH   5   6
ATOM      6  C   UNL     1      -0.016  -2.108   0.948  0.00  0.00    +0.111 C 
BRANCH   6   7
ATOM      7  N   UNL     1       1.274  -1.437   0.770  0.00  0.00    -0.342 N 
ATOM      8  H   UNL     1       2.095  -1.953   0.784  0.00  0.00    +0.146 HD
BRANCH   7  13
ATOM      9  C   UNL     1       0.218   2.075   0.529  0.00  0.00    +0.002 A 
ATOM     10  C   UNL     1       1.417   2.686   0.207  0.00  0.00    +0.002 A 
ATOM     11  C   UNL     1       2.567   1.932   0.073  0.00  0.00    +0.034 A 
ATOM     12  C   UNL     1       2.524   0.564   0.259  0.00  0.00    +0.147 A 
ATOM     13  C   UNL     1       1.322  -0.054   0.582  0.00  0.00    +0.058 A 
ATOM     14  C   UNL     1       0.168   0.708   0.716  0.00  0.00    +0.025 A 
BRANCH  12  15
ATOM     15  N   UNL     1       3.756  -0.243   0.114  0.00  0.00    +0.058 N 
ATOM     16  O   UNL     1       4.813   0.192   0.507  0.00  0.00    -0.126 OA
ATOM     17  O   UNL     1       3.705  -1.337  -0.398  0.00  0.00    -0.126 OA
ENDBRANCH  12  15
ENDBRANCH   7  13
ENDBRANCH   6   7
ENDBRANCH   5   6
ENDBRANCH   1   5
BRANCH   3  18
ATOM     18  C   UNL     1      -2.454  -6.321   1.561  0.00  0.00    +0.113 C 
BRANCH  18  19
ATOM     19  C   UNL     1      -2.946  -6.597   0.163  0.00  0.00    +0.010 A 
ATOM     20  C   UNL     1      -4.202  -6.499  -0.335  0.00  0.00    +0.013 A 
ATOM     21  C   UNL     1      -4.422  -6.805  -1.664  0.00  0.00    +0.008 A 
ATOM     22  C   UNL     1      -3.375  -7.195  -2.431  0.00  0.00    +0.045 A 
ATOM     23  S   UNL     1      -2.022  -7.130  -1.268  0.00  0.00    -0.100 S 
ENDBRANCH  18  19
BRANCH  18  24
ATOM     24  C   UNL     1      -2.294  -7.642   2.316  0.00  0.00    +0.014 C 
ATOM     25  C   UNL     1      -3.648  -8.377   2.389  0.00  0.00    +0.006 C 
ATOM     26  C   UNL     1      -3.651  -9.029   3.794  0.00  0.00    +0.000 C 
ATOM     27  C   UNL     1      -2.969  -7.951   4.672  0.00  0.00    +0.000 C 
ATOM     28  C   UNL     1      -1.862  -7.371   3.767  0.00  0.00    +0.006 C 
ENDBRANCH  18  24
ENDBRANCH   3  18
TORSDOF 8
