REMARK  Name = ZINC39608227
REMARK  10 active torsions:
REMARK  status: ('A' for Active; 'I' for Inactive)
REMARK    1  A    between atoms: C_1  and  C_2
REMARK    2  A    between atoms: C_2  and  C_4
REMARK    3  A    between atoms: C_2  and  N_7
REMARK    4  A    between atoms: C_4  and  C_5
REMARK    5  A    between atoms: C_4  and  C_6
REMARK    6  A    between atoms: C_8  and  C_10
REMARK    7  A    between atoms: C_21  and  C_23
REMARK    8  A    between atoms: C_29  and  O_31
REMARK    9  A    between atoms: O_31  and  C_32
REMARK   10  A    between atoms: C_32  and  C_33
REMARK                            x       y       z     vdW  Elec       q    Type
REMARK                         _______ _______ _______ _____ _____    ______ ____
ROOT
ATOM      1  C   UNL     1      -3.442  -1.177   1.191  0.00  0.00    +0.100 C 
ATOM      2  C   UNL     1      -3.507  -2.570   0.526  0.00  0.00    +0.121 C 
ATOM      3  N   UNL     1      -3.410  -3.528   1.653  0.00  0.00    -0.300 N 
ATOM      4  C   UNL     1      -4.224  -2.915   2.729  0.00  0.00    +0.115 C 
ATOM      5  C   UNL     1      -3.917  -1.407   2.636  0.00  0.00    -0.004 C 
ATOM      6  C   UNL     1      -5.178  -0.593   2.914  0.00  0.00    -0.010 C 
ATOM      7  C   UNL     1      -5.598  -0.792   4.373  0.00  0.00    -0.082 C 
ATOM      8  N   UNL     1      -4.509  -0.364   5.260  0.00  0.00    +0.379 N 
ATOM      9  C   UNL     1      -3.330  -1.213   5.051  0.00  0.00    -0.082 C 
ATOM     10  C   UNL     1      -2.814  -1.032   3.621  0.00  0.00    -0.010 C 
ATOM     11  C   UNL     1      -2.734  -4.693   1.690  0.00  0.00    +0.219 C 
ATOM     12  O   UNL     1      -2.752  -5.372   2.695  0.00  0.00    -0.275 OA
ATOM     13  H   UNL     1      -4.271   0.596   5.059  0.00  0.00    -0.086 HD
ATOM     14  H   UNL     1      -4.810  -0.439   6.220  0.00  0.00    -0.086 HD
ENDROOT
BRANCH  11  15
ATOM     15  C   UNL     1      -1.956  -5.152   0.483  0.00  0.00    +0.078 C 
ATOM     16  C   UNL     1      -2.907  -5.312  -0.705  0.00  0.00    +0.032 C 
ATOM     17  C   UNL     1      -2.108  -5.746  -1.938  0.00  0.00    +0.112 C 
ATOM     18  N   UNL     1      -1.347  -6.958  -1.607  0.00  0.00    -0.267 N 
ATOM     19  C   UNL     1      -0.470  -6.941  -0.428  0.00  0.00    +0.112 C 
ATOM     20  C   UNL     1      -1.288  -6.495   0.788  0.00  0.00    +0.032 C 
ATOM     21  C   UNL     1      -1.452  -8.065  -2.369  0.00  0.00    +0.403 C 
ATOM     22  O   UNL     1      -2.180  -8.066  -3.341  0.00  0.00    -0.226 OA
BRANCH  21  23
ATOM     23  O   UNL     1      -0.748  -9.168  -2.053  0.00  0.00    -0.445 OA
BRANCH  23  24
ATOM     24  C   UNL     1      -0.908 -10.305  -2.905  0.00  0.00    +0.269 C 
BRANCH  24  25
ATOM     25  C   UNL     1      -0.050 -11.436  -2.399  0.00  0.00    -0.010 A 
ATOM     26  C   UNL     1       1.252 -11.568  -2.844  0.00  0.00    +0.007 A 
ATOM     27  C   UNL     1       2.039 -12.606  -2.380  0.00  0.00    +0.000 A 
ATOM     28  C   UNL     1       1.523 -13.511  -1.471  0.00  0.00    +0.000 A 
ATOM     29  C   UNL     1       0.221 -13.378  -1.026  0.00  0.00    +0.000 A 
ATOM     30  C   UNL     1      -0.564 -12.338  -1.487  0.00  0.00    +0.007 A 
ENDBRANCH  24  25
ENDBRANCH  23  24
ENDBRANCH  21  23
ENDBRANCH  11  15
BRANCH   1  32
ATOM     31  N   UNL     1      -1.800   0.673   1.157  0.00  0.00    -0.312 N 
ATOM     32  C   UNL     1      -2.029  -0.655   1.181  0.00  0.00    +0.218 C 
ATOM     33  O   UNL     1      -1.096  -1.431   1.194  0.00  0.00    -0.275 OA
ATOM     34  H   UNL     1      -2.546   1.293   1.146  0.00  0.00    +0.149 HD
BRANCH  31  36
ATOM     35  C   UNL     1       0.097   1.264   2.582  0.00  0.00    +0.028 C 
ATOM     36  C   UNL     1      -0.426   1.180   1.146  0.00  0.00    +0.072 C 
BRANCH  36  37
ATOM     37  C   UNL     1      -0.401   2.572   0.512  0.00  0.00    +0.003 C 
ATOM     38  C   UNL     1       1.034   3.102   0.501  0.00  0.00    +0.009 C 
ATOM     39  C   UNL     1      -0.924   2.488  -0.923  0.00  0.00    +0.009 C 
ENDBRANCH  36  37
ENDBRANCH  31  36
ENDBRANCH   1  32
TORSDOF 7
