REMARK  Name = ZINC11997930
REMARK  14 active torsions:
REMARK  status: ('A' for Active; 'I' for Inactive)
REMARK    1  A    between atoms: C_1  and  C_2
REMARK    2  A    between atoms: C_2  and  C_3
REMARK    3  A    between atoms: C_2  and  C_4
REMARK    4  A    between atoms: C_4  and  C_5
REMARK    5  A    between atoms: C_5  and  C_6
REMARK    6  A    between atoms: C_11  and  C_14
REMARK    7  A    between atoms: C_14  and  C_25
REMARK    8  A    between atoms: N_17  and  C_21
REMARK    9  A    between atoms: C_21  and  C_22
REMARK   10  A    between atoms: C_22  and  N_73
REMARK   11  A    between atoms: C_23  and  N_73
REMARK   12  A    between atoms: C_24  and  N_73
REMARK   13  A    between atoms: C_25  and  C_26
REMARK   14  A    between atoms: C_26  and  C_27
REMARK                            x       y       z     vdW  Elec       q    Type
REMARK                         _______ _______ _______ _____ _____    ______ ____
ROOT
ATOM      1  C   UNL     1      -1.613   3.635  -2.394  0.00  0.00    +0.116 C 
ATOM      2  C   UNL     1      -2.910   2.883  -2.616  0.00  0.00    +0.247 C 
ATOM      3  O   UNL     1      -3.867   2.839  -1.874  0.00  0.00    -0.273 OA
ATOM      4  N   UNL     1      -2.777   2.273  -3.811  0.00  0.00    -0.226 N 
ATOM      5  C   UNL     1      -1.589   2.533  -4.368  0.00  0.00    +0.309 C 
ATOM      6  O   UNL     1      -1.239   2.095  -5.447  0.00  0.00    -0.252 OA
ATOM      7  N   UNL     1      -0.824   3.337  -3.602  0.00  0.00    -0.285 N 
ATOM      8  H   UNL     1       0.069   3.657  -3.805  0.00  0.00    +0.151 HD
ENDROOT
BRANCH   1  14
ATOM      9  C   UNL     1      -1.091   0.697   2.171  0.00  0.00    +0.216 C 
ATOM     10  O   UNL     1      -0.866  -0.488   2.044  0.00  0.00    -0.276 OA
ATOM     11  N   UNL     1      -0.706   1.562   1.213  0.00  0.00    -0.301 N 
ATOM     12  C   UNL     1      -0.013   1.086   0.008  0.00  0.00    +0.108 C 
ATOM     13  C   UNL     1      -0.759   1.596  -1.228  0.00  0.00    +0.025 C 
ATOM     14  C   UNL     1      -0.898   3.118  -1.144  0.00  0.00    +0.024 C 
ATOM     15  C   UNL     1      -1.711   3.490   0.099  0.00  0.00    +0.025 C 
ATOM     16  C   UNL     1      -0.975   3.001   1.350  0.00  0.00    +0.108 C 
BRANCH   9  17
ATOM     17  C   UNL     1      -1.801   1.201   3.401  0.00  0.00    +0.096 C 
BRANCH  17  18
ATOM     18  C   UNL     1      -2.125   0.023   4.322  0.00  0.00    +0.012 C 
BRANCH  18  20
ATOM     19  C   UNL     1      -3.280  -0.653   6.432  0.00  0.00    +0.007 C 
ATOM     20  C   UNL     1      -2.846   0.535   5.571  0.00  0.00    -0.017 C 
ATOM     21  C   UNL     1      -1.900   1.430   6.375  0.00  0.00    +0.007 C 
ENDBRANCH  18  20
ENDBRANCH  17  18
ENDBRANCH   9  17
ENDBRANCH   1  14
BRANCH   4  22
ATOM     22  C   UNL     1      -3.807   1.429  -4.423  0.00  0.00    +0.099 C 
BRANCH  22  23
ATOM     23  C   UNL     1      -4.726   2.293  -5.289  0.00  0.00    -0.060 C 
BRANCH  23  26
ATOM     24  C   UNL     1      -6.795   2.265  -6.546  0.00  0.00    -0.097 C 
ATOM     25  C   UNL     1      -5.165   0.502  -6.858  0.00  0.00    -0.097 C 
ATOM     26  N   UNL     1      -5.771   1.432  -5.882  0.00  0.00    +0.377 N 
ATOM     27  H   UNL     1      -6.217   0.887  -5.135  0.00  0.00    -0.083 HD
ENDBRANCH  23  26
ENDBRANCH  22  23
ENDBRANCH   4  22
BRANCH   1  28
ATOM     28  C   UNL     1      -1.875   5.138  -2.279  0.00  0.00    +0.040 C 
BRANCH  28  29
ATOM     29  C   UNL     1      -2.589   5.629  -3.540  0.00  0.00    +0.038 C 
BRANCH  29  30
ATOM     30  C   UNL     1      -2.848   7.109  -3.427  0.00  0.00    -0.047 A 
ATOM     31  C   UNL     1      -4.027   7.564  -2.868  0.00  0.00    +0.003 A 
ATOM     32  C   UNL     1      -4.262   8.922  -2.760  0.00  0.00    +0.000 A 
ATOM     33  C   UNL     1      -3.322   9.825  -3.220  0.00  0.00    +0.000 A 
ATOM     34  C   UNL     1      -2.145   9.370  -3.784  0.00  0.00    +0.000 A 
ATOM     35  C   UNL     1      -1.908   8.012  -3.888  0.00  0.00    +0.003 A 
ENDBRANCH  29  30
ENDBRANCH  28  29
ENDBRANCH   1  28
TORSDOF 10
