REMARK  Name = ZINC23483370
REMARK  11 active torsions:
REMARK  status: ('A' for Active; 'I' for Inactive)
REMARK    1  A    between atoms: C_1  and  C_2
REMARK    2  A    between atoms: C_2  and  C_4
REMARK    3  A    between atoms: C_2  and  N_33
REMARK    4  A    between atoms: C_7  and  S_16
REMARK    5  A    between atoms: N_8  and  C_9
REMARK    6  A    between atoms: S_16  and  C_17
REMARK    7  A    between atoms: C_17  and  C_19
REMARK    8  A    between atoms: C_17  and  C_20
REMARK    9  A    between atoms: N_22  and  C_23
REMARK   10  A    between atoms: N_33  and  C_34
REMARK   11  A    between atoms: N_33  and  C_35
REMARK                            x       y       z     vdW  Elec       q    Type
REMARK                         _______ _______ _______ _____ _____    ______ ____
ROOT
ATOM      1  C   UNL     1      -5.167  11.829  -1.390  0.00  0.00    +0.125 A 
ATOM      2  N   UNL     1      -3.982  11.582  -0.907  0.00  0.00    -0.135 NA
ATOM      3  N   UNL     1      -3.856  10.327  -0.663  0.00  0.00    -0.122 NA
ATOM      4  C   UNL     1      -4.964   9.697  -0.980  0.00  0.00    +0.197 A 
ATOM      5  N   UNL     1      -5.835  10.636  -1.459  0.00  0.00    -0.275 N 
ENDROOT
BRANCH   5   6
ATOM      6  C   UNL     1      -7.142  10.421  -1.922  0.00  0.00    +0.050 A 
ATOM      7  C   UNL     1      -7.455  10.658  -3.253  0.00  0.00    +0.028 A 
ATOM      8  C   UNL     1      -8.742  10.442  -3.708  0.00  0.00    +0.022 A 
ATOM      9  C   UNL     1      -9.720  10.000  -2.835  0.00  0.00    +0.041 A 
ATOM     10  C   UNL     1      -9.411   9.768  -1.506  0.00  0.00    +0.022 A 
ATOM     11  C   UNL     1      -8.125   9.978  -1.048  0.00  0.00    +0.028 A 
ATOM     12 CL   UNL     1     -11.337   9.735  -3.408  0.00  0.00    -0.084 Cl
ENDBRANCH   5   6
BRANCH   1  14
ATOM     13  C   UNL     1      -5.073  13.589  -3.134  0.00  0.00    -0.005 C 
ATOM     14  C   UNL     1      -5.701  13.177  -1.801  0.00  0.00    -0.003 C 
BRANCH  14  15
ATOM     15  N   UNL     1      -5.364  14.171  -0.773  0.00  0.00    +0.382 N 
ATOM     16  C   UNL     1      -5.870  15.501  -1.141  0.00  0.00    -0.096 C 
ATOM     17  C   UNL     1      -5.872  13.761   0.543  0.00  0.00    -0.096 C 
ATOM     18  H   UNL     1      -4.268  14.233  -0.709  0.00  0.00    -0.082 HD
ENDBRANCH  14  15
ENDBRANCH   1  14
BRANCH   4  19
ATOM     19  S   UNL     1      -5.267   7.968  -0.824  0.00  0.00    -0.073 S 
BRANCH  19  20
ATOM     20  C   UNL     1      -3.678   7.430  -0.145  0.00  0.00    +0.137 C 
ATOM     21  C   UNL     1      -3.484   8.042   1.244  0.00  0.00    +0.029 C 
BRANCH  20  22
ATOM     22  C   UNL     1      -3.661   5.927  -0.038  0.00  0.00    +0.230 C 
ATOM     23  O   UNL     1      -4.704   5.307  -0.030  0.00  0.00    -0.274 OA
ATOM     24  N   UNL     1      -2.487   5.271   0.050  0.00  0.00    -0.284 N 
ATOM     25  H   UNL     1      -1.545   5.835   0.119  0.00  0.00    +0.155 HD
BRANCH  24  26
ATOM     26  C   UNL     1      -2.466   3.875   0.054  0.00  0.00    +0.041 A 
ATOM     27  C   UNL     1      -3.480   3.166   0.661  0.00  0.00    +0.024 A 
ATOM     28  C   UNL     1      -3.468   1.774   0.671  0.00  0.00    +0.002 A 
ATOM     29  C   UNL     1      -2.458   1.076   0.082  0.00  0.00    +0.008 A 
ATOM     30  C   UNL     1      -1.408   1.761  -0.552  0.00  0.00    -0.016 A 
ATOM     31  C   UNL     1      -1.406   3.177  -0.563  0.00  0.00    +0.003 A 
ATOM     32  C   UNL     1      -0.353   3.860  -1.193  0.00  0.00    +0.010 A 
ATOM     33  C   UNL     1       0.653   3.154  -1.779  0.00  0.00    +0.001 A 
ATOM     34  C   UNL     1       0.654   1.761  -1.764  0.00  0.00    +0.001 A 
ATOM     35  C   UNL     1      -0.350   1.066  -1.163  0.00  0.00    +0.008 A 
ENDBRANCH  24  26
ENDBRANCH  20  22
ENDBRANCH  19  20
ENDBRANCH   4  19
TORSDOF 7
