REMARK  Name = ZINC20347771
REMARK  12 active torsions:
REMARK  status: ('A' for Active; 'I' for Inactive)
REMARK    1  A    between atoms: C_1  and  C_2
REMARK    2  A    between atoms: C_2  and  C_3
REMARK    3  A    between atoms: C_8  and  N_9
REMARK    4  A    between atoms: C_10  and  C_12
REMARK    5  A    between atoms: C_12  and  S_13
REMARK    6  A    between atoms: S_13  and  C_14
REMARK    7  A    between atoms: C_15  and  C_37
REMARK    8  A    between atoms: C_16  and  C_32
REMARK    9  A    between atoms: C_18  and  C_22
REMARK   10  A    between atoms: C_19  and  C_21
REMARK   11  A    between atoms: N_24  and  C_25
REMARK   12  A    between atoms: C_30  and  C_31
REMARK                            x       y       z     vdW  Elec       q    Type
REMARK                         _______ _______ _______ _____ _____    ______ ____
ROOT
ATOM      1  C   UNL     1       1.828  -0.776   0.731  0.00  0.00    +0.080 C 
ATOM      2  C   UNL     1       0.565  -0.273   0.757  0.00  0.00    +0.072 C 
ATOM      3  C   UNL     1      -0.111   0.202  -0.498  0.00  0.00    +0.134 C 
ATOM      4  C   UNL     1       0.604  -0.310  -1.716  0.00  0.00    +0.047 C 
ATOM      5  C   UNL     1       1.849  -0.806  -1.649  0.00  0.00    +0.015 C 
ATOM      6  N   UNL     1       2.519  -0.870  -0.457  0.00  0.00    -0.312 N 
ATOM      7  C   UNL     1       2.521  -1.298  -2.905  0.00  0.00    +0.061 C 
ATOM      8  H   UNL     1       3.611  -0.996  -0.450  0.00  0.00    +0.152 HD
ENDROOT
BRANCH   3   9
ATOM      9  C   UNL     1      -0.111   1.709  -0.521  0.00  0.00    +0.118 A 
ATOM     10  C   UNL     1      -1.201   2.495  -0.555  0.00  0.00    +0.045 A 
ATOM     11  C   UNL     1      -0.742   3.832  -0.564  0.00  0.00    +0.041 A 
ATOM     12  C   UNL     1       0.602   3.783  -0.542  0.00  0.00    +0.195 A 
ATOM     13  O   UNL     1       0.979   2.494  -0.516  0.00  0.00    -0.467 OA
ENDBRANCH   3   9
BRANCH   4  14
ATOM     14  C   UNL     1      -0.054  -0.271  -2.968  0.00  0.00    +0.247 C 
ATOM     15  O   UNL     1       0.510  -0.682  -3.966  0.00  0.00    -0.270 OA
ATOM     16  N   UNL     1      -1.306   0.222  -3.057  0.00  0.00    -0.281 N 
ATOM     17  H   UNL     1      -1.850   0.508  -2.145  0.00  0.00    +0.155 HD
BRANCH  16  18
ATOM     18  C   UNL     1      -1.912   0.369  -4.309  0.00  0.00    +0.037 A 
ATOM     19  C   UNL     1      -1.130   0.516  -5.448  0.00  0.00    +0.023 A 
ATOM     20  C   UNL     1      -1.732   0.662  -6.682  0.00  0.00    +0.002 A 
ATOM     21  C   UNL     1      -3.111   0.661  -6.785  0.00  0.00    +0.000 A 
ATOM     22  C   UNL     1      -3.892   0.515  -5.653  0.00  0.00    +0.005 A 
ATOM     23  C   UNL     1      -3.296   0.363  -4.416  0.00  0.00    -0.029 A 
ATOM     24  C   UNL     1      -4.148   0.198  -3.184  0.00  0.00    +0.045 C 
ENDBRANCH  16  18
ENDBRANCH   4  14
BRANCH   2  25
ATOM     25  C   UNL     1      -0.135  -0.196   2.004  0.00  0.00    +0.098 C 
ATOM     26  N   UNL     1      -0.689  -0.134   2.993  0.00  0.00    -0.191 NA
ENDBRANCH   2  25
BRANCH   1  27
ATOM     27  S   UNL     1       2.587  -1.312   2.228  0.00  0.00    -0.100 S 
BRANCH  27  28
ATOM     28  C   UNL     1       4.191  -1.857   1.590  0.00  0.00    +0.171 C 
BRANCH  28  30
ATOM     29  N   UNL     1       6.279  -2.833   2.487  0.00  0.00    -0.285 N 
ATOM     30  C   UNL     1       5.036  -2.372   2.727  0.00  0.00    +0.227 C 
ATOM     31  O   UNL     1       4.597  -2.370   3.857  0.00  0.00    -0.275 OA
ATOM     32  H   UNL     1       6.707  -2.763   1.476  0.00  0.00    +0.155 HD
BRANCH  29  38
ATOM     33  C   UNL     1       7.889  -4.459   3.262  0.00  0.00    -0.026 A 
ATOM     34  C   UNL     1       8.624  -5.019   4.289  0.00  0.00    +0.005 A 
ATOM     35  C   UNL     1       8.502  -4.529   5.576  0.00  0.00    +0.000 A 
ATOM     36  C   UNL     1       7.644  -3.477   5.840  0.00  0.00    +0.002 A 
ATOM     37  C   UNL     1       6.909  -2.910   4.818  0.00  0.00    +0.023 A 
ATOM     38  C   UNL     1       7.026  -3.403   3.525  0.00  0.00    +0.037 A 
BRANCH  33  40
ATOM     39  C   UNL     1       9.048  -4.156   1.091  0.00  0.00    +0.009 C 
ATOM     40  C   UNL     1       8.023  -4.993   1.860  0.00  0.00    +0.033 C 
ENDBRANCH  33  40
ENDBRANCH  29  38
ENDBRANCH  28  30
ENDBRANCH  27  28
ENDBRANCH   1  27
TORSDOF 9
