REMARK  Name = ZINC63221847
REMARK  10 active torsions:
REMARK  status: ('A' for Active; 'I' for Inactive)
REMARK    1  A    between atoms: C_1  and  C_2
REMARK    2  A    between atoms: C_2  and  O_3
REMARK    3  A    between atoms: O_3  and  C_4
REMARK    4  A    between atoms: C_7  and  N_10
REMARK    5  A    between atoms: C_11  and  C_32
REMARK    6  A    between atoms: C_14  and  S_15
REMARK    7  A    between atoms: S_15  and  C_16
REMARK    8  A    between atoms: C_16  and  C_18
REMARK    9  A    between atoms: C_16  and  C_19
REMARK   10  A    between atoms: C_29  and  C_31
REMARK                            x       y       z     vdW  Elec       q    Type
REMARK                         _______ _______ _______ _____ _____    ______ ____
ROOT
ATOM      1  N   UNL     1       1.080  -5.917  -1.749  0.00  0.00    -0.270 N 
ATOM      2  C   UNL     1       2.251  -6.655  -1.790  0.00  0.00    +0.168 A 
ATOM      3  N   UNL     1       1.908  -7.911  -2.042  0.00  0.00    -0.128 NA
ATOM      4  N   UNL     1       0.631  -7.997  -2.158  0.00  0.00    -0.122 NA
ATOM      5  C   UNL     1       0.075  -6.808  -1.982  0.00  0.00    +0.197 A 
ENDROOT
BRANCH   2   6
ATOM      6  C   UNL     1       3.553  -6.167  -1.600  0.00  0.00    +0.025 C 
ATOM      7  C   UNL     1       4.742  -6.896  -1.643  0.00  0.00    +0.006 A 
ATOM      8  C   UNL     1       5.015  -8.261  -1.874  0.00  0.00    +0.010 A 
ATOM      9  C   UNL     1       6.299  -8.704  -1.858  0.00  0.00    +0.001 A 
ATOM     10  C   UNL     1       7.367  -7.838  -1.616  0.00  0.00    +0.002 A 
ATOM     11  C   UNL     1       7.178  -6.515  -1.386  0.00  0.00    +0.026 A 
ATOM     12  C   UNL     1       5.865  -5.979  -1.388  0.00  0.00    +0.043 A 
ATOM     13  N   UNL     1       5.423  -4.752  -1.196  0.00  0.00    -0.380 N 
ATOM     14  C   UNL     1       3.962  -4.739  -1.312  0.00  0.00    +0.152 C 
ATOM     15  H   UNL     1       5.978  -3.978  -1.010  0.00  0.00    +0.160 HD
ENDBRANCH   2   6
BRANCH   1  19
ATOM     16  C   UNL     1       0.706  -1.823  -1.043  0.00  0.00    +0.121 A 
ATOM     17  C   UNL     1       0.184  -2.734  -0.136  0.00  0.00    +0.047 A 
ATOM     18  C   UNL     1       0.307  -4.090  -0.369  0.00  0.00    +0.030 A 
ATOM     19  C   UNL     1       0.954  -4.541  -1.512  0.00  0.00    +0.051 A 
ATOM     20  C   UNL     1       1.475  -3.629  -2.420  0.00  0.00    +0.030 A 
ATOM     21  C   UNL     1       1.347  -2.274  -2.188  0.00  0.00    +0.047 A 
BRANCH  16  22
ATOM     22  O   UNL     1       0.584  -0.489  -0.813  0.00  0.00    -0.492 OA
BRANCH  22  24
ATOM     23  C   UNL     1      -0.127   1.431   0.472  0.00  0.00    +0.048 C 
ATOM     24  C   UNL     1      -0.088  -0.097   0.386  0.00  0.00    +0.225 C 
ENDBRANCH  22  24
ENDBRANCH  16  22
ENDBRANCH   1  19
BRANCH   5  25
ATOM     25  S   UNL     1      -1.648  -6.443  -2.043  0.00  0.00    -0.073 S 
BRANCH  25  26
ATOM     26  C   UNL     1      -2.424  -8.046  -2.387  0.00  0.00    +0.137 C 
ATOM     27  C   UNL     1      -2.187  -8.991  -1.207  0.00  0.00    +0.029 C 
BRANCH  26  28
ATOM     28  C   UNL     1      -3.905  -7.855  -2.587  0.00  0.00    +0.233 C 
ATOM     29  O   UNL     1      -4.459  -6.879  -2.126  0.00  0.00    -0.274 OA
ATOM     30  N   UNL     1      -4.615  -8.768  -3.279  0.00  0.00    -0.267 N 
ATOM     31  C   UNL     1      -4.113  -9.984  -3.752  0.00  0.00    +0.040 A 
ATOM     32  C   UNL     1      -2.828 -10.517  -3.631  0.00  0.00    +0.024 A 
ATOM     33  C   UNL     1      -2.532 -11.748  -4.176  0.00  0.00    +0.002 A 
ATOM     34  C   UNL     1      -3.506 -12.465  -4.848  0.00  0.00    +0.000 A 
ATOM     35  C   UNL     1      -4.781 -11.943  -4.972  0.00  0.00    +0.005 A 
ATOM     36  C   UNL     1      -5.082 -10.710  -4.426  0.00  0.00    -0.024 A 
ATOM     37  C   UNL     1      -6.370  -9.918  -4.415  0.00  0.00    +0.059 C 
ATOM     38  C   UNL     1      -6.029  -8.635  -3.640  0.00  0.00    +0.083 C 
ATOM     39  C   UNL     1      -6.236  -7.409  -4.532  0.00  0.00    +0.029 C 
ENDBRANCH  26  28
ENDBRANCH  25  26
ENDBRANCH   5  25
TORSDOF 7
