REMARK  Name = ZINC35220032
REMARK  5 active torsions:
REMARK  status: ('A' for Active; 'I' for Inactive)
REMARK    1  A    between atoms: C_1  and  C_2
REMARK    2  A    between atoms: C_9  and  S_14
REMARK    3  A    between atoms: S_14  and  N_17
REMARK    4  A    between atoms: C_21  and  C_24
REMARK    5  A    between atoms: N_26  and  C_27
REMARK                            x       y       z     vdW  Elec       q    Type
REMARK                         _______ _______ _______ _____ _____    ______ ____
ROOT
ATOM      1  N   UNL     1       0.571  -7.081   1.069  0.00  0.00    -0.176 NA
ATOM      2  C   UNL     1      -0.368  -7.440  -0.002  0.00  0.00    +0.109 C 
ATOM      3  C   UNL     1       0.192  -6.941  -1.337  0.00  0.00    +0.018 C 
ATOM      4  C   UNL     1       1.607  -7.493  -1.530  0.00  0.00    +0.015 C 
ATOM      5  C   UNL     1       2.512  -6.985  -0.406  0.00  0.00    +0.091 C 
ATOM      6  C   UNL     1       1.979  -7.479   0.937  0.00  0.00    +0.122 C 
ENDROOT
BRANCH   5   7
ATOM      7  C   UNL     1       3.912  -7.502  -0.616  0.00  0.00    +0.222 C 
ATOM      8  O   UNL     1       4.434  -8.199   0.229  0.00  0.00    -0.275 OA
ATOM      9  N   UNL     1       4.585  -7.190  -1.741  0.00  0.00    -0.283 N 
ATOM     10  H   UNL     1       4.146  -6.687  -2.445  0.00  0.00    +0.155 HD
BRANCH   9  11
ATOM     11  C   UNL     1       5.918  -7.592  -1.895  0.00  0.00    +0.069 A 
ATOM     12  C   UNL     1       6.344  -8.803  -1.368  0.00  0.00    +0.027 A 
ATOM     13  C   UNL     1       7.659  -9.198  -1.521  0.00  0.00    +0.022 A 
ATOM     14  C   UNL     1       8.552  -8.387  -2.199  0.00  0.00    +0.044 A 
ATOM     15  C   UNL     1       8.132  -7.179  -2.726  0.00  0.00    +0.060 A 
ATOM     16  C   UNL     1       6.815  -6.781  -2.581  0.00  0.00    +0.146 A 
ATOM     17  F   UNL     1       6.403  -5.604  -3.100  0.00  0.00    -0.203 F 
ATOM     18 CL   UNL     1      10.204  -8.887  -2.388  0.00  0.00    -0.083 Cl
ENDBRANCH   9  11
ENDBRANCH   5   7
BRANCH   1  19
ATOM     19  S   UNL     1       0.054  -6.238   2.397  0.00  0.00    +0.061 S 
ATOM     20  O   UNL     1       0.974  -6.521   3.442  0.00  0.00    -0.153 OA
ATOM     21  O   UNL     1      -1.339  -6.488   2.520  0.00  0.00    -0.153 OA
BRANCH  19  29
ATOM     22  C   UNL     1      -0.090   1.490   0.002  0.00  0.00    +0.062 C 
ATOM     23  C   UNL     1      -0.058  -0.040  -0.009  0.00  0.00    +0.256 C 
ATOM     24  C   UNL     1      -1.468  -0.572  -0.006  0.00  0.00    +0.258 C 
ATOM     25  O   UNL     1      -2.365   0.079  -0.500  0.00  0.00    -0.271 OA
ATOM     26  N   UNL     1      -1.730  -1.775   0.549  0.00  0.00    -0.279 N 
ATOM     27  C   UNL     1      -0.681  -2.490   1.145  0.00  0.00    +0.078 A 
ATOM     28  C   UNL     1      -0.819  -3.837   1.437  0.00  0.00    +0.055 A 
ATOM     29  C   UNL     1       0.227  -4.524   2.026  0.00  0.00    +0.107 A 
ATOM     30  C   UNL     1       1.408  -3.870   2.324  0.00  0.00    +0.032 A 
ATOM     31  C   UNL     1       1.552  -2.525   2.035  0.00  0.00    +0.049 A 
ATOM     32  C   UNL     1       0.510  -1.831   1.445  0.00  0.00    +0.143 A 
ATOM     33  O   UNL     1       0.634  -0.509   1.152  0.00  0.00    -0.478 OA
ATOM     34  H   UNL     1      -2.628  -2.139   0.535  0.00  0.00    +0.155 HD
ENDBRANCH  19  29
ENDBRANCH   1  19
TORSDOF 4
