REMARK  Name = ZINC27695018
REMARK  14 active torsions:
REMARK  status: ('A' for Active; 'I' for Inactive)
REMARK    1  A    between atoms: C_1  and  C_2
REMARK    2  A    between atoms: C_2  and  C_4
REMARK    3  A    between atoms: C_2  and  C_14
REMARK    4  A    between atoms: C_7  and  C_10
REMARK    5  A    between atoms: C_10  and  C_11
REMARK    6  A    between atoms: C_11  and  C_12
REMARK    7  A    between atoms: C_11  and  C_13
REMARK    8  A    between atoms: N_22  and  C_23
REMARK    9  A    between atoms: C_23  and  C_24
REMARK   10  A    between atoms: C_24  and  C_26
REMARK   11  A    between atoms: C_24  and  O_35
REMARK   12  A    between atoms: C_26  and  N_27
REMARK   13  A    between atoms: N_27  and  C_28
REMARK   14  A    between atoms: N_27  and  C_29
REMARK                            x       y       z     vdW  Elec       q    Type
REMARK                         _______ _______ _______ _____ _____    ______ ____
ROOT
ATOM      1  C   UNL     1       0.707  -0.490  -1.238  0.00  0.00    +0.118 A 
ATOM      2  N   UNL     1       1.943  -0.222  -1.546  0.00  0.00    -0.232 NA
ATOM      3  C   UNL     1       2.258  -0.815  -2.726  0.00  0.00    +0.089 A 
ATOM      4  C   UNL     1       3.418  -0.857  -3.505  0.00  0.00    +0.030 A 
ATOM      5  C   UNL     1       3.426  -1.558  -4.677  0.00  0.00    +0.002 A 
ATOM      6  C   UNL     1       2.291  -2.232  -5.107  0.00  0.00    +0.002 A 
ATOM      7  C   UNL     1       1.136  -2.204  -4.355  0.00  0.00    +0.028 A 
ATOM      8  C   UNL     1       1.109  -1.498  -3.161  0.00  0.00    +0.069 A 
ATOM      9  N   UNL     1       0.147  -1.278  -2.195  0.00  0.00    -0.325 N 
ENDROOT
BRANCH   1  11
ATOM     10  C   UNL     1      -0.019   1.526   0.010  0.00  0.00    +0.020 C 
ATOM     11  C   UNL     1       0.002  -0.004   0.002  0.00  0.00    +0.082 C 
BRANCH  11  12
ATOM     12  C   UNL     1       0.731  -0.503   1.223  0.00  0.00    -0.037 A 
ATOM     13  C   UNL     1       2.050  -0.148   1.434  0.00  0.00    +0.004 A 
ATOM     14  C   UNL     1       2.719  -0.606   2.554  0.00  0.00    +0.004 A 
ATOM     15  C   UNL     1       2.068  -1.419   3.463  0.00  0.00    -0.047 A 
ATOM     16  C   UNL     1       0.749  -1.773   3.252  0.00  0.00    +0.004 A 
ATOM     17  C   UNL     1       0.079  -1.312   2.135  0.00  0.00    +0.004 A 
BRANCH  15  18
ATOM     18  C   UNL     1       2.797  -1.919   4.683  0.00  0.00    +0.038 C 
BRANCH  18  19
ATOM     19  C   UNL     1       2.614  -0.923   5.830  0.00  0.00    -0.013 C 
ATOM     20  C   UNL     1       1.139  -0.874   6.232  0.00  0.00    +0.007 C 
ATOM     21  C   UNL     1       3.455  -1.366   7.029  0.00  0.00    +0.007 C 
ENDBRANCH  18  19
ENDBRANCH  15  18
ENDBRANCH  11  12
ENDBRANCH   1  11
BRANCH   9  22
ATOM     22  C   UNL     1      -1.224  -1.794  -2.201  0.00  0.00    +0.153 C 
BRANCH  22  23
ATOM     23  C   UNL     1      -2.141  -0.798  -2.914  0.00  0.00    +0.118 C 
BRANCH  23  24
ATOM     24  O   UNL     1      -2.198   0.417  -2.165  0.00  0.00    -0.392 OA
ATOM     25  H   UNL     1      -2.538   0.309  -1.266  0.00  0.00    +0.210 HD
ENDBRANCH  23  24
BRANCH  23  26
ATOM     26  C   UNL     1      -3.546  -1.392  -3.031  0.00  0.00    -0.045 C 
BRANCH  26  27
ATOM     27  N   UNL     1      -4.395  -0.489  -3.820  0.00  0.00    +0.381 N 
ATOM     28  C   UNL     1      -3.888  -0.417  -5.196  0.00  0.00    -0.096 C 
ATOM     29  H   UNL     1      -4.380   0.431  -3.407  0.00  0.00    -0.082 HD
BRANCH  27  30
ATOM     30  C   UNL     1      -5.773  -0.999  -3.832  0.00  0.00    -0.069 C 
ATOM     31  C   UNL     1      -6.657  -0.058  -4.652  0.00  0.00    -0.015 C 
ATOM     32  C   UNL     1      -8.092  -0.589  -4.665  0.00  0.00    -0.002 C 
ATOM     33  C   UNL     1      -8.621  -0.664  -3.231  0.00  0.00    -0.000 C 
ATOM     34  C   UNL     1      -7.736  -1.605  -2.410  0.00  0.00    -0.002 C 
ATOM     35  C   UNL     1      -6.301  -1.074  -2.398  0.00  0.00    -0.015 C 
ENDBRANCH  27  30
ENDBRANCH  26  27
ENDBRANCH  23  26
ENDBRANCH  22  23
ENDBRANCH   9  22
TORSDOF 10
