REMARK  Name = ZINC39324809
REMARK  9 active torsions:
REMARK  status: ('A' for Active; 'I' for Inactive)
REMARK    1  A    between atoms: C_1  and  C_2
REMARK    2  A    between atoms: C_2  and  C_3
REMARK    3  A    between atoms: C_10  and  C_15
REMARK    4  A    between atoms: C_15  and  N_16
REMARK    5  A    between atoms: N_16  and  C_17
REMARK    6  A    between atoms: N_16  and  S_23
REMARK    7  A    between atoms: C_17  and  C_18
REMARK    8  A    between atoms: S_23  and  C_26
REMARK    9  A    between atoms: C_31  and  C_32
REMARK                            x       y       z     vdW  Elec       q    Type
REMARK                         _______ _______ _______ _____ _____    ______ ____
ROOT
ATOM      1  N   UNL     1      -6.384  -4.168  -3.341  0.00  0.00    -0.171 NA
ENDROOT
BRANCH   1   2
ATOM      2  S   UNL     1      -7.157  -4.704  -1.979  0.00  0.00    +0.062 S 
ATOM      3  O   UNL     1      -6.574  -4.014  -0.882  0.00  0.00    -0.153 OA
ATOM      4  O   UNL     1      -8.550  -4.654  -2.256  0.00  0.00    -0.153 OA
BRANCH   2   5
ATOM      5  C   UNL     1      -6.744  -6.406  -1.780  0.00  0.00    +0.117 A 
ATOM      6  C   UNL     1      -5.982  -6.810  -0.700  0.00  0.00    +0.029 A 
ATOM      7  C   UNL     1      -5.658  -8.145  -0.544  0.00  0.00    +0.002 A 
ATOM      8  C   UNL     1      -6.096  -9.075  -1.468  0.00  0.00    +0.001 A 
ATOM      9  C   UNL     1      -6.859  -8.671  -2.547  0.00  0.00    +0.014 A 
ATOM     10  C   UNL     1      -7.187  -7.337  -2.701  0.00  0.00    +0.081 A 
BRANCH  10  11
ATOM     11  C   UNL     1      -8.023  -6.896  -3.875  0.00  0.00    +0.419 C 
ATOM     12  F   UNL     1      -8.220  -7.979  -4.739  0.00  0.00    -0.166 F 
ATOM     13  F   UNL     1      -9.262  -6.434  -3.418  0.00  0.00    -0.166 F 
ATOM     14  F   UNL     1      -7.364  -5.868  -4.557  0.00  0.00    -0.166 F 
ENDBRANCH  10  11
ENDBRANCH   2   5
ENDBRANCH   1   2
BRANCH   1  15
ATOM     15  C   UNL     1      -5.333  -4.984  -3.955  0.00  0.00    +0.126 C 
BRANCH  15  23
ATOM     16  C   UNL     1       0.257  -6.581  -4.460  0.00  0.00    -0.047 A 
ATOM     17  C   UNL     1       0.476  -6.421  -3.092  0.00  0.00    +0.005 A 
ATOM     18  C   UNL     1      -0.412  -5.796  -2.276  0.00  0.00    +0.024 A 
ATOM     19  C   UNL     1      -1.612  -5.274  -2.792  0.00  0.00    +0.040 A 
ATOM     20  N   UNL     1      -2.475  -4.661  -1.982  0.00  0.00    -0.284 N 
ATOM     21  C   UNL     1      -3.620  -4.149  -2.401  0.00  0.00    +0.225 C 
ATOM     22  O   UNL     1      -4.369  -3.601  -1.613  0.00  0.00    -0.275 OA
ATOM     23  C   UNL     1      -3.996  -4.247  -3.862  0.00  0.00    +0.114 C 
ATOM     24  C   UNL     1      -3.017  -4.942  -4.788  0.00  0.00    -0.003 C 
ATOM     25  C   UNL     1      -1.870  -5.428  -4.234  0.00  0.00    -0.007 A 
ATOM     26  C   UNL     1      -0.868  -6.108  -5.056  0.00  0.00    +0.013 A 
ATOM     27  H   UNL     1      -2.253  -4.588  -1.040  0.00  0.00    +0.155 HD
BRANCH  16  29
ATOM     28  C   UNL     1       2.303  -6.267  -5.825  0.00  0.00    +0.009 C 
ATOM     29  C   UNL     1       1.293  -7.287  -5.296  0.00  0.00    +0.032 C 
ENDBRANCH  16  29
ENDBRANCH  15  23
ENDBRANCH   1  15
BRANCH   1  30
ATOM     30  C   UNL     1      -6.750  -2.879  -3.932  0.00  0.00    +0.151 C 
BRANCH  30  31
ATOM     31  C   UNL     1      -7.688  -3.106  -5.090  0.00  0.00    +0.005 A 
ATOM     32  C   UNL     1      -9.043  -3.112  -5.102  0.00  0.00    +0.012 A 
ATOM     33  C   UNL     1      -9.702  -3.344  -6.295  0.00  0.00    +0.008 A 
ATOM     34  C   UNL     1      -8.973  -3.558  -7.418  0.00  0.00    +0.045 A 
ATOM     35  S   UNL     1      -7.302  -3.427  -6.803  0.00  0.00    -0.100 S 
ENDBRANCH  30  31
ENDBRANCH   1  30
TORSDOF 8
