REMARK  Name = ZINC05413539
REMARK  9 active torsions:
REMARK  status: ('A' for Active; 'I' for Inactive)
REMARK    1  A    between atoms: C_1  and  C_2
REMARK    2  A    between atoms: C_2  and  O_3
REMARK    3  A    between atoms: O_3  and  C_4
REMARK    4  A    between atoms: C_4  and  C_6
REMARK    5  A    between atoms: C_10  and  N_11
REMARK    6  A    between atoms: C_12  and  C_14
REMARK    7  A    between atoms: C_14  and  N_15
REMARK    8  A    between atoms: N_15  and  C_16
REMARK    9  A    between atoms: C_21  and  C_22
REMARK                            x       y       z     vdW  Elec       q    Type
REMARK                         _______ _______ _______ _____ _____    ______ ____
ROOT
ATOM      1  N   UNL     1       3.973   7.204   0.002  0.00  0.00    -0.278 N 
ATOM      2  C   UNL     1       3.746   5.875  -0.003  0.00  0.00    +0.235 C 
ATOM      3  O   UNL     1       4.679   5.101  -0.017  0.00  0.00    -0.274 OA
ATOM      4  H   UNL     1       3.226   7.823   0.013  0.00  0.00    +0.155 HD
ENDROOT
BRANCH   1   9
ATOM      5  C   UNL     1       5.704   9.005  -0.011  0.00  0.00    +0.091 A 
ATOM      6  C   UNL     1       7.138   9.243  -0.018  0.00  0.00    -0.021 A 
ATOM      7  C   UNL     1       7.905   8.131  -0.033  0.00  0.00    -0.004 A 
ATOM      8  S   UNL     1       6.753   6.786  -0.029  0.00  0.00    -0.077 S 
ATOM      9  C   UNL     1       5.272   7.685  -0.009  0.00  0.00    +0.086 A 
ATOM     10  C   UNL     1       9.401   8.066  -0.049  0.00  0.00    +0.043 C 
ATOM     11  C   UNL     1       9.941   9.454  -0.425  0.00  0.00    +0.005 C 
ATOM     12  C   UNL     1       9.226  10.508   0.425  0.00  0.00    +0.005 C 
ATOM     13  C   UNL     1       7.767  10.630  -0.016  0.00  0.00    +0.037 C 
BRANCH   5  14
ATOM     14  C   UNL     1       4.750  10.116  -0.003  0.00  0.00    +0.342 C 
ATOM     15  O   UNL     1       4.362  10.577   1.054  0.00  0.00    -0.245 OA
BRANCH  14  16
ATOM     16  O   UNL     1       4.301  10.628  -1.168  0.00  0.00    -0.461 OA
BRANCH  16  18
ATOM     17  C   UNL     1       2.964  12.172  -2.494  0.00  0.00    +0.048 C 
ATOM     18  C   UNL     1       3.357  11.728  -1.084  0.00  0.00    +0.229 C 
ENDBRANCH  16  18
ENDBRANCH  14  16
ENDBRANCH   5  14
ENDBRANCH   1   9
BRANCH   2  19
ATOM     19  C   UNL     1       2.333   5.352   0.008  0.00  0.00    +0.198 C 
BRANCH  19  20
ATOM     20  N   UNL     1       2.355   3.887   0.000  0.00  0.00    -0.335 N 
ATOM     21  H   UNL     1       3.202   3.414  -0.011  0.00  0.00    +0.147 HD
BRANCH  20  22
ATOM     22  C   UNL     1       1.156   3.171   0.008  0.00  0.00    +0.032 A 
ATOM     23  C   UNL     1      -0.058   3.846   0.023  0.00  0.00    +0.043 A 
ATOM     24  C   UNL     1      -1.243   3.134   0.031  0.00  0.00    +0.043 A 
ATOM     25  C   UNL     1      -1.220   1.750   0.017  0.00  0.00    +0.020 A 
ATOM     26  C   UNL     1      -0.013   1.076   0.008  0.00  0.00    +0.006 A 
ATOM     27  C   UNL     1       1.175   1.782   0.000  0.00  0.00    -0.030 A 
ATOM     28  C   UNL     1       2.490   1.046  -0.017  0.00  0.00    +0.045 C 
ATOM     29 CL   UNL     1      -2.761   3.976   0.050  0.00  0.00    -0.083 Cl
ENDBRANCH  20  22
ENDBRANCH  19  20
ENDBRANCH   2  19
TORSDOF 7
