REMARK  Name = ZINC38604959
REMARK  10 active torsions:
REMARK  status: ('A' for Active; 'I' for Inactive)
REMARK    1  A    between atoms: C_1  and  C_2
REMARK    2  A    between atoms: C_7  and  C_26
REMARK    3  A    between atoms: C_9  and  N_12
REMARK    4  A    between atoms: C_13  and  C_15
REMARK    5  A    between atoms: C_15  and  C_17
REMARK    6  A    between atoms: C_15  and  N_18
REMARK    7  A    between atoms: C_22  and  C_24
REMARK    8  A    between atoms: C_22  and  C_25
REMARK    9  A    between atoms: C_26  and  O_28
REMARK   10  A    between atoms: O_28  and  C_29
REMARK                            x       y       z     vdW  Elec       q    Type
REMARK                         _______ _______ _______ _____ _____    ______ ____
ROOT
ATOM      1  C   UNL     1      -3.394  -6.985  -0.941  0.00  0.00    +0.044 C 
ATOM      2  C   UNL     1      -2.601  -5.714  -0.776  0.00  0.00    -0.050 A 
ATOM      3  C   UNL     1      -2.194  -5.012  -1.914  0.00  0.00    +0.005 A 
ATOM      4  C   UNL     1      -1.480  -3.864  -1.830  0.00  0.00    +0.026 A 
ATOM      5  C   UNL     1      -1.126  -3.345  -0.557  0.00  0.00    +0.045 A 
ATOM      6  N   UNL     1      -0.449  -2.268  -0.212  0.00  0.00    -0.367 N 
ATOM      7  C   UNL     1      -0.370  -2.200   1.250  0.00  0.00    +0.234 C 
ATOM      8  C   UNL     1      -1.111  -3.414   1.765  0.00  0.00    +0.053 C 
ATOM      9  C   UNL     1      -1.557  -4.087   0.640  0.00  0.00    +0.018 A 
ATOM     10  C   UNL     1      -2.305  -5.277   0.473  0.00  0.00    +0.015 A 
ATOM     11  H   UNL     1      -0.064  -1.624  -0.828  0.00  0.00    +0.161 HD
ENDROOT
BRANCH   8  12
ATOM     12  N   UNL     1      -1.300  -3.772   3.066  0.00  0.00    -0.288 N 
ATOM     13  C   UNL     1      -0.726  -3.054   4.052  0.00  0.00    +0.203 C 
ATOM     14  O   UNL     1      -0.119  -2.038   3.788  0.00  0.00    -0.277 OA
ATOM     15  H   UNL     1      -1.847  -4.543   3.282  0.00  0.00    +0.155 HD
BRANCH  13  16
ATOM     16  C   UNL     1      -0.839  -3.515   5.482  0.00  0.00    +0.016 C 
ATOM     17  C   UNL     1       0.320  -4.460   5.806  0.00  0.00    -0.004 C 
BRANCH  16  18
ATOM     18  N   UNL     1      -0.787  -2.352   6.377  0.00  0.00    +0.387 N 
ATOM     19  C   UNL     1      -1.924  -1.468   6.094  0.00  0.00    -0.078 C 
ATOM     20  C   UNL     1      -1.831  -0.215   6.967  0.00  0.00    -0.018 C 
ATOM     21  C   UNL     1      -1.856  -0.624   8.443  0.00  0.00    +0.003 C 
ATOM     22  C   UNL     1      -0.710  -1.605   8.710  0.00  0.00    -0.050 C 
ATOM     23  C   UNL     1      -0.845  -2.806   7.772  0.00  0.00    -0.071 C 
ATOM     24  C   UNL     1      -0.773  -2.081  10.162  0.00  0.00    +0.009 C 
ATOM     25  C   UNL     1       0.628  -0.907   8.457  0.00  0.00    +0.009 C 
ATOM     26  H   UNL     1       0.074  -1.849   6.224  0.00  0.00    -0.081 HD
ENDBRANCH  16  18
ENDBRANCH  13  16
ENDBRANCH   8  12
BRANCH   7  27
ATOM     27  C   UNL     1      -1.029  -0.939   1.747  0.00  0.00    +0.335 C 
ATOM     28  O   UNL     1      -2.082  -0.581   1.276  0.00  0.00    -0.248 OA
BRANCH  27  29
ATOM     29  O   UNL     1      -0.445  -0.213   2.714  0.00  0.00    -0.466 OA
ATOM     30  C   UNL     1      -1.126   0.971   3.136  0.00  0.00    +0.280 C 
ENDBRANCH  27  29
ENDBRANCH   7  27
TORSDOF 5
