REMARK  Name = ZINC17945482
REMARK  2 active torsions:
REMARK  status: ('A' for Active; 'I' for Inactive)
REMARK    1  A    between atoms: C_11  and  C_13
REMARK    2  A    between atoms: C_14  and  C_15
REMARK                            x       y       z     vdW  Elec       q    Type
REMARK                         _______ _______ _______ _____ _____    ______ ____
ROOT
ATOM      1  C   UNL     1      -0.017   1.374   0.010  0.00  0.00    +0.001 A 
ATOM      2  C   UNL     1       1.169   2.097   0.002  0.00  0.00    +0.002 A 
ATOM      3  C   UNL     1       2.379   1.463  -0.013  0.00  0.00    +0.028 A 
ATOM      4  C   UNL     1       2.432   0.065  -0.021  0.00  0.00    +0.078 A 
ATOM      5  C   UNL     1       1.225  -0.672  -0.013  0.00  0.00    +0.065 A 
ATOM      6  C   UNL     1       0.002  -0.004   0.002  0.00  0.00    +0.015 A 
ATOM      7  C   UNL     1       1.306  -2.140  -0.021  0.00  0.00    +0.259 A 
ATOM      8  O   UNL     1       0.301  -2.828  -0.015  0.00  0.00    -0.267 OA
ATOM      9  N   UNL     1       2.539  -2.698  -0.036  0.00  0.00    -0.307 N 
ATOM     10  H   UNL     1       2.631  -3.664  -0.042  0.00  0.00    +0.170 HD
ATOM     11  C   UNL     1       3.658  -1.906  -0.043  0.00  0.00    +0.134 A 
ATOM     12  N   UNL     1       3.605  -0.595  -0.036  0.00  0.00    -0.230 NA
ENDROOT
BRANCH  11  13
ATOM     13  C   UNL     1       4.973  -2.553  -0.059  0.00  0.00    +0.047 C 
ATOM     14  C   UNL     1       6.092  -1.803  -0.067  0.00  0.00    +0.011 C 
BRANCH  14  15
ATOM     15  C   UNL     1       7.413  -2.453  -0.083  0.00  0.00    -0.024 A 
ATOM     16  C   UNL     1       7.510  -3.848  -0.096  0.00  0.00    +0.008 A 
ATOM     17  C   UNL     1       8.750  -4.450  -0.112  0.00  0.00    +0.002 A 
ATOM     18  C   UNL     1       9.899  -3.677  -0.114  0.00  0.00    +0.015 A 
ATOM     19  C   UNL     1       9.812  -2.296  -0.101  0.00  0.00    +0.018 A 
ATOM     20  C   UNL     1       8.577  -1.679  -0.091  0.00  0.00    +0.023 A 
ATOM     21 BR   UNL     1      11.388  -1.251  -0.103  0.00  0.00    -0.050 Br
ENDBRANCH  14  15
ENDBRANCH  11  13
TORSDOF 2
