REMARK  Name = ZINC13799410
REMARK  13 active torsions:
REMARK  status: ('A' for Active; 'I' for Inactive)
REMARK    1  A    between atoms: C_1  and  C_2
REMARK    2  A    between atoms: C_2  and  C_3
REMARK    3  A    between atoms: C_3  and  C_4
REMARK    4  A    between atoms: C_10  and  C_11
REMARK    5  A    between atoms: C_13  and  O_29
REMARK    6  A    between atoms: C_14  and  O_18
REMARK    7  A    between atoms: O_18  and  C_19
REMARK    8  A    between atoms: C_19  and  C_20
REMARK    9  A    between atoms: C_20  and  O_21
REMARK   10  A    between atoms: O_21  and  C_22
REMARK   11  A    between atoms: C_26  and  C_28
REMARK   12  A    between atoms: O_29  and  C_30
REMARK   13  A    between atoms: C_30  and  C_31
REMARK                            x       y       z     vdW  Elec       q    Type
REMARK                         _______ _______ _______ _____ _____    ______ ____
ROOT
ATOM      1  C   UNL     1      -1.479  -8.616   0.420  0.00  0.00    -0.019 A 
ATOM      2  C   UNL     1      -2.450  -9.524  -0.028  0.00  0.00    +0.057 A 
ATOM      3  C   UNL     1      -2.651 -10.705   0.656  0.00  0.00    +0.164 A 
ATOM      4  C   UNL     1      -1.891 -10.995   1.789  0.00  0.00    +0.180 A 
ATOM      5  C   UNL     1      -0.929 -10.097   2.235  0.00  0.00    +0.087 A 
ATOM      6  C   UNL     1      -0.716  -8.917   1.557  0.00  0.00    +0.032 A 
ATOM      7 CL   UNL     1       0.012 -10.466   3.647  0.00  0.00    -0.080 Cl
ENDROOT
BRANCH   1  14
ATOM      8  C   UNL     1      -3.991  -4.621  -4.775  0.00  0.00    +0.100 C 
ATOM      9  N   UNL     1      -2.991  -4.733  -3.948  0.00  0.00    -0.169 NA
ATOM     10  N   UNL     1      -3.123  -5.410  -2.755  0.00  0.00    -0.152 N 
ATOM     11  C   UNL     1      -2.135  -5.514  -1.752  0.00  0.00    +0.152 C 
ATOM     12  N   UNL     1      -1.150  -4.665  -1.624  0.00  0.00    -0.283 NA
ATOM     13  C   UNL     1      -2.326  -6.688  -0.854  0.00  0.00    +0.081 C 
ATOM     14  C   UNL     1      -1.259  -7.360  -0.301  0.00  0.00    +0.024 C 
ATOM     15  C   UNL     1      -3.729  -7.093  -0.586  0.00  0.00    +0.273 C 
ATOM     16  O   UNL     1      -4.024  -7.698   0.432  0.00  0.00    -0.268 OA
ATOM     17  N   UNL     1      -4.667  -6.772  -1.499  0.00  0.00    -0.152 NA
ATOM     18  C   UNL     1      -4.339  -6.013  -2.514  0.00  0.00    +0.181 C 
ATOM     19  S   UNL     1      -5.291  -5.502  -3.920  0.00  0.00    -0.038 S 
ATOM     20  H   UNL     1      -1.072  -3.917  -2.236  0.00  0.00    +0.188 HD
BRANCH   8  21
ATOM     21  C   UNL     1      -4.042  -3.921  -6.109  0.00  0.00    +0.064 C 
BRANCH  21  23
ATOM     22  C   UNL     1      -2.724  -2.601  -7.771  0.00  0.00    +0.004 C 
ATOM     23  C   UNL     1      -2.673  -3.311  -6.417  0.00  0.00    +0.003 C 
ENDBRANCH  21  23
ENDBRANCH   8  21
ENDBRANCH   1  14
BRANCH   4  24
ATOM     24  O   UNL     1      -2.093 -12.159   2.459  0.00  0.00    -0.483 OA
BRANCH  24  25
ATOM     25  C   UNL     1      -1.317 -13.287   2.049  0.00  0.00    +0.270 C 
BRANCH  25  26
ATOM     26  C   UNL     1      -1.679 -14.497   2.912  0.00  0.00    +0.270 C 
BRANCH  26  27
ATOM     27  O   UNL     1      -3.039 -14.865   2.670  0.00  0.00    -0.489 OA
BRANCH  27  28
ATOM     28  C   UNL     1      -3.522 -15.929   3.363  0.00  0.00    +0.121 A 
ATOM     29  C   UNL     1      -2.707 -16.602   4.262  0.00  0.00    +0.045 A 
ATOM     30  C   UNL     1      -3.201 -17.683   4.965  0.00  0.00    +0.004 A 
ATOM     31  C   UNL     1      -4.507 -18.095   4.775  0.00  0.00    +0.003 A 
ATOM     32  C   UNL     1      -5.322 -17.427   3.880  0.00  0.00    -0.047 A 
ATOM     33  C   UNL     1      -4.834 -16.341   3.178  0.00  0.00    +0.049 A 
ATOM     34  C   UNL     1      -6.744 -17.878   3.674  0.00  0.00    +0.044 C 
ENDBRANCH  27  28
ENDBRANCH  26  27
ENDBRANCH  25  26
ENDBRANCH  24  25
ENDBRANCH   4  24
BRANCH   3  35
ATOM     35  O   UNL     1      -3.592 -11.588   0.225  0.00  0.00    -0.489 OA
BRANCH  35  36
ATOM     36  C   UNL     1      -4.334 -11.226  -0.942  0.00  0.00    +0.226 C 
ATOM     37  C   UNL     1      -5.337 -12.334  -1.272  0.00  0.00    +0.048 C 
ENDBRANCH  35  36
ENDBRANCH   3  35
TORSDOF 10
