REMARK  Name = ZINC16157825
REMARK  3 active torsions:
REMARK  status: ('A' for Active; 'I' for Inactive)
REMARK    1  A    between atoms: C_4  and  C_7
REMARK    2  A    between atoms: C_13  and  C_15
REMARK    3  A    between atoms: N_17  and  N_18
REMARK                            x       y       z     vdW  Elec       q    Type
REMARK                         _______ _______ _______ _____ _____    ______ ____
ROOT
ATOM      1  C   UNL     1       2.349  -2.164  -1.560  0.00  0.00    +0.245 C 
ATOM      2  O   UNL     1       1.790  -3.046  -0.944  0.00  0.00    -0.273 OA
ATOM      3  N   UNL     1       1.721  -1.554  -2.584  0.00  0.00    -0.206 N 
ATOM      4  H   UNL     1       2.168  -0.848  -3.077  0.00  0.00    +0.177 HD
ENDROOT
BRANCH   3   5
ATOM      5  N   UNL     1       0.421  -1.939  -2.938  0.00  0.00    -0.175 NA
ATOM      6  C   UNL     1      -0.191  -1.347  -3.934  0.00  0.00    +0.153 C 
ATOM      7  C   UNL     1      -1.556  -1.615  -4.442  0.00  0.00    +0.030 A 
ATOM      8  C   UNL     1      -2.554  -2.506  -4.065  0.00  0.00    +0.027 A 
ATOM      9  C   UNL     1      -3.754  -2.521  -4.749  0.00  0.00    +0.020 A 
ATOM     10  C   UNL     1      -3.961  -1.651  -5.807  0.00  0.00    +0.032 A 
ATOM     11  C   UNL     1      -2.975  -0.763  -6.189  0.00  0.00    +0.041 A 
ATOM     12  C   UNL     1      -1.760  -0.733  -5.511  0.00  0.00    +0.057 A 
ATOM     13  N   UNL     1      -0.623   0.048  -5.687  0.00  0.00    -0.279 N 
ATOM     14  C   UNL     1       0.329  -0.261  -4.790  0.00  0.00    +0.269 C 
ATOM     15  O   UNL     1       1.426   0.259  -4.701  0.00  0.00    -0.268 OA
ATOM     16 BR   UNL     1      -3.276   0.416  -7.637  0.00  0.00    -0.048 Br
ATOM     17 BR   UNL     1      -5.116  -3.731  -4.242  0.00  0.00    -0.050 Br
ATOM     18  H   UNL     1      -0.529   0.732  -6.369  0.00  0.00    +0.155 HD
ENDBRANCH   3   5
BRANCH   1  24
ATOM     19  C   UNL     1       3.709  -0.620  -0.123  0.00  0.00    +0.057 C 
ATOM     20  C   UNL     1       3.810  -1.418   1.196  0.00  0.00    +0.113 C 
ATOM     21  N   UNL     1       4.490  -2.670   0.844  0.00  0.00    -0.314 N 
ATOM     22  C   UNL     1       4.465  -2.884  -0.482  0.00  0.00    +0.226 C 
ATOM     23  O   UNL     1       4.948  -3.847  -1.040  0.00  0.00    -0.275 OA
ATOM     24  C   UNL     1       3.747  -1.749  -1.180  0.00  0.00    +0.171 C 
ATOM     25  H   UNL     1       4.905  -3.267   1.487  0.00  0.00    +0.149 HD
BRANCH  19  29
ATOM     26  C   UNL     1       0.028   1.539  -0.324  0.00  0.00    +0.000 A 
ATOM     27  C   UNL     1       0.053   0.263   0.208  0.00  0.00    +0.000 A 
ATOM     28  C   UNL     1       1.244  -0.436   0.272  0.00  0.00    +0.004 A 
ATOM     29  C   UNL     1       2.410   0.141  -0.195  0.00  0.00    -0.042 A 
ATOM     30  C   UNL     1       2.385   1.417  -0.727  0.00  0.00    +0.004 A 
ATOM     31  C   UNL     1       1.194   2.116  -0.791  0.00  0.00    +0.000 A 
ENDBRANCH  19  29
ENDBRANCH   1  24
TORSDOF 3
