REMARK  Name = ZINC59109095
REMARK  7 active torsions:
REMARK  status: ('A' for Active; 'I' for Inactive)
REMARK    1  A    between atoms: C_1  and  C_2
REMARK    2  A    between atoms: C_1  and  C_32
REMARK    3  A    between atoms: C_2  and  N_3
REMARK    4  A    between atoms: C_12  and  C_15
REMARK    5  A    between atoms: N_23  and  C_27
REMARK    6  A    between atoms: C_27  and  C_28
REMARK    7  A    between atoms: C_28  and  C_29
REMARK                            x       y       z     vdW  Elec       q    Type
REMARK                         _______ _______ _______ _____ _____    ______ ____
ROOT
ATOM      1  N   UNL     1      -1.372  -0.511   0.012  0.00  0.00    -0.255 N 
ATOM      2  C   UNL     1      -2.179  -0.813   1.186  0.00  0.00    +0.260 C 
ATOM      3  C   UNL     1      -3.037  -1.971   0.565  0.00  0.00    +0.258 C 
ATOM      4  N   UNL     1      -3.249  -1.536  -0.752  0.00  0.00    -0.270 N 
ATOM      5  C   UNL     1      -2.147  -0.787  -1.075  0.00  0.00    +0.306 C 
ATOM      6  O   UNL     1      -1.888  -0.413  -2.202  0.00  0.00    -0.253 OA
ATOM      7  O   UNL     1      -3.676  -2.527   1.633  0.00  0.00    -0.321 OA
ATOM      8  C   UNL     1      -2.767  -2.329   2.755  0.00  0.00    +0.311 C 
ATOM      9  O   UNL     1      -1.623  -1.534   2.281  0.00  0.00    -0.321 OA
ATOM     10  H   UNL     1      -4.016  -1.722  -1.315  0.00  0.00    +0.153 HD
ENDROOT
BRANCH   8  11
ATOM     11  C   UNL     1      -2.279  -3.685   3.271  0.00  0.00    +0.311 C 
ATOM     12  O   UNL     1      -1.406  -3.506   4.407  0.00  0.00    -0.321 OA
ATOM     13  C   UNL     1      -1.440  -4.772   5.097  0.00  0.00    +0.258 C 
ATOM     14  C   UNL     1      -2.784  -5.418   4.672  0.00  0.00    +0.260 C 
ATOM     15  O   UNL     1      -3.387  -4.459   3.778  0.00  0.00    -0.321 OA
ATOM     16  N   UNL     1      -3.556  -5.467   5.922  0.00  0.00    -0.255 N 
ATOM     17  C   UNL     1      -2.824  -4.951   6.917  0.00  0.00    +0.306 C 
ATOM     18  O   UNL     1      -3.225  -4.869   8.061  0.00  0.00    -0.253 OA
ATOM     19  N   UNL     1      -1.594  -4.531   6.539  0.00  0.00    -0.270 N 
ATOM     20  H   UNL     1      -0.923  -4.136   7.117  0.00  0.00    +0.153 HD
BRANCH  16  21
ATOM     21  C   UNL     1      -4.915  -5.998   6.057  0.00  0.00    +0.123 C 
BRANCH  21  22
ATOM     22  C   UNL     1      -4.848  -7.491   6.387  0.00  0.00    +0.144 C 
BRANCH  22  23
ATOM     23  C   UNL     1      -6.245  -8.038   6.526  0.00  0.00    +0.358 C 
ATOM     24  O   UNL     1      -7.206  -7.302   6.376  0.00  0.00    -0.246 OA
ATOM     25  O   UNL     1      -6.415  -9.216   6.789  0.00  0.00    -0.246 OA
ENDBRANCH  22  23
ENDBRANCH  21  22
ENDBRANCH  16  21
ENDBRANCH   8  11
BRANCH   1  26
ATOM     26  C   UNL     1       0.002  -0.004   0.002  0.00  0.00    +0.123 C 
BRANCH  26  27
ATOM     27  C   UNL     1      -0.019   1.526   0.010  0.00  0.00    +0.144 C 
BRANCH  27  28
ATOM     28  C   UNL     1       1.395   2.047  -0.000  0.00  0.00    +0.358 C 
ATOM     29  O   UNL     1       2.333   1.268  -0.013  0.00  0.00    -0.246 OA
ATOM     30  O   UNL     1       1.602   3.249   0.004  0.00  0.00    -0.246 OA
ENDBRANCH  27  28
ENDBRANCH  26  27
ENDBRANCH   1  26
TORSDOF 7
