REMARK  Name = ZINC57720938
REMARK  6 active torsions:
REMARK  status: ('A' for Active; 'I' for Inactive)
REMARK    1  A    between atoms: C_4  and  N_7
REMARK    2  A    between atoms: C_11  and  C_16
REMARK    3  A    between atoms: C_16  and  N_17
REMARK    4  A    between atoms: N_17  and  C_18
REMARK    5  A    between atoms: C_18  and  C_19
REMARK    6  A    between atoms: C_28  and  C_30
REMARK                            x       y       z     vdW  Elec       q    Type
REMARK                         _______ _______ _______ _____ _____    ______ ____
ROOT
ATOM      1  N   UNL     1       3.623  -0.651  -0.036  0.00  0.00    -0.215 N 
ATOM      2  C   UNL     1       3.869  -1.833   0.587  0.00  0.00    +0.145 A 
ATOM      3  C   UNL     1       5.199  -2.168   0.325  0.00  0.00    +0.045 A 
ATOM      4  C   UNL     1       5.738  -3.359   0.852  0.00  0.00    +0.020 A 
ATOM      5  C   UNL     1       4.947  -4.165   1.611  0.00  0.00    +0.001 A 
ATOM      6  C   UNL     1       3.610  -3.803   1.859  0.00  0.00    +0.252 A 
ATOM      7  O   UNL     1       2.906  -4.529   2.540  0.00  0.00    -0.268 OA
ATOM      8  N   UNL     1       3.098  -2.664   1.355  0.00  0.00    -0.307 N 
ATOM      9  H   UNL     1       2.174  -2.431   1.536  0.00  0.00    +0.170 HD
ATOM     10  C   UNL     1       5.742  -1.093  -0.509  0.00  0.00    +0.102 A 
ATOM     11  N   UNL     1       4.776  -0.224  -0.701  0.00  0.00    -0.164 NA
ENDROOT
BRANCH  10  12
ATOM     12  C   UNL     1       7.122  -1.005  -1.042  0.00  0.00    +0.003 A 
ATOM     13  C   UNL     1       8.194  -1.485  -0.291  0.00  0.00    +0.013 A 
ATOM     14  C   UNL     1       9.477  -1.402  -0.791  0.00  0.00    +0.039 A 
ATOM     15  C   UNL     1       9.701  -0.842  -2.038  0.00  0.00    +0.123 A 
ATOM     16  C   UNL     1       8.640  -0.362  -2.788  0.00  0.00    +0.039 A 
ATOM     17  C   UNL     1       7.353  -0.447  -2.299  0.00  0.00    +0.013 A 
ATOM     18  F   UNL     1      10.960  -0.762  -2.524  0.00  0.00    -0.205 F 
ENDBRANCH  10  12
BRANCH   1  22
ATOM     19  C   UNL     1      -0.017   1.379   0.010  0.00  0.00    +0.000 A 
ATOM     20  C   UNL     1       1.170   2.089   0.002  0.00  0.00    +0.002 A 
ATOM     21  C   UNL     1       2.377   1.419  -0.013  0.00  0.00    +0.028 A 
ATOM     22  C   UNL     1       2.400   0.031  -0.021  0.00  0.00    +0.068 A 
ATOM     23  C   UNL     1       1.206  -0.680  -0.013  0.00  0.00    +0.028 A 
ATOM     24  C   UNL     1       0.002  -0.004   0.002  0.00  0.00    +0.002 A 
ENDBRANCH   1  22
BRANCH   5  25
ATOM     25  C   UNL     1       5.501  -5.443   2.185  0.00  0.00    -0.041 C 
BRANCH  25  26
ATOM     26  N   UNL     1       5.969  -5.202   3.556  0.00  0.00    +0.384 N 
ATOM     27  H   UNL     1       6.691  -4.497   3.546  0.00  0.00    -0.085 HD
ATOM     28  H   UNL     1       5.197  -4.885   4.124  0.00  0.00    -0.085 HD
BRANCH  26  29
ATOM     29  C   UNL     1       6.509  -6.448   4.116  0.00  0.00    -0.046 C 
BRANCH  29  30
ATOM     30  C   UNL     1       6.989  -6.201   5.522  0.00  0.00    -0.061 A 
ATOM     31  C   UNL     1       8.293  -5.800   5.746  0.00  0.00    +0.005 A 
ATOM     32  C   UNL     1       8.738  -5.572   7.034  0.00  0.00    +0.050 A 
ATOM     33  C   UNL     1       7.878  -5.744   8.106  0.00  0.00    +0.166 A 
ATOM     34  C   UNL     1       6.564  -6.148   7.881  0.00  0.00    +0.166 A 
ATOM     35  C   UNL     1       6.123  -6.370   6.587  0.00  0.00    +0.051 A 
ATOM     36  O   UNL     1       5.926  -6.245   9.084  0.00  0.00    -0.453 OA
ATOM     37  C   UNL     1       6.972  -6.294  10.072  0.00  0.00    +0.466 C 
ATOM     38  O   UNL     1       8.062  -5.589   9.449  0.00  0.00    -0.453 OA
ENDBRANCH  29  30
ENDBRANCH  26  29
ENDBRANCH  25  26
ENDBRANCH   5  25
TORSDOF 6
