REMARK  Name = ZINC35486228
REMARK  11 active torsions:
REMARK  status: ('A' for Active; 'I' for Inactive)
REMARK    1  A    between atoms: C_1  and  C_2
REMARK    2  A    between atoms: C_2  and  N_3
REMARK    3  A    between atoms: N_3  and  C_4
REMARK    4  A    between atoms: N_3  and  C_6
REMARK    5  A    between atoms: C_4  and  C_5
REMARK    6  A    between atoms: C_6  and  C_7
REMARK    7  A    between atoms: C_7  and  N_8
REMARK    8  A    between atoms: C_9  and  C_25
REMARK    9  A    between atoms: C_28  and  O_33
REMARK   10  A    between atoms: C_29  and  O_31
REMARK   11  A    between atoms: O_31  and  C_32
REMARK                            x       y       z     vdW  Elec       q    Type
REMARK                         _______ _______ _______ _____ _____    ______ ____
ROOT
ATOM      1  N   UNL     1      -2.896  -4.091   0.190  0.00  0.00    -0.285 N 
ATOM      2  C   UNL     1      -2.723  -5.090  -0.878  0.00  0.00    +0.145 C 
ATOM      3  C   UNL     1      -2.792  -6.421  -0.206  0.00  0.00    +0.072 A 
ATOM      4  C   UNL     1      -2.697  -7.782  -0.744  0.00  0.00    +0.199 A 
ATOM      5  O   UNL     1      -2.360  -8.024  -1.890  0.00  0.00    -0.287 OA
ATOM      6  C   UNL     1      -3.050  -8.837   0.239  0.00  0.00    +0.065 A 
ATOM      7  C   UNL     1      -3.202 -10.162  -0.170  0.00  0.00    +0.030 A 
ATOM      8  C   UNL     1      -3.535 -11.126   0.756  0.00  0.00    +0.019 A 
ATOM      9  C   UNL     1      -3.719 -10.778   2.088  0.00  0.00    +0.019 A 
ATOM     10  C   UNL     1      -3.569  -9.475   2.503  0.00  0.00    +0.048 A 
ATOM     11  C   UNL     1      -3.231  -8.480   1.586  0.00  0.00    +0.140 A 
ATOM     12  O   UNL     1      -3.081  -7.209   2.022  0.00  0.00    -0.450 OA
ATOM     13  C   UNL     1      -2.982  -6.204   1.130  0.00  0.00    +0.199 A 
ATOM     14  C   UNL     1      -3.041  -4.750   1.357  0.00  0.00    +0.283 C 
ATOM     15  O   UNL     1      -3.200  -4.221   2.440  0.00  0.00    -0.267 OA
ATOM     16 BR   UNL     1      -3.743 -12.925   0.212  0.00  0.00    -0.050 Br
ENDROOT
BRANCH   2  17
ATOM     17  C   UNL     1      -3.829  -4.961  -1.894  0.00  0.00    -0.019 A 
ATOM     18  C   UNL     1      -5.122  -4.706  -1.478  0.00  0.00    +0.009 A 
ATOM     19  C   UNL     1      -6.140  -4.587  -2.406  0.00  0.00    +0.049 A 
ATOM     20  C   UNL     1      -5.864  -4.723  -3.757  0.00  0.00    +0.158 A 
ATOM     21  C   UNL     1      -4.563  -4.979  -4.176  0.00  0.00    +0.162 A 
ATOM     22  C   UNL     1      -3.546  -5.093  -3.241  0.00  0.00    +0.055 A 
BRANCH  21  23
ATOM     23  O   UNL     1      -4.288  -5.114  -5.501  0.00  0.00    -0.491 OA
ATOM     24  C   UNL     1      -2.929  -5.376  -5.858  0.00  0.00    +0.277 C 
ENDBRANCH  21  23
BRANCH  20  25
ATOM     25  O   UNL     1      -6.864  -4.606  -4.671  0.00  0.00    -0.503 OA
ATOM     26  H   UNL     1      -7.001  -3.704  -4.992  0.00  0.00    +0.292 HD
ENDBRANCH  20  25
ENDBRANCH   2  17
BRANCH   1  27
ATOM     27  C   UNL     1      -2.903  -2.637   0.015  0.00  0.00    +0.090 C 
BRANCH  27  28
ATOM     28  C   UNL     1      -1.476  -2.100   0.149  0.00  0.00    -0.060 C 
BRANCH  28  29
ATOM     29  N   UNL     1      -1.465  -0.661  -0.147  0.00  0.00    +0.380 N 
ATOM     30  H   UNL     1      -1.873  -0.501  -1.056  0.00  0.00    -0.082 HD
BRANCH  29  32
ATOM     31  C   UNL     1      -2.336   1.535   0.497  0.00  0.00    -0.017 C 
ATOM     32  C   UNL     1      -2.244   0.054   0.873  0.00  0.00    -0.082 C 
ENDBRANCH  29  32
BRANCH  29  33
ATOM     33  C   UNL     1      -0.080  -0.171  -0.138  0.00  0.00    -0.082 C 
ATOM     34  C   UNL     1       0.691  -0.800  -1.300  0.00  0.00    -0.017 C 
ENDBRANCH  29  33
ENDBRANCH  28  29
ENDBRANCH  27  28
ENDBRANCH   1  27
TORSDOF 8
