REMARK  Name = ZINC40988414
REMARK  8 active torsions:
REMARK  status: ('A' for Active; 'I' for Inactive)
REMARK    1  A    between atoms: C_1  and  N_2
REMARK    2  A    between atoms: N_2  and  C_3
REMARK    3  A    between atoms: N_2  and  C_4
REMARK    4  A    between atoms: C_4  and  C_6
REMARK    5  A    between atoms: C_4  and  C_27
REMARK    6  A    between atoms: C_6  and  N_7
REMARK    7  A    between atoms: C_8  and  C_10
REMARK    8  A    between atoms: N_13  and  C_15
REMARK                            x       y       z     vdW  Elec       q    Type
REMARK                         _______ _______ _______ _____ _____    ______ ____
ROOT
ATOM      1  N   UNL     1       0.606  -2.138  -0.542  0.00  0.00    -0.311 N 
ATOM      2  C   UNL     1       0.516  -3.413  -0.971  0.00  0.00    +0.264 C 
ATOM      3  O   UNL     1       0.055  -4.269  -0.241  0.00  0.00    -0.268 OA
ATOM      4  H   UNL     1       0.974  -1.455  -1.124  0.00  0.00    +0.149 HD
ENDROOT
BRANCH   2   5
ATOM      5  C   UNL     1       0.979  -3.770  -2.328  0.00  0.00    +0.150 A 
ATOM      6  C   UNL     1       0.946  -5.045  -2.917  0.00  0.00    +0.006 A 
ATOM      7  C   UNL     1       1.470  -4.894  -4.158  0.00  0.00    +0.044 A 
ATOM      8  N   UNL     1       1.794  -3.599  -4.299  0.00  0.00    -0.263 N 
ATOM      9  N   UNL     1       1.498  -2.950  -3.226  0.00  0.00    -0.166 NA
ATOM     10  C   UNL     1       1.631  -6.023  -5.144  0.00  0.00    +0.055 C 
ATOM     11  C   UNL     1       1.511  -7.349  -4.384  0.00  0.00    +0.006 C 
ATOM     12  C   UNL     1       0.253  -7.332  -3.512  0.00  0.00    +0.005 C 
ATOM     13  C   UNL     1       0.447  -6.346  -2.352  0.00  0.00    +0.039 C 
BRANCH   8  14
ATOM     14  C   UNL     1       2.392  -3.008  -5.499  0.00  0.00    +0.130 C 
ATOM     15  C   UNL     1       1.465  -1.907  -6.041  0.00  0.00    +0.051 C 
ATOM     16  C   UNL     1       2.252  -1.093  -7.108  0.00  0.00    +0.168 C 
ATOM     17  S   UNL     1       3.903  -0.981  -6.297  0.00  0.00    -0.029 S 
ATOM     18  O   UNL     1       3.965   0.221  -5.540  0.00  0.00    -0.174 OA
ATOM     19  O   UNL     1       4.911  -1.254  -7.260  0.00  0.00    -0.174 OA
ATOM     20  C   UNL     1       3.772  -2.406  -5.143  0.00  0.00    +0.192 C 
ENDBRANCH   8  14
ENDBRANCH   2   5
BRANCH   1  21
ATOM     21  C   UNL     1       0.148  -1.784   0.804  0.00  0.00    +0.094 C 
BRANCH  21  22
ATOM     22  C   UNL     1       0.476  -0.317   1.085  0.00  0.00    -0.021 C 
BRANCH  22  23
ATOM     23  C   UNL     1       1.972  -0.134   1.116  0.00  0.00    -0.059 A 
ATOM     24  C   UNL     1       2.687  -0.481   2.248  0.00  0.00    +0.003 A 
ATOM     25  C   UNL     1       4.059  -0.314   2.277  0.00  0.00    +0.020 A 
ATOM     26  C   UNL     1       4.716   0.201   1.173  0.00  0.00    +0.041 A 
ATOM     27  C   UNL     1       4.000   0.548   0.042  0.00  0.00    +0.020 A 
ATOM     28  C   UNL     1       2.629   0.375   0.012  0.00  0.00    +0.003 A 
ATOM     29 CL   UNL     1       6.439   0.411   1.210  0.00  0.00    -0.084 Cl
ENDBRANCH  22  23
BRANCH  22  31
ATOM     30  C   UNL     1       0.267   1.466   2.676  0.00  0.00    -0.096 C 
ATOM     31  N   UNL     1      -0.091   0.072   2.383  0.00  0.00    +0.382 N 
ATOM     32  C   UNL     1      -1.554  -0.058   2.336  0.00  0.00    -0.096 C 
ATOM     33  H   UNL     1       0.277  -0.529   3.105  0.00  0.00    -0.082 HD
ENDBRANCH  22  31
ENDBRANCH  21  22
ENDBRANCH   1  21
TORSDOF 6
