REMARK  Name = ZINC14778614
REMARK  6 active torsions:
REMARK  status: ('A' for Active; 'I' for Inactive)
REMARK    1  A    between atoms: C_7  and  C_11
REMARK    2  A    between atoms: C_14  and  S_23
REMARK    3  A    between atoms: N_15  and  C_16
REMARK    4  A    between atoms: C_16  and  C_17
REMARK    5  A    between atoms: S_23  and  C_24
REMARK    6  A    between atoms: C_24  and  C_25
REMARK                            x       y       z     vdW  Elec       q    Type
REMARK                         _______ _______ _______ _____ _____    ______ ____
ROOT
ATOM      1  C   UNL     1       0.461  -0.522  -0.026  0.00  0.00    +0.167 A 
ATOM      2  N   UNL     1       0.322   0.776   0.114  0.00  0.00    -0.128 NA
ATOM      3  N   UNL     1       1.471   1.349   0.062  0.00  0.00    -0.122 NA
ATOM      4  C   UNL     1       2.414   0.454  -0.114  0.00  0.00    +0.192 A 
ATOM      5  N   UNL     1       1.806  -0.770  -0.176  0.00  0.00    -0.300 N 
ENDROOT
BRANCH   1  12
ATOM      6  C   UNL     1      -3.692  -0.742  -2.165  0.00  0.00    +0.001 A 
ATOM      7  C   UNL     1      -4.390  -1.902  -1.859  0.00  0.00    +0.002 A 
ATOM      8  C   UNL     1      -3.847  -2.845  -1.015  0.00  0.00    +0.026 A 
ATOM      9  C   UNL     1      -2.593  -2.629  -0.452  0.00  0.00    +0.047 A 
ATOM     10  C   UNL     1      -1.893  -1.451  -0.763  0.00  0.00    +0.010 A 
ATOM     11  C   UNL     1      -2.457  -0.513  -1.626  0.00  0.00    +0.011 A 
ATOM     12  C   UNL     1      -0.622  -1.527  -0.024  0.00  0.00    +0.044 A 
ATOM     13  C   UNL     1      -0.641  -2.697   0.665  0.00  0.00    +0.095 A 
ATOM     14  N   UNL     1      -1.809  -3.358   0.416  0.00  0.00    -0.360 N 
ATOM     15  H   UNL     1      -2.052  -4.217   0.796  0.00  0.00    +0.165 HD
ENDBRANCH   1  12
BRANCH   5  16
ATOM     16  C   UNL     1       2.451  -2.071  -0.365  0.00  0.00    +0.157 C 
BRANCH  16  17
ATOM     17  C   UNL     1       2.659  -2.326  -1.859  0.00  0.00    +0.138 C 
ATOM     18  C   UNL     1       3.390  -3.675  -2.078  0.00  0.00    +0.035 C 
ATOM     19  C   UNL     1       2.928  -4.030  -3.517  0.00  0.00    +0.031 C 
ATOM     20  C   UNL     1       1.491  -3.467  -3.548  0.00  0.00    +0.160 C 
ATOM     21  O   UNL     1       1.393  -2.475  -2.520  0.00  0.00    -0.375 OA
ENDBRANCH  16  17
ENDBRANCH   5  16
BRANCH   4  22
ATOM     22  S   UNL     1       4.143   0.769  -0.244  0.00  0.00    -0.077 S 
BRANCH  22  23
ATOM     23  C   UNL     1       4.148   2.571  -0.068  0.00  0.00    +0.173 C 
BRANCH  23  24
ATOM     24  C   UNL     1       5.564   3.080  -0.150  0.00  0.00    +0.229 C 
ATOM     25  O   UNL     1       6.480   2.301  -0.312  0.00  0.00    -0.275 OA
ATOM     26  N   UNL     1       5.813   4.400  -0.045  0.00  0.00    -0.270 N 
ATOM     27  C   UNL     1       7.109   4.882  -0.225  0.00  0.00    +0.125 A 
ATOM     28  C   UNL     1       7.340   6.253  -0.227  0.00  0.00    +0.045 A 
ATOM     29  C   UNL     1       8.630   6.718  -0.407  0.00  0.00    +0.025 A 
ATOM     30  C   UNL     1       9.650   5.792  -0.581  0.00  0.00    +0.059 A 
ATOM     31  C   UNL     1       9.348   4.443  -0.568  0.00  0.00    +0.132 A 
ATOM     32  N   UNL     1       8.108   4.030  -0.388  0.00  0.00    -0.239 NA
ATOM     33 CL   UNL     1      11.287   6.322  -0.811  0.00  0.00    -0.082 Cl
ATOM     34  H   UNL     1       5.091   5.015   0.157  0.00  0.00    +0.156 HD
ENDBRANCH  23  24
ENDBRANCH  22  23
ENDBRANCH   4  22
TORSDOF 6
