REMARK  Name = ZINC65301203
REMARK  8 active torsions:
REMARK  status: ('A' for Active; 'I' for Inactive)
REMARK    1  A    between atoms: C_1  and  C_2
REMARK    2  A    between atoms: C_4  and  N_20
REMARK    3  A    between atoms: C_5  and  C_11
REMARK    4  A    between atoms: C_16  and  C_19
REMARK    5  A    between atoms: C_23  and  C_26
REMARK    6  A    between atoms: N_28  and  C_29
REMARK    7  A    between atoms: C_29  and  C_30
REMARK    8  A    between atoms: C_30  and  C_31
REMARK                            x       y       z     vdW  Elec       q    Type
REMARK                         _______ _______ _______ _____ _____    ______ ____
ROOT
ATOM      1  C   UNL     1       0.921   1.741  -0.612  0.00  0.00    +0.067 C 
ATOM      2  C   UNL     1       0.815   0.256  -0.381  0.00  0.00    +0.058 A 
ATOM      3  C   UNL     1       0.332  -0.574  -1.407  0.00  0.00    +0.050 A 
ATOM      4  C   UNL     1      -0.107  -0.258  -2.720  0.00  0.00    +0.055 A 
ATOM      5  C   UNL     1      -0.544  -1.302  -3.547  0.00  0.00    +0.074 A 
ATOM      6  C   UNL     1      -0.539  -2.620  -3.070  0.00  0.00    +0.098 A 
ATOM      7  N   UNL     1      -0.128  -2.887  -1.849  0.00  0.00    -0.353 N 
ATOM      8  C   UNL     1       0.292  -1.939  -1.038  0.00  0.00    +0.107 A 
ATOM      9  S   UNL     1       0.907  -1.892   0.627  0.00  0.00    +0.030 S 
ATOM     10  N   UNL     1       1.175  -0.243   0.762  0.00  0.00    -0.213 NA
ATOM     11  H   UNL     1      -0.133  -3.806  -1.540  0.00  0.00    +0.166 HD
ENDROOT
BRANCH   5  12
ATOM     12  C   UNL     1      -1.008  -1.015  -4.914  0.00  0.00    +0.250 C 
ATOM     13  O   UNL     1      -0.275  -0.441  -5.696  0.00  0.00    -0.270 OA
ATOM     14  N   UNL     1      -2.244  -1.388  -5.298  0.00  0.00    -0.297 N 
ATOM     15  C   UNL     1      -3.107  -2.162  -4.396  0.00  0.00    +0.108 C 
ATOM     16  C   UNL     1      -4.450  -1.438  -4.255  0.00  0.00    +0.022 C 
ATOM     17  C   UNL     1      -5.045  -1.202  -5.645  0.00  0.00    -0.011 C 
ATOM     18  C   UNL     1      -4.102  -0.316  -6.462  0.00  0.00    +0.022 C 
ATOM     19  C   UNL     1      -2.758  -1.022  -6.625  0.00  0.00    +0.108 C 
ATOM     20  C   UNL     1      -6.403  -0.509  -5.507  0.00  0.00    +0.007 C 
ENDBRANCH   5  12
BRANCH   4  21
ATOM     21  N   UNL     1      -0.105   1.046  -3.170  0.00  0.00    -0.329 N 
ATOM     22  C   UNL     1      -1.332   1.853  -3.133  0.00  0.00    +0.106 C 
ATOM     23  C   UNL     1      -1.592   2.420  -4.532  0.00  0.00    +0.031 C 
ATOM     24  C   UNL     1      -0.353   3.181  -5.009  0.00  0.00    +0.078 C 
ATOM     25  C   UNL     1       0.837   2.223  -5.090  0.00  0.00    +0.031 C 
ATOM     26  C   UNL     1       1.126   1.656  -3.692  0.00  0.00    +0.106 C 
BRANCH  24  27
ATOM     27  C   UNL     1      -0.618   3.769  -6.371  0.00  0.00    +0.216 C 
ATOM     28  O   UNL     1      -1.692   3.596  -6.908  0.00  0.00    -0.276 OA
ATOM     29  N   UNL     1       0.338   4.487  -6.993  0.00  0.00    -0.315 N 
ATOM     30  H   UNL     1       1.197   4.625  -6.564  0.00  0.00    +0.149 HD
BRANCH  29  31
ATOM     31  C   UNL     1       0.081   5.058  -8.317  0.00  0.00    +0.108 C 
BRANCH  31  32
ATOM     32  C   UNL     1       1.319   5.819  -8.794  0.00  0.00    +0.049 C 
BRANCH  32  33
ATOM     33  C   UNL     1       1.054   6.407 -10.156  0.00  0.00    -0.072 C 
ATOM     34  C   UNL     1       0.648   7.634 -10.219  0.00  0.00    -0.028 C 
ATOM     35  C   UNL     1       0.334   8.351 -11.500  0.00  0.00    +0.027 C 
ATOM     36  C   UNL     1       0.951   7.607 -12.686  0.00  0.00    +0.004 C 
ATOM     37  C   UNL     1       0.574   6.124 -12.578  0.00  0.00    +0.005 C 
ATOM     38  C   UNL     1       1.284   5.534 -11.355  0.00  0.00    +0.030 C 
ENDBRANCH  32  33
ENDBRANCH  31  32
ENDBRANCH  29  31
ENDBRANCH  24  27
ENDBRANCH   4  21
TORSDOF 6
