REMARK  Name = ZINC02236309
REMARK  10 active torsions:
REMARK  status: ('A' for Active; 'I' for Inactive)
REMARK    1  A    between atoms: C_1  and  C_2
REMARK    2  A    between atoms: C_2  and  C_3
REMARK    3  A    between atoms: C_3  and  C_4
REMARK    4  A    between atoms: C_12  and  N_23
REMARK    5  A    between atoms: C_14  and  S_16
REMARK    6  A    between atoms: S_16  and  C_17
REMARK    7  A    between atoms: C_17  and  C_18
REMARK    8  A    between atoms: C_18  and  O_20
REMARK    9  A    between atoms: O_20  and  C_21
REMARK   10  A    between atoms: C_21  and  C_22
REMARK                            x       y       z     vdW  Elec       q    Type
REMARK                         _______ _______ _______ _____ _____    ______ ____
ROOT
ATOM      1  C   UNL     1       0.341  -8.457   1.530  0.00  0.00    +0.123 C 
ATOM      2  C   UNL     1       0.564  -7.172   0.727  0.00  0.00    +0.068 C 
ATOM      3  C   UNL     1      -0.763  -6.421   0.656  0.00  0.00    -0.020 A 
ATOM      4  C   UNL     1      -1.914  -7.075   0.926  0.00  0.00    +0.021 A 
ATOM      5  S   UNL     1      -3.189  -5.862   0.736  0.00  0.00    -0.071 S 
ATOM      6  C   UNL     1      -2.175  -4.476   0.290  0.00  0.00    +0.115 A 
ATOM      7  C   UNL     1      -0.868  -5.006   0.306  0.00  0.00    +0.051 A 
ATOM      8  C   UNL     1       0.169  -4.088  -0.021  0.00  0.00    +0.129 A 
ATOM      9  N   UNL     1      -0.143  -2.838  -0.318  0.00  0.00    -0.207 NA
ATOM     10  C   UNL     1      -1.398  -2.402  -0.309  0.00  0.00    +0.191 A 
ATOM     11  N   UNL     1      -2.405  -3.213  -0.011  0.00  0.00    -0.214 NA
ATOM     12  C   UNL     1      -2.045  -8.518   1.304  0.00  0.00    +0.203 C 
ATOM     13  O   UNL     1      -0.794  -9.164   1.021  0.00  0.00    -0.371 OA
ENDROOT
BRANCH   8  14
ATOM     14  N   UNL     1       1.488  -4.501  -0.036  0.00  0.00    -0.343 N 
ATOM     15  H   UNL     1       1.702  -5.445   0.030  0.00  0.00    +0.144 HD
ATOM     16  H   UNL     1       2.201  -3.847  -0.112  0.00  0.00    +0.144 HD
ENDBRANCH   8  14
BRANCH   1  17
ATOM     17  C   UNL     1       1.583  -9.344   1.419  0.00  0.00    +0.031 C 
BRANCH  17  19
ATOM     18  C   UNL     1       2.664 -11.449   2.219  0.00  0.00    +0.004 C 
ATOM     19  C   UNL     1       1.422 -10.563   2.330  0.00  0.00    -0.001 C 
ENDBRANCH  17  19
ENDBRANCH   1  17
BRANCH  10  20
ATOM     20  S   UNL     1      -1.732  -0.719  -0.708  0.00  0.00    -0.075 S 
BRANCH  20  21
ATOM     21  C   UNL     1      -0.048  -0.129  -1.012  0.00  0.00    +0.197 C 
BRANCH  21  22
ATOM     22  C   UNL     1      -0.087   1.332  -1.381  0.00  0.00    +0.317 C 
ATOM     23  O   UNL     1      -1.145   1.913  -1.438  0.00  0.00    -0.250 OA
BRANCH  22  24
ATOM     24  O   UNL     1       1.053   1.987  -1.652  0.00  0.00    -0.464 OA
BRANCH  24  25
ATOM     25  C   UNL     1       0.940   3.392  -2.001  0.00  0.00    +0.229 C 
ATOM     26  C   UNL     1       2.333   3.963  -2.273  0.00  0.00    +0.048 C 
ENDBRANCH  24  25
ENDBRANCH  22  24
ENDBRANCH  21  22
ENDBRANCH  20  21
ENDBRANCH  10  20
TORSDOF 8
