REMARK  Name = ZINC40799094
REMARK  5 active torsions:
REMARK  status: ('A' for Active; 'I' for Inactive)
REMARK    1  A    between atoms: C_4  and  C_7
REMARK    2  A    between atoms: C_7  and  N_8
REMARK    3  A    between atoms: C_16  and  N_32
REMARK    4  A    between atoms: C_17  and  S_21
REMARK    5  A    between atoms: S_21  and  C_22
REMARK                            x       y       z     vdW  Elec       q    Type
REMARK                         _______ _______ _______ _____ _____    ______ ____
ROOT
ATOM      1  N   UNL     1       3.861  -0.770   1.507  0.00  0.00    -0.264 N 
ATOM      2  C   UNL     1       2.484  -0.752   1.706  0.00  0.00    +0.127 A 
ATOM      3  C   UNL     1       1.681  -1.677   1.049  0.00  0.00    +0.044 A 
ATOM      4  C   UNL     1       0.314  -1.649   1.256  0.00  0.00    +0.005 A 
ATOM      5  C   UNL     1      -0.206  -0.691   2.118  0.00  0.00    +0.020 A 
ATOM      6  C   UNL     1       0.650   0.197   2.737  0.00  0.00    +0.113 A 
ATOM      7  N   UNL     1       1.951   0.143   2.524  0.00  0.00    -0.240 NA
ATOM      8  C   UNL     1       4.687   0.037   2.284  0.00  0.00    +0.152 A 
ATOM      9  C   UNL     1       5.289  -0.469   3.438  0.00  0.00    +0.098 A 
ATOM     10  C   UNL     1       6.109   0.384   4.181  0.00  0.00    +0.127 A 
ATOM     11  N   UNL     1       6.283   1.636   3.764  0.00  0.00    -0.227 NA
ATOM     12  C   UNL     1       5.696   2.073   2.668  0.00  0.00    +0.224 A 
ATOM     13  N   UNL     1       4.920   1.300   1.936  0.00  0.00    -0.218 NA
ENDROOT
BRANCH   9  14
ATOM     14  N   UNL     1       5.076  -1.796   3.840  0.00  0.00    -0.353 N 
ATOM     15  H   UNL     1       4.568  -2.399   3.275  0.00  0.00    +0.142 HD
ATOM     16  H   UNL     1       5.437  -2.111   4.684  0.00  0.00    +0.142 HD
ENDBRANCH   9  14
BRANCH   1  17
ATOM     17  C   UNL     1       4.441  -1.637   0.479  0.00  0.00    +0.149 C 
BRANCH  17  21
ATOM     18  C   UNL     1       4.654   0.482  -3.223  0.00  0.00    +0.000 A 
ATOM     19  C   UNL     1       5.713   0.531  -2.337  0.00  0.00    +0.000 A 
ATOM     20  C   UNL     1       5.645  -0.154  -1.138  0.00  0.00    +0.005 A 
ATOM     21  C   UNL     1       4.516  -0.889  -0.826  0.00  0.00    -0.030 A 
ATOM     22  C   UNL     1       3.456  -0.938  -1.713  0.00  0.00    +0.005 A 
ATOM     23  C   UNL     1       3.526  -0.253  -2.912  0.00  0.00    +0.000 A 
ENDBRANCH  17  21
ENDBRANCH   1  17
BRANCH  10  24
ATOM     24  S   UNL     1       6.899  -0.189   5.648  0.00  0.00    -0.066 S 
BRANCH  24  25
ATOM     25  C   UNL     1       7.932   1.155   6.128  0.00  0.00    +0.040 A 
ATOM     26  C   UNL     1       7.572   1.967   7.183  0.00  0.00    +0.017 A 
ATOM     27  C   UNL     1       8.378   3.031   7.572  0.00  0.00    +0.002 A 
ATOM     28  C   UNL     1       9.545   3.300   6.922  0.00  0.00    +0.010 A 
ATOM     29  C   UNL     1       9.948   2.496   5.843  0.00  0.00    +0.001 A 
ATOM     30  C   UNL     1       9.140   1.406   5.439  0.00  0.00    +0.085 A 
ATOM     31  N   UNL     1       9.523   0.636   4.417  0.00  0.00    -0.254 NA
ATOM     32  C   UNL     1      10.642   0.864   3.774  0.00  0.00    +0.111 A 
ATOM     33  C   UNL     1      11.486   1.916   4.123  0.00  0.00    +0.020 A 
ATOM     34  C   UNL     1      11.148   2.748   5.152  0.00  0.00    +0.011 A 
ENDBRANCH  24  25
ENDBRANCH  10  24
TORSDOF 5
