REMARK  Name = ZINC14268667
REMARK  13 active torsions:
REMARK  status: ('A' for Active; 'I' for Inactive)
REMARK    1  A    between atoms: C_1  and  C_2
REMARK    2  A    between atoms: C_5  and  C_9
REMARK    3  A    between atoms: C_7  and  C_8
REMARK    4  A    between atoms: C_9  and  C_11
REMARK    5  A    between atoms: C_9  and  N_12
REMARK    6  A    between atoms: C_13  and  C_15
REMARK    7  A    between atoms: C_15  and  N_16
REMARK    8  A    between atoms: C_19  and  C_23
REMARK    9  A    between atoms: C_19  and  C_24
REMARK   10  A    between atoms: C_27  and  C_30
REMARK   11  A    between atoms: C_30  and  C_31
REMARK   12  A    between atoms: C_30  and  C_32
REMARK   13  A    between atoms: C_30  and  C_33
REMARK                            x       y       z     vdW  Elec       q    Type
REMARK                         _______ _______ _______ _____ _____    ______ ____
ROOT
ATOM      1  N   UNL     1       1.304  -0.351  -0.012  0.00  0.00    -0.215 N 
ATOM      2  C   UNL     1       0.002  -0.004   0.002  0.00  0.00    +0.251 C 
ATOM      3  O   UNL     1      -0.954  -0.749   0.008  0.00  0.00    -0.272 OA
ATOM      4  C   UNL     1      -0.018   1.512   0.010  0.00  0.00    +0.135 C 
ATOM      5  N   UNL     1       1.409   1.877  -0.001  0.00  0.00    -0.281 N 
ATOM      6  C   UNL     1       2.101   0.724  -0.014  0.00  0.00    +0.310 C 
ATOM      7  O   UNL     1       3.315   0.665  -0.026  0.00  0.00    -0.252 OA
ATOM      8  C   UNL     1      -0.698   2.034   1.278  0.00  0.00    +0.047 C 
ATOM      9  H   UNL     1       1.777   2.775  -0.000  0.00  0.00    +0.152 HD
ENDROOT
BRANCH   4  10
ATOM     10  C   UNL     1      -0.711   2.039  -1.220  0.00  0.00    -0.015 A 
ATOM     11  C   UNL     1      -1.712   1.299  -1.820  0.00  0.00    +0.006 A 
ATOM     12  C   UNL     1      -2.351   1.785  -2.946  0.00  0.00    +0.004 A 
ATOM     13  C   UNL     1      -1.981   3.007  -3.477  0.00  0.00    -0.042 A 
ATOM     14  C   UNL     1      -0.977   3.745  -2.879  0.00  0.00    +0.004 A 
ATOM     15  C   UNL     1      -0.342   3.261  -1.750  0.00  0.00    +0.006 A 
BRANCH  13  16
ATOM     16  C   UNL     1      -2.673   3.534  -4.707  0.00  0.00    -0.013 C 
ATOM     17  C   UNL     1      -1.646   3.733  -5.824  0.00  0.00    +0.015 C 
ATOM     18  C   UNL     1      -3.735   2.532  -5.164  0.00  0.00    +0.015 C 
ATOM     19  C   UNL     1      -3.340   4.872  -4.383  0.00  0.00    +0.015 C 
ENDBRANCH  13  16
ENDBRANCH   4  10
BRANCH   1  20
ATOM     20  C   UNL     1       1.788  -1.734  -0.025  0.00  0.00    +0.213 C 
BRANCH  20  22
ATOM     21  N   UNL     1       2.375  -3.449  -1.708  0.00  0.00    -0.307 N 
ATOM     22  C   UNL     1       1.940  -2.199  -1.450  0.00  0.00    +0.231 C 
ATOM     23  O   UNL     1       1.671  -1.450  -2.365  0.00  0.00    -0.274 OA
ATOM     24  H   UNL     1       2.590  -4.048  -0.976  0.00  0.00    +0.149 HD
BRANCH  21  25
ATOM     25  C   UNL     1       2.523  -3.901  -3.093  0.00  0.00    +0.100 C 
ATOM     26  C   UNL     1       3.892  -3.473  -3.627  0.00  0.00    +0.033 C 
BRANCH  25  31
ATOM     27  C   UNL     1       2.096  -9.661  -3.294  0.00  0.00    +0.044 C 
ATOM     28  C   UNL     1       2.208  -8.159  -3.242  0.00  0.00    -0.048 A 
ATOM     29  C   UNL     1       2.897  -7.552  -2.208  0.00  0.00    +0.004 A 
ATOM     30  C   UNL     1       3.004  -6.175  -2.163  0.00  0.00    +0.006 A 
ATOM     31  C   UNL     1       2.412  -5.403  -3.146  0.00  0.00    -0.027 A 
ATOM     32  C   UNL     1       1.723  -6.010  -4.179  0.00  0.00    +0.009 A 
ATOM     33  C   UNL     1       1.621  -7.388  -4.227  0.00  0.00    -0.047 A 
ATOM     34  C   UNL     1       0.870  -8.049  -5.354  0.00  0.00    +0.044 C 
ENDBRANCH  25  31
ENDBRANCH  21  25
ENDBRANCH  20  22
ENDBRANCH   1  20
TORSDOF 6
