REMARK  Name = ZINC66120986
REMARK  9 active torsions:
REMARK  status: ('A' for Active; 'I' for Inactive)
REMARK    1  A    between atoms: C_1  and  C_2
REMARK    2  A    between atoms: C_2  and  C_3
REMARK    3  A    between atoms: N_5  and  C_6
REMARK    4  A    between atoms: C_9  and  C_12
REMARK    5  A    between atoms: C_12  and  C_14
REMARK    6  A    between atoms: C_12  and  N_15
REMARK    7  A    between atoms: C_22  and  C_25
REMARK    8  A    between atoms: C_25  and  C_26
REMARK    9  A    between atoms: C_26  and  C_27
REMARK                            x       y       z     vdW  Elec       q    Type
REMARK                         _______ _______ _______ _____ _____    ______ ____
ROOT
ATOM      1  N   UNL     1       4.658  -4.594  -5.658  0.00  0.00    -0.293 N 
ATOM      2  C   UNL     1       5.789  -4.852  -6.344  0.00  0.00    +0.303 C 
ATOM      3  O   UNL     1       6.183  -4.067  -7.185  0.00  0.00    -0.253 OA
ATOM      4  N   UNL     1       6.484  -5.980  -6.097  0.00  0.00    -0.285 N 
ATOM      5  C   UNL     1       6.083  -6.884  -5.010  0.00  0.00    +0.109 C 
ATOM      6  C   UNL     1       7.290  -7.126  -4.099  0.00  0.00    +0.019 C 
ATOM      7  C   UNL     1       8.464  -7.635  -4.939  0.00  0.00    +0.006 C 
ATOM      8  C   UNL     1       8.847  -6.577  -5.977  0.00  0.00    +0.007 C 
ATOM      9  C   UNL     1       7.654  -6.332  -6.913  0.00  0.00    +0.112 C 
ATOM     10  H   UNL     1       4.383  -5.182  -4.938  0.00  0.00    +0.151 HD
ENDROOT
BRANCH   1  11
ATOM     11  C   UNL     1       3.844  -3.425  -6.001  0.00  0.00    +0.102 C 
ATOM     12  C   UNL     1       2.895  -3.783  -7.146  0.00  0.00    +0.033 C 
BRANCH  11  16
ATOM     13  C   UNL     1       1.571  -2.221  -2.588  0.00  0.00    +0.033 A 
ATOM     14  C   UNL     1       2.148  -1.264  -3.412  0.00  0.00    +0.023 A 
ATOM     15  C   UNL     1       2.882  -1.657  -4.514  0.00  0.00    +0.007 A 
ATOM     16  C   UNL     1       3.043  -3.001  -4.797  0.00  0.00    -0.027 A 
ATOM     17  C   UNL     1       2.469  -3.956  -3.978  0.00  0.00    +0.007 A 
ATOM     18  C   UNL     1       1.739  -3.570  -2.871  0.00  0.00    +0.023 A 
BRANCH  13  21
ATOM     19  C   UNL     1       0.865  -2.563  -0.342  0.00  0.00    +0.217 C 
ATOM     20  O   UNL     1       1.476  -3.610  -0.321  0.00  0.00    -0.275 OA
ATOM     21  N   UNL     1       0.827  -1.827  -1.470  0.00  0.00    -0.286 N 
ATOM     22  H   UNL     1       0.284  -1.024  -1.508  0.00  0.00    +0.155 HD
BRANCH  19  24
ATOM     23  C   UNL     1       0.348  -3.096   2.024  0.00  0.00    +0.013 C 
ATOM     24  C   UNL     1       0.148  -2.084   0.894  0.00  0.00    +0.093 C 
ENDBRANCH  19  24
ENDBRANCH  13  21
ENDBRANCH  11  16
ENDBRANCH   1  11
BRANCH   8  25
ATOM     25  C   UNL     1      10.043  -7.073  -6.793  0.00  0.00    +0.014 C 
BRANCH  25  26
ATOM     26  C   UNL     1      10.503  -5.967  -7.745  0.00  0.00    +0.096 C 
BRANCH  26  27
ATOM     27  C   UNL     1      11.681  -6.455  -8.549  0.00  0.00    +0.210 C 
ATOM     28  O   UNL     1      12.109  -7.577  -8.378  0.00  0.00    -0.276 OA
ATOM     29  N   UNL     1      12.258  -5.645  -9.459  0.00  0.00    -0.329 N 
ATOM     30  H   UNL     1      11.915  -4.748  -9.596  0.00  0.00    +0.145 HD
ATOM     31  H   UNL     1      13.015  -5.959  -9.977  0.00  0.00    +0.145 HD
ENDBRANCH  26  27
ENDBRANCH  25  26
ENDBRANCH   8  25
TORSDOF 7
