REMARK  Name = ZINC39991984
REMARK  15 active torsions:
REMARK  status: ('A' for Active; 'I' for Inactive)
REMARK    1  A    between atoms: C_1  and  C_2
REMARK    2  A    between atoms: C_2  and  C_3
REMARK    3  A    between atoms: C_2  and  C_4
REMARK    4  A    between atoms: C_2  and  C_5
REMARK    5  A    between atoms: C_7  and  C_16
REMARK    6  A    between atoms: C_9  and  C_12
REMARK    7  A    between atoms: C_10  and  O_11
REMARK    8  A    between atoms: C_12  and  C_13
REMARK    9  A    between atoms: C_12  and  C_14
REMARK   10  A    between atoms: C_12  and  C_15
REMARK   11  A    between atoms: C_17  and  C_18
REMARK   12  A    between atoms: C_17  and  C_20
REMARK   13  A    between atoms: N_22  and  C_23
REMARK   14  A    between atoms: C_24  and  C_32
REMARK   15  A    between atoms: N_34  and  C_35
REMARK                            x       y       z     vdW  Elec       q    Type
REMARK                         _______ _______ _______ _____ _____    ______ ____
ROOT
ATOM      1  C   UNL     1       2.408   0.917  -4.250  0.00  0.00    +0.032 C 
ATOM      2  C   UNL     1       1.747   2.103  -4.486  0.00  0.00    +0.114 C 
ENDROOT
BRANCH   1   5
ATOM      3  C   UNL     1       1.292  -0.104  -0.836  0.00  0.00    +0.000 A 
ATOM      4  C   UNL     1       1.643   0.679  -1.899  0.00  0.00    +0.015 A 
ATOM      5  C   UNL     1       2.030   0.083  -3.107  0.00  0.00    -0.023 A 
ATOM      6  C   UNL     1       2.054  -1.315  -3.217  0.00  0.00    +0.015 A 
ATOM      7  C   UNL     1       1.700  -2.087  -2.148  0.00  0.00    +0.000 A 
ATOM      8  C   UNL     1       1.322  -1.490  -0.950  0.00  0.00    +0.124 A 
BRANCH   3  10
ATOM      9  C   UNL     1       0.927   2.058   0.324  0.00  0.00    +0.015 C 
ATOM     10  C   UNL     1       0.876   0.535   0.464  0.00  0.00    -0.009 C 
ATOM     11  C   UNL     1       1.828   0.093   1.577  0.00  0.00    +0.015 C 
ATOM     12  C   UNL     1      -0.550   0.103   0.811  0.00  0.00    +0.015 C 
ENDBRANCH   3  10
BRANCH   7  13
ATOM     13  C   UNL     1       1.726  -3.589  -2.264  0.00  0.00    -0.009 C 
ATOM     14  C   UNL     1       2.179  -3.985  -3.671  0.00  0.00    +0.015 C 
ATOM     15  C   UNL     1       2.700  -4.165  -1.234  0.00  0.00    +0.015 C 
ATOM     16  C   UNL     1       0.323  -4.144  -2.005  0.00  0.00    +0.015 C 
ENDBRANCH   7  13
BRANCH   8  17
ATOM     17  O   UNL     1       0.977  -2.263   0.111  0.00  0.00    -0.506 OA
ATOM     18  H   UNL     1       0.036  -2.483   0.147  0.00  0.00    +0.292 HD
ENDBRANCH   8  17
ENDBRANCH   1   5
BRANCH   2  19
ATOM     19  C   UNL     1       2.229   3.018  -5.532  0.00  0.00    +0.259 C 
ATOM     20  O   UNL     1       3.210   2.728  -6.189  0.00  0.00    -0.269 OA
ATOM     21  N   UNL     1       1.583   4.178  -5.762  0.00  0.00    -0.275 N 
ATOM     22  H   UNL     1       0.800   4.410  -5.238  0.00  0.00    +0.156 HD
BRANCH  21  23
ATOM     23  C   UNL     1       2.037   5.040  -6.748  0.00  0.00    +0.085 A 
ATOM     24  C   UNL     1       1.507   6.267  -7.117  0.00  0.00    +0.069 A 
ATOM     25  C   UNL     1       2.174   6.982  -8.191  0.00  0.00    -0.023 A 
ATOM     26  C   UNL     1       3.248   6.339  -8.699  0.00  0.00    -0.004 A 
ATOM     27  S   UNL     1       3.358   4.841  -7.764  0.00  0.00    -0.077 S 
ATOM     28  C   UNL     1       4.138   6.811  -9.806  0.00  0.00    +0.043 C 
ATOM     29  C   UNL     1       3.430   7.962 -10.537  0.00  0.00    +0.005 C 
ATOM     30  C   UNL     1       2.903   8.958  -9.500  0.00  0.00    +0.005 C 
ATOM     31  C   UNL     1       1.737   8.337  -8.727  0.00  0.00    +0.037 C 
BRANCH  24  32
ATOM     32  C   UNL     1       0.323   6.819  -6.452  0.00  0.00    +0.246 C 
ATOM     33  O   UNL     1       0.452   7.529  -5.471  0.00  0.00    -0.270 OA
ATOM     34  N   UNL     1      -0.907   6.542  -6.926  0.00  0.00    -0.314 N 
ATOM     35  C   UNL     1      -2.091   7.094  -6.262  0.00  0.00    +0.128 C 
ATOM     36  H   UNL     1      -1.010   5.976  -7.708  0.00  0.00    +0.149 HD
ENDBRANCH  24  32
ENDBRANCH  21  23
ENDBRANCH   2  19
BRANCH   2  37
ATOM     37  C   UNL     1       0.592   2.446  -3.712  0.00  0.00    +0.104 C 
ATOM     38  N   UNL     1      -0.324   2.717  -3.098  0.00  0.00    -0.191 NA
ENDBRANCH   2  37
TORSDOF 8
