REMARK  Name = ZINC16552850
REMARK  9 active torsions:
REMARK  status: ('A' for Active; 'I' for Inactive)
REMARK    1  A    between atoms: C_1  and  C_2
REMARK    2  A    between atoms: C_3  and  C_9
REMARK    3  A    between atoms: C_4  and  N_7
REMARK    4  A    between atoms: N_7  and  C_8
REMARK    5  A    between atoms: C_9  and  O_11
REMARK    6  A    between atoms: O_11  and  C_12
REMARK    7  A    between atoms: C_12  and  C_13
REMARK    8  A    between atoms: N_18  and  C_19
REMARK    9  A    between atoms: C_25  and  C_27
REMARK                            x       y       z     vdW  Elec       q    Type
REMARK                         _______ _______ _______ _____ _____    ______ ____
ROOT
ATOM      1  C   UNL     1      -1.412  -0.526   0.013  0.00  0.00    +0.258 C 
ATOM      2  O   UNL     1      -2.344   0.249   0.026  0.00  0.00    -0.272 OA
ATOM      3  N   UNL     1      -1.640  -1.854   0.008  0.00  0.00    -0.237 N 
ATOM      4  C   UNL     1      -2.904  -2.321   0.017  0.00  0.00    +0.306 C 
ATOM      5  O   UNL     1      -3.839  -1.543   0.030  0.00  0.00    -0.252 OA
ATOM      6  N   UNL     1      -3.133  -3.649   0.012  0.00  0.00    -0.296 N 
ATOM      7  H   UNL     1      -0.894  -2.474  -0.003  0.00  0.00    +0.159 HD
ATOM      8  H   UNL     1      -2.387  -4.269   0.002  0.00  0.00    +0.151 HD
ENDROOT
BRANCH   6   9
ATOM      9  C   UNL     1      -4.507  -4.156   0.023  0.00  0.00    +0.077 C 
ATOM     10  C   UNL     1      -5.015  -4.222   1.464  0.00  0.00    +0.022 C 
ATOM     11  C   UNL     1      -4.120  -5.159   2.278  0.00  0.00    +0.002 C 
ATOM     12  C   UNL     1      -4.152  -6.558   1.661  0.00  0.00    +0.000 C 
ATOM     13  C   UNL     1      -3.644  -6.492   0.220  0.00  0.00    +0.005 C 
ATOM     14  C   UNL     1      -4.539  -5.556  -0.594  0.00  0.00    +0.006 C 
ATOM     15  C   UNL     1      -4.031  -5.489  -2.036  0.00  0.00    +0.009 C 
ENDBRANCH   6   9
BRANCH   1  16
ATOM     16  C   UNL     1       0.002  -0.004   0.002  0.00  0.00    +0.328 C 
BRANCH  16  17
ATOM     17  O   UNL     1      -0.018   1.448   0.010  0.00  0.00    -0.452 OA
BRANCH  17  18
ATOM     18  C   UNL     1       1.175   2.076   0.002  0.00  0.00    +0.344 C 
ATOM     19  O   UNL     1       2.204   1.428  -0.011  0.00  0.00    -0.245 OA
BRANCH  18  22
ATOM     20  C   UNL     1       1.246   3.588   2.528  0.00  0.00    +0.067 C 
ATOM     21  C   UNL     1       1.267   4.281   1.190  0.00  0.00    +0.063 A 
ATOM     22  C   UNL     1       1.232   3.541   0.009  0.00  0.00    +0.109 A 
ATOM     23  C   UNL     1       1.250   4.297  -1.169  0.00  0.00    +0.100 A 
ATOM     24  S   UNL     1       1.318   5.916  -0.556  0.00  0.00    +0.027 S 
ATOM     25  N   UNL     1       1.321   5.581   1.119  0.00  0.00    -0.213 NA
BRANCH  23  26
ATOM     26  N   UNL     1       1.221   3.865  -2.479  0.00  0.00    -0.340 N 
ATOM     27  C   UNL     1       1.248   4.840  -3.572  0.00  0.00    +0.126 C 
ATOM     28  H   UNL     1       1.183   2.916  -2.676  0.00  0.00    +0.146 HD
ENDBRANCH  23  26
ENDBRANCH  18  22
ENDBRANCH  17  18
ENDBRANCH  16  17
ENDBRANCH   1  16
TORSDOF 6
