REMARK  Name = ZINC07649728
REMARK  7 active torsions:
REMARK  status: ('A' for Active; 'I' for Inactive)
REMARK    1  A    between atoms: C_1  and  C_2
REMARK    2  A    between atoms: C_2  and  C_4
REMARK    3  A    between atoms: C_2  and  O_20
REMARK    4  A    between atoms: N_6  and  N_7
REMARK    5  A    between atoms: C_8  and  C_9
REMARK    6  A    between atoms: C_18  and  O_19
REMARK    7  A    between atoms: O_20  and  C_21
REMARK                            x       y       z     vdW  Elec       q    Type
REMARK                         _______ _______ _______ _____ _____    ______ ____
ROOT
ATOM      1  C   UNL     1       3.479   1.924  -0.169  0.00  0.00    +0.273 C 
ATOM      2  O   UNL     1       3.542   3.118   0.034  0.00  0.00    -0.270 OA
ATOM      3  N   UNL     1       2.280   1.329  -0.329  0.00  0.00    -0.204 N 
ATOM      4  H   UNL     1       2.230   0.374  -0.491  0.00  0.00    +0.177 HD
ENDROOT
BRANCH   1   6
ATOM      5  C   UNL     1       4.715   0.028   0.844  0.00  0.00    +0.062 C 
ATOM      6  C   UNL     1       4.742   1.105  -0.243  0.00  0.00    +0.257 C 
BRANCH   6   7
ATOM      7  O   UNL     1       5.873   1.954  -0.043  0.00  0.00    -0.480 OA
BRANCH   7   8
ATOM      8  C   UNL     1       7.056   1.540  -0.569  0.00  0.00    +0.122 A 
ATOM      9  C   UNL     1       7.142   0.278  -1.165  0.00  0.00    +0.046 A 
ATOM     10  C   UNL     1       8.312  -0.165  -1.699  0.00  0.00    +0.012 A 
ATOM     11  C   UNL     1       9.453   0.655  -1.654  0.00  0.00    -0.018 A 
ATOM     12  C   UNL     1      10.677   0.230  -2.197  0.00  0.00    +0.008 A 
ATOM     13  C   UNL     1      11.762   1.049  -2.136  0.00  0.00    +0.001 A 
ATOM     14  C   UNL     1      11.679   2.307  -1.542  0.00  0.00    +0.001 A 
ATOM     15  C   UNL     1      10.510   2.753  -1.006  0.00  0.00    +0.008 A 
ATOM     16  C   UNL     1       9.368   1.935  -1.050  0.00  0.00    -0.014 A 
ATOM     17  C   UNL     1       8.144   2.364  -0.513  0.00  0.00    +0.054 A 
ENDBRANCH   7   8
ENDBRANCH   6   7
ENDBRANCH   1   6
BRANCH   3  18
ATOM     18  N   UNL     1       1.106   2.091  -0.261  0.00  0.00    -0.187 NA
ATOM     19  C   UNL     1      -0.050   1.518  -0.415  0.00  0.00    +0.142 C 
BRANCH  19  20
ATOM     20  C   UNL     1      -1.282   2.318  -0.349  0.00  0.00    +0.044 A 
ATOM     21  C   UNL     1      -2.590   1.691  -0.526  0.00  0.00    -0.006 A 
ATOM     22  C   UNL     1      -2.715   0.317  -0.762  0.00  0.00    +0.009 A 
ATOM     23  C   UNL     1      -3.954  -0.230  -0.922  0.00  0.00    +0.001 A 
ATOM     24  C   UNL     1      -5.098   0.561  -0.853  0.00  0.00    +0.001 A 
ATOM     25  C   UNL     1      -5.013   1.901  -0.624  0.00  0.00    +0.008 A 
ATOM     26  C   UNL     1      -3.751   2.498  -0.456  0.00  0.00    -0.017 A 
ATOM     27  C   UNL     1      -3.623   3.878  -0.218  0.00  0.00    +0.012 A 
ATOM     28  C   UNL     1      -2.399   4.445  -0.055  0.00  0.00    +0.046 A 
ATOM     29  C   UNL     1      -1.227   3.691  -0.111  0.00  0.00    +0.126 A 
BRANCH  29  30
ATOM     30  O   UNL     1      -0.025   4.298   0.063  0.00  0.00    -0.506 OA
ATOM     31  H   UNL     1       0.373   4.623  -0.756  0.00  0.00    +0.292 HD
ENDBRANCH  29  30
ENDBRANCH  19  20
ENDBRANCH   3  18
TORSDOF 6
