REMARK  Name = ZINC18198854
REMARK  7 active torsions:
REMARK  status: ('A' for Active; 'I' for Inactive)
REMARK    1  A    between atoms: C_1  and  C_2
REMARK    2  A    between atoms: C_5  and  C_9
REMARK    3  A    between atoms: C_7  and  C_8
REMARK    4  A    between atoms: C_12  and  C_38
REMARK    5  A    between atoms: N_14  and  C_30
REMARK    6  A    between atoms: C_22  and  C_25
REMARK    7  A    between atoms: C_35  and  C_36
REMARK                            x       y       z     vdW  Elec       q    Type
REMARK                         _______ _______ _______ _____ _____    ______ ____
ROOT
ATOM      1  C   UNL     1      -1.337  -0.043  -0.074  0.00  0.00    +0.089 C 
ATOM      2  C   UNL     1      -0.053   0.687   0.202  0.00  0.00    +0.027 A 
ATOM      3  C   UNL     1       0.154   1.927   0.793  0.00  0.00    +0.066 A 
ATOM      4  N   UNL     1       1.446   2.156   0.830  0.00  0.00    -0.170 NA
ATOM      5  N   UNL     1       2.110   1.059   0.258  0.00  0.00    -0.217 N 
ATOM      6  C   UNL     1       1.171   0.167  -0.123  0.00  0.00    +0.131 A 
ATOM      7  N   UNL     1       1.291  -1.071  -0.740  0.00  0.00    -0.302 N 
ATOM      8  C   UNL     1       0.171  -1.638  -1.295  0.00  0.00    +0.017 C 
ATOM      9  C   UNL     1      -1.074  -1.190  -1.026  0.00  0.00    +0.024 C 
ATOM     10  C   UNL     1      -2.199  -1.776  -1.635  0.00  0.00    +0.162 C 
ATOM     11  O   UNL     1      -3.306  -1.354  -1.367  0.00  0.00    -0.292 OA
ATOM     12  C   UNL     1      -2.063  -2.913  -2.609  0.00  0.00    +0.088 C 
ATOM     13  C   UNL     1      -0.701  -2.813  -3.304  0.00  0.00    +0.039 C 
ATOM     14  C   UNL     1       0.388  -2.806  -2.230  0.00  0.00    +0.060 C 
ATOM     15  C   UNL     1      -0.921   2.853   1.299  0.00  0.00    +0.068 C 
ATOM     16  H   UNL     1       2.147  -1.526  -0.778  0.00  0.00    +0.153 HD
ENDROOT
BRANCH   1  21
ATOM     17  C   UNL     1      -3.480  -2.107   4.880  0.00  0.00    +0.044 C 
ATOM     18  C   UNL     1      -2.922  -1.569   3.587  0.00  0.00    -0.048 A 
ATOM     19  C   UNL     1      -1.671  -1.971   3.155  0.00  0.00    +0.004 A 
ATOM     20  C   UNL     1      -1.160  -1.480   1.968  0.00  0.00    +0.005 A 
ATOM     21  C   UNL     1      -1.896  -0.581   1.218  0.00  0.00    -0.035 A 
ATOM     22  C   UNL     1      -3.146  -0.181   1.649  0.00  0.00    +0.008 A 
ATOM     23  C   UNL     1      -3.659  -0.675   2.835  0.00  0.00    -0.047 A 
ATOM     24  C   UNL     1      -5.022  -0.238   3.306  0.00  0.00    +0.044 C 
ENDBRANCH   1  21
BRANCH   5  25
ATOM     25  C   UNL     1       3.491   0.916   0.111  0.00  0.00    +0.082 A 
ATOM     26  C   UNL     1       4.214   0.155   1.019  0.00  0.00    +0.029 A 
ATOM     27  C   UNL     1       5.580   0.015   0.872  0.00  0.00    +0.002 A 
ATOM     28  C   UNL     1       6.239   0.631  -0.180  0.00  0.00    +0.001 A 
ATOM     29  C   UNL     1       5.537   1.391  -1.091  0.00  0.00    +0.017 A 
ATOM     30  C   UNL     1       4.154   1.537  -0.959  0.00  0.00    +0.089 A 
BRANCH  30  31
ATOM     31  C   UNL     1       3.396   2.343  -1.933  0.00  0.00    +0.389 C 
ATOM     32  O   UNL     1       2.184   2.388  -1.872  0.00  0.00    -0.241 OA
ATOM     33  O   UNL     1       4.049   3.029  -2.892  0.00  0.00    -0.241 OA
ENDBRANCH  30  31
ENDBRANCH   5  25
BRANCH  13  34
ATOM     34  C   UNL     1      -0.508  -3.998  -4.215  0.00  0.00    -0.006 A 
ATOM     35  C   UNL     1      -0.316  -4.021  -5.557  0.00  0.00    +0.011 A 
ATOM     36  C   UNL     1      -0.156  -5.239  -6.191  0.00  0.00    +0.008 A 
ATOM     37  C   UNL     1      -0.208  -6.375  -5.454  0.00  0.00    +0.045 A 
ATOM     38  S   UNL     1      -0.482  -5.736  -3.809  0.00  0.00    -0.101 S 
ENDBRANCH  13  34
TORSDOF 4
