REMARK  Name = ZINC19970467
REMARK  6 active torsions:
REMARK  status: ('A' for Active; 'I' for Inactive)
REMARK    1  A    between atoms: C_1  and  C_2
REMARK    2  A    between atoms: C_4  and  N_20
REMARK    3  A    between atoms: C_6  and  C_9
REMARK    4  A    between atoms: C_7  and  C_8
REMARK    5  A    between atoms: C_9  and  C_11
REMARK    6  A    between atoms: C_9  and  N_19
REMARK                            x       y       z     vdW  Elec       q    Type
REMARK                         _______ _______ _______ _____ _____    ______ ____
ROOT
ATOM      1  C   UNL     1      -1.329   2.111   0.019  0.00  0.00    -0.010 C 
ENDROOT
BRANCH   1   7
ATOM      2  C   UNL     1      -0.445   4.882  -4.054  0.00  0.00    +0.044 C 
ATOM      3  C   UNL     1      -1.182   3.756  -3.376  0.00  0.00    -0.045 A 
ATOM      4  C   UNL     1      -2.111   3.014  -4.082  0.00  0.00    +0.036 A 
ATOM      5  C   UNL     1      -2.788   1.982  -3.461  0.00  0.00    +0.127 A 
ATOM      6  C   UNL     1      -2.535   1.690  -2.134  0.00  0.00    +0.035 A 
ATOM      7  C   UNL     1      -1.605   2.429  -1.428  0.00  0.00    -0.052 A 
ATOM      8  C   UNL     1      -0.932   3.466  -2.048  0.00  0.00    -0.046 A 
ATOM      9  C   UNL     1       0.078   4.276  -1.278  0.00  0.00    +0.044 C 
BRANCH   5  10
ATOM     10  N   UNL     1      -3.784   1.189  -4.217  0.00  0.00    +0.056 N 
ATOM     11  O   UNL     1      -4.380   0.279  -3.669  0.00  0.00    -0.126 OA
ATOM     12  O   UNL     1      -4.007   1.446  -5.386  0.00  0.00    -0.126 OA
ENDBRANCH   5  10
ENDBRANCH   1   7
BRANCH   1  13
ATOM     13  C   UNL     1      -1.853   0.734   0.339  0.00  0.00    -0.022 A 
ATOM     14  C   UNL     1      -3.116   0.584   0.878  0.00  0.00    +0.008 A 
ATOM     15  C   UNL     1      -3.600  -0.678   1.167  0.00  0.00    +0.039 A 
ATOM     16  C   UNL     1      -2.819  -1.793   0.916  0.00  0.00    +0.126 A 
ATOM     17  C   UNL     1      -1.554  -1.644   0.376  0.00  0.00    +0.077 A 
ATOM     18  C   UNL     1      -1.070  -0.380   0.087  0.00  0.00    +0.128 A 
ATOM     19  F   UNL     1       0.165  -0.233  -0.440  0.00  0.00    -0.205 F 
ATOM     20  F   UNL     1      -3.292  -3.027   1.199  0.00  0.00    -0.205 F 
ENDBRANCH   1  13
BRANCH   1  21
ATOM     21  N   UNL     1      -1.997   3.100   0.874  0.00  0.00    +0.385 N 
ATOM     22  H   UNL     1      -1.796   2.867   1.930  0.00  0.00    -0.089 HD
ATOM     23  H   UNL     1      -3.082   3.069   0.692  0.00  0.00    -0.089 HD
ATOM     24  H   UNL     1      -1.615   4.105   0.641  0.00  0.00    -0.089 HD
ENDBRANCH   1  21
TORSDOF 4
