REMARK  Name = ZINC63456404
REMARK  8 active torsions:
REMARK  status: ('A' for Active; 'I' for Inactive)
REMARK    1  A    between atoms: C_1  and  C_2
REMARK    2  A    between atoms: C_4  and  C_27
REMARK    3  A    between atoms: C_8  and  C_10
REMARK    4  A    between atoms: C_10  and  O_11
REMARK    5  A    between atoms: O_11  and  N_12
REMARK    6  A    between atoms: C_13  and  C_14
REMARK    7  A    between atoms: C_15  and  N_25
REMARK    8  A    between atoms: N_21  and  C_24
REMARK                            x       y       z     vdW  Elec       q    Type
REMARK                         _______ _______ _______ _____ _____    ______ ____
ROOT
ATOM      1  N   UNL     1      -1.018  -2.706   5.553  0.00  0.00    -0.068 NA
ATOM      2  C   UNL     1      -1.498  -3.545   6.427  0.00  0.00    +0.169 C 
ATOM      3  N   UNL     1      -2.079  -3.075   7.592  0.00  0.00    -0.340 N 
ATOM      4  H   UNL     1      -2.195  -2.121   7.726  0.00  0.00    +0.144 HD
ATOM      5  H   UNL     1      -2.371  -3.699   8.275  0.00  0.00    +0.144 HD
ENDROOT
BRANCH   2   6
ATOM      6  C   UNL     1      -1.422  -4.997   6.174  0.00  0.00    +0.098 C 
ATOM      7  C   UNL     1      -2.075  -5.663   5.172  0.00  0.00    +0.041 C 
ATOM      8  C   UNL     1      -1.691  -7.107   5.318  0.00  0.00    +0.076 C 
ATOM      9  C   UNL     1      -1.035  -7.646   4.034  0.00  0.00    +0.032 C 
ATOM     10  C   UNL     1      -1.258  -9.172   4.109  0.00  0.00    +0.003 C 
ATOM     11  C   UNL     1      -2.461  -9.397   5.043  0.00  0.00    +0.003 C 
ATOM     12  C   UNL     1      -2.930  -8.000   5.504  0.00  0.00    +0.032 C 
ATOM     13  N   UNL     1      -0.789  -7.198   6.458  0.00  0.00    -0.289 N 
ATOM     14  C   UNL     1      -0.633  -5.953   6.952  0.00  0.00    +0.252 C 
ATOM     15  O   UNL     1       0.062  -5.666   7.909  0.00  0.00    -0.270 OA
ATOM     16  C   UNL     1      -0.162  -8.419   6.972  0.00  0.00    +0.133 C 
BRANCH   7  17
ATOM     17  N   UNL     1      -2.901  -5.126   4.235  0.00  0.00    -0.359 N 
ATOM     18  H   UNL     1      -3.138  -4.186   4.278  0.00  0.00    +0.142 HD
ATOM     19  H   UNL     1      -3.255  -5.683   3.523  0.00  0.00    +0.142 HD
ENDBRANCH   7  17
ENDBRANCH   2   6
BRANCH   1  20
ATOM     20  O   UNL     1      -0.323  -3.187   4.417  0.00  0.00    -0.383 OA
BRANCH  20  21
ATOM     21  C   UNL     1       0.148  -2.157   3.545  0.00  0.00    +0.358 C 
BRANCH  21  29
ATOM     22  C   UNL     1       0.677   1.517   0.202  0.00  0.00    +0.009 C 
ATOM     23  C   UNL     1       0.679  -0.013   0.192  0.00  0.00    +0.004 C 
ATOM     24  C   UNL     1       1.514  -0.514  -0.989  0.00  0.00    +0.009 C 
ATOM     25  C   UNL     1       1.490  -2.044  -1.020  0.00  0.00    +0.004 C 
ATOM     26  C   UNL     1       2.107  -2.587   0.273  0.00  0.00    +0.111 C 
ATOM     27  N   UNL     1       1.401  -1.995   1.418  0.00  0.00    -0.298 N 
ATOM     28  C   UNL     1       1.287  -0.533   1.498  0.00  0.00    +0.111 C 
ATOM     29  C   UNL     1       0.869  -2.779   2.376  0.00  0.00    +0.256 C 
ATOM     30  O   UNL     1       0.970  -3.985   2.299  0.00  0.00    -0.272 OA
ATOM     31  C   UNL     1       2.298  -2.544  -2.219  0.00  0.00    +0.009 C 
ENDBRANCH  21  29
ENDBRANCH  20  21
ENDBRANCH   1  20
TORSDOF 5
