REMARK  Name = ZINC08627146
REMARK  9 active torsions:
REMARK  status: ('A' for Active; 'I' for Inactive)
REMARK    1  A    between atoms: C_6  and  C_7
REMARK    2  A    between atoms: C_7  and  N_61
REMARK    3  A    between atoms: C_8  and  C_9
REMARK    4  A    between atoms: C_8  and  N_61
REMARK    5  A    between atoms: C_11  and  O_35
REMARK    6  A    between atoms: C_13  and  O_34
REMARK    7  A    between atoms: C_15  and  C_18
REMARK    8  A    between atoms: C_18  and  C_19
REMARK    9  A    between atoms: N_24  and  C_27
REMARK                            x       y       z     vdW  Elec       q    Type
REMARK                         _______ _______ _______ _____ _____    ______ ____
ROOT
ATOM      1  C   UNL     1       0.579   9.076  -3.258  0.00  0.00    +0.133 C 
ATOM      2  C   UNL     1      -0.615   8.760  -4.195  0.00  0.00    +0.172 C 
ATOM      3  C   UNL     1      -0.385   7.264  -4.519  0.00  0.00    +0.174 C 
ATOM      4  C   UNL     1       0.520   6.764  -3.377  0.00  0.00    +0.158 C 
ATOM      5  O   UNL     1       0.726   7.868  -2.480  0.00  0.00    -0.369 OA
ENDROOT
BRANCH   3   6
ATOM      6  O   UNL     1       0.274   7.121  -5.779  0.00  0.00    -0.387 OA
ATOM      7  H   UNL     1      -0.251   7.421  -6.534  0.00  0.00    +0.210 HD
ENDBRANCH   3   6
BRANCH   2   8
ATOM      8  O   UNL     1      -0.556   9.555  -5.381  0.00  0.00    -0.387 OA
ATOM      9  H   UNL     1      -1.230   9.331  -6.038  0.00  0.00    +0.210 HD
ENDBRANCH   2   8
BRANCH   1  10
ATOM     10  C   UNL     1       0.254  10.265  -2.352  0.00  0.00    -0.048 C 
BRANCH  10  11
ATOM     11  N   UNL     1       1.450  10.612  -1.562  0.00  0.00    +0.383 N 
ATOM     12  H   UNL     1       1.726   9.804  -0.991  0.00  0.00    -0.085 HD
ATOM     13  H   UNL     1       2.216  10.860  -2.199  0.00  0.00    -0.085 HD
BRANCH  11  14
ATOM     14  C   UNL     1       1.164  11.758  -0.677  0.00  0.00    -0.047 C 
BRANCH  14  20
ATOM     15  C   UNL     1       2.616  11.492   1.345  0.00  0.00    +0.004 A 
ATOM     16  C   UNL     1       3.753  11.793   2.071  0.00  0.00    +0.038 A 
ATOM     17  C   UNL     1       4.673  12.700   1.572  0.00  0.00    +0.123 A 
ATOM     18  C   UNL     1       4.455  13.301   0.344  0.00  0.00    +0.038 A 
ATOM     19  C   UNL     1       3.319  12.995  -0.383  0.00  0.00    +0.004 A 
ATOM     20  C   UNL     1       2.402  12.089   0.116  0.00  0.00    -0.064 A 
ATOM     21  F   UNL     1       5.782  12.997   2.283  0.00  0.00    -0.205 F 
ENDBRANCH  14  20
ENDBRANCH  11  14
ENDBRANCH  10  11
ENDBRANCH   1  10
BRANCH   4  22
ATOM     22  C   UNL     1      -0.165   5.613  -2.636  0.00  0.00    +0.130 C 
BRANCH  22  23
ATOM     23  C   UNL     1       0.776   5.051  -1.603  0.00  0.00    +0.218 C 
ATOM     24  O   UNL     1       1.885   5.524  -1.471  0.00  0.00    -0.276 OA
ATOM     25  N   UNL     1       0.386   4.022  -0.824  0.00  0.00    -0.298 N 
ATOM     26  C   UNL     1       1.288   3.458   0.191  0.00  0.00    +0.126 C 
ATOM     27  C   UNL     1       1.347   1.939  -0.000  0.00  0.00    +0.124 C 
ATOM     28  N   UNL     1      -0.017   1.394   0.010  0.00  0.00    -0.327 N 
ATOM     29  C   UNL     1      -0.808   1.916  -1.113  0.00  0.00    +0.124 C 
ATOM     30  C   UNL     1      -0.955   3.434  -0.967  0.00  0.00    +0.126 C 
BRANCH  28  31
ATOM     31  C   UNL     1       0.002  -0.004   0.002  0.00  0.00    +0.030 A 
ATOM     32  C   UNL     1       1.213  -0.683  -0.019  0.00  0.00    +0.026 A 
ATOM     33  C   UNL     1       1.230  -2.064  -0.022  0.00  0.00    +0.040 A 
ATOM     34  C   UNL     1       0.040  -2.772  -0.014  0.00  0.00    +0.124 A 
ATOM     35  C   UNL     1      -1.169  -2.097   0.002  0.00  0.00    +0.040 A 
ATOM     36  C   UNL     1      -1.190  -0.716   0.010  0.00  0.00    +0.026 A 
ATOM     37  F   UNL     1       0.058  -4.122  -0.022  0.00  0.00    -0.205 F 
ENDBRANCH  28  31
ENDBRANCH  22  23
ENDBRANCH   4  22
TORSDOF 9
