REMARK  Name = ZINC40030518
REMARK  11 active torsions:
REMARK  status: ('A' for Active; 'I' for Inactive)
REMARK    1  A    between atoms: C_1  and  C_2
REMARK    2  A    between atoms: C_4  and  C_10
REMARK    3  A    between atoms: C_6  and  C_9
REMARK    4  A    between atoms: C_7  and  O_8
REMARK    5  A    between atoms: C_12  and  C_21
REMARK    6  A    between atoms: N_16  and  C_17
REMARK    7  A    between atoms: C_17  and  C_18
REMARK    8  A    between atoms: C_21  and  C_23
REMARK    9  A    between atoms: C_27  and  O_29
REMARK   10  A    between atoms: O_29  and  C_30
REMARK   11  A    between atoms: C_30  and  C_31
REMARK                            x       y       z     vdW  Elec       q    Type
REMARK                         _______ _______ _______ _____ _____    ______ ____
ROOT
ATOM      1  C   UNL     1      -0.192  -2.761  -2.431  0.00  0.00    +0.145 C 
ATOM      2  C   UNL     1      -1.601  -3.225  -2.717  0.00  0.00    +0.076 C 
ATOM      3  C   UNL     1      -1.557  -4.574  -2.811  0.00  0.00    +0.249 C 
ATOM      4  C   UNL     1      -0.167  -5.030  -2.598  0.00  0.00    +0.288 C 
ATOM      5  O   UNL     1       0.199  -6.188  -2.621  0.00  0.00    -0.266 OA
ATOM      6  N   UNL     1       0.635  -3.971  -2.376  0.00  0.00    -0.280 N 
ATOM      7  O   UNL     1      -2.616  -5.378  -3.059  0.00  0.00    -0.282 OA
ENDROOT
BRANCH   1  11
ATOM      8  C   UNL     1       0.403   1.471   0.171  0.00  0.00    +0.047 C 
ATOM      9  C   UNL     1       0.142  -0.012   0.135  0.00  0.00    -0.008 A 
ATOM     10  C   UNL     1       0.097  -0.677  -1.075  0.00  0.00    +0.012 A 
ATOM     11  C   UNL     1      -0.142  -2.038  -1.109  0.00  0.00    -0.022 A 
ATOM     12  C   UNL     1      -0.336  -2.738   0.067  0.00  0.00    +0.012 A 
ATOM     13  C   UNL     1      -0.292  -2.078   1.280  0.00  0.00    -0.008 A 
ATOM     14  C   UNL     1      -0.046  -0.713   1.317  0.00  0.00    +0.123 A 
ATOM     15  C   UNL     1      -0.503  -2.842   2.562  0.00  0.00    +0.047 C 
BRANCH  14  16
ATOM     16  O   UNL     1       0.004  -0.063   2.509  0.00  0.00    -0.506 OA
ATOM     17  H   UNL     1      -0.850   0.279   2.807  0.00  0.00    +0.292 HD
ENDBRANCH  14  16
ENDBRANCH   1  11
BRANCH   2  18
ATOM     18  C   UNL     1      -2.788  -2.377  -2.863  0.00  0.00    +0.195 C 
ATOM     19  O   UNL     1      -3.687  -2.441  -2.045  0.00  0.00    -0.287 OA
BRANCH  18  20
ATOM     20  C   UNL     1      -2.894  -1.443  -4.005  0.00  0.00    +0.026 A 
ATOM     21  C   UNL     1      -1.837  -1.322  -4.911  0.00  0.00    +0.012 A 
ATOM     22  C   UNL     1      -1.939  -0.450  -5.975  0.00  0.00    +0.004 A 
ATOM     23  C   UNL     1      -3.085   0.305  -6.149  0.00  0.00    +0.046 A 
ATOM     24  C   UNL     1      -4.140   0.191  -5.254  0.00  0.00    +0.122 A 
ATOM     25  C   UNL     1      -4.051  -0.685  -4.185  0.00  0.00    +0.057 A 
BRANCH  24  26
ATOM     26  O   UNL     1      -5.263   0.936  -5.430  0.00  0.00    -0.487 OA
BRANCH  26  27
ATOM     27  C   UNL     1      -5.290   1.814  -6.556  0.00  0.00    +0.264 C 
BRANCH  27  28
ATOM     28  C   UNL     1      -6.603   2.552  -6.588  0.00  0.00    -0.010 A 
ATOM     29  C   UNL     1      -7.681   2.014  -7.267  0.00  0.00    +0.010 A 
ATOM     30  C   UNL     1      -8.886   2.690  -7.296  0.00  0.00    +0.039 A 
ATOM     31  C   UNL     1      -9.014   3.905  -6.645  0.00  0.00    +0.123 A 
ATOM     32  C   UNL     1      -7.934   4.442  -5.966  0.00  0.00    +0.039 A 
ATOM     33  C   UNL     1      -6.731   3.763  -5.933  0.00  0.00    +0.010 A 
ATOM     34  F   UNL     1     -10.192   4.566  -6.674  0.00  0.00    -0.205 F 
ENDBRANCH  27  28
ENDBRANCH  26  27
ENDBRANCH  24  26
ENDBRANCH  18  20
ENDBRANCH   2  18
BRANCH   6  35
ATOM     35  C   UNL     1       2.078  -4.019  -2.124  0.00  0.00    +0.136 C 
BRANCH  35  36
ATOM     36  C   UNL     1       2.325  -4.140  -0.643  0.00  0.00    -0.016 C 
ATOM     37  C   UNL     1       3.057  -5.123  -0.179  0.00  0.00    +0.005 C 
ENDBRANCH  35  36
ENDBRANCH   6  35
TORSDOF 9
