REMARK  Name = ZINC14728026
REMARK  5 active torsions:
REMARK  status: ('A' for Active; 'I' for Inactive)
REMARK    1  A    between atoms: C_4  and  O_23
REMARK    2  A    between atoms: C_5  and  C_7
REMARK    3  A    between atoms: C_9  and  O_22
REMARK    4  A    between atoms: C_14  and  O_21
REMARK    5  A    between atoms: C_16  and  O_20
REMARK                            x       y       z     vdW  Elec       q    Type
REMARK                         _______ _______ _______ _____ _____    ______ ____
ROOT
ATOM      1  C   UNL     1       1.227   2.051   0.001  0.00  0.00    +0.243 C 
ATOM      2  C   UNL     1       2.091   1.540  -1.160  0.00  0.00    +0.230 C 
ATOM      3  C   UNL     1       2.288   0.050  -0.951  0.00  0.00    +0.202 C 
ATOM      4  O   UNL     1       3.354  -0.490  -1.167  0.00  0.00    -0.289 OA
ATOM      5  C   UNL     1       1.124  -0.706  -0.476  0.00  0.00    +0.103 A 
ATOM      6  C   UNL     1       1.127  -2.110  -0.490  0.00  0.00    +0.134 A 
ATOM      7  C   UNL     1       0.022  -2.798  -0.021  0.00  0.00    +0.091 A 
ATOM      8  C   UNL     1      -1.081  -2.101   0.456  0.00  0.00    +0.124 A 
ATOM      9  C   UNL     1      -1.092  -0.712   0.468  0.00  0.00    +0.092 A 
ATOM     10  C   UNL     1       0.002  -0.004   0.002  0.00  0.00    +0.139 A 
ATOM     11  O   UNL     1      -0.016   1.350   0.009  0.00  0.00    -0.480 OA
ENDROOT
BRANCH   1  16
ATOM     12  C   UNL     1      -0.422   5.311  -0.954  0.00  0.00    +0.001 A 
ATOM     13  C   UNL     1       0.499   6.235  -0.494  0.00  0.00    +0.004 A 
ATOM     14  C   UNL     1       1.657   5.808   0.126  0.00  0.00    +0.046 A 
ATOM     15  C   UNL     1       1.893   4.451   0.293  0.00  0.00    +0.124 A 
ATOM     16  C   UNL     1       0.970   3.526  -0.173  0.00  0.00    +0.037 A 
ATOM     17  C   UNL     1      -0.186   3.958  -0.793  0.00  0.00    +0.011 A 
BRANCH  15  18
ATOM     18  O   UNL     1       3.029   4.029   0.908  0.00  0.00    -0.506 OA
ATOM     19  H   UNL     1       3.772   3.886   0.307  0.00  0.00    +0.292 HD
ENDBRANCH  15  18
ENDBRANCH   1  16
BRANCH   8  20
ATOM     20  O   UNL     1      -2.159  -2.784   0.917  0.00  0.00    -0.507 OA
ATOM     21  H   UNL     1      -2.821  -2.979   0.239  0.00  0.00    +0.292 HD
ENDBRANCH   8  20
BRANCH   6  22
ATOM     22  O   UNL     1       2.204  -2.786  -0.960  0.00  0.00    -0.506 OA
ATOM     23  H   UNL     1       2.168  -2.975  -1.908  0.00  0.00    +0.292 HD
ENDBRANCH   6  22
BRANCH   2  24
ATOM     24  O   UNL     1       3.357   2.204  -1.154  0.00  0.00    -0.380 OA
ATOM     25  H   UNL     1       3.963   1.901  -1.843  0.00  0.00    +0.211 HD
ENDBRANCH   2  24
TORSDOF 5
