REMARK  Name = ZINC66892278
REMARK  8 active torsions:
REMARK  status: ('A' for Active; 'I' for Inactive)
REMARK    1  A    between atoms: C_1  and  C_2
REMARK    2  A    between atoms: C_7  and  C_8
REMARK    3  A    between atoms: C_8  and  C_9
REMARK    4  A    between atoms: C_9  and  C_11
REMARK    5  A    between atoms: C_9  and  N_12
REMARK    6  A    between atoms: C_13  and  C_15
REMARK    7  A    between atoms: C_15  and  N_16
REMARK    8  A    between atoms: C_21  and  C_23
REMARK                            x       y       z     vdW  Elec       q    Type
REMARK                         _______ _______ _______ _____ _____    ______ ____
ROOT
ATOM      1  C   UNL     1      -4.256  -2.149   3.291  0.00  0.00    +0.020 C 
ENDROOT
BRANCH   1   2
ATOM      2  N   UNL     1      -5.690  -1.907   3.081  0.00  0.00    +0.393 N 
ATOM      3  C   UNL     1      -5.914  -1.474   1.696  0.00  0.00    -0.077 C 
ATOM      4  C   UNL     1      -7.394  -1.143   1.495  0.00  0.00    -0.019 C 
ATOM      5  C   UNL     1      -8.235  -2.390   1.784  0.00  0.00    -0.003 C 
ATOM      6  C   UNL     1      -7.937  -2.876   3.205  0.00  0.00    -0.006 C 
ATOM      7  C   UNL     1      -6.437  -3.143   3.344  0.00  0.00    +0.020 C 
ATOM      8  H   UNL     1      -6.004  -1.185   3.712  0.00  0.00    -0.080 HD
BRANCH   7   9
ATOM      9  C   UNL     1      -6.139  -3.622   4.741  0.00  0.00    +0.202 C 
ATOM     10  O   UNL     1      -5.784  -2.832   5.590  0.00  0.00    -0.277 OA
ATOM     11  N   UNL     1      -6.267  -4.928   5.047  0.00  0.00    -0.298 N 
ATOM     12  C   UNL     1      -6.584  -5.922   4.010  0.00  0.00    +0.136 C 
ATOM     13  C   UNL     1      -5.575  -7.071   4.116  0.00  0.00    +0.179 C 
ATOM     14  O   UNL     1      -5.544  -7.547   5.463  0.00  0.00    -0.377 OA
ATOM     15  C   UNL     1      -5.108  -6.576   6.418  0.00  0.00    +0.179 C 
ATOM     16  C   UNL     1      -6.088  -5.403   6.428  0.00  0.00    +0.136 C 
ENDBRANCH   7   9
ENDBRANCH   1   2
BRANCH   1  18
ATOM     17  N   UNL     1      -2.169  -0.823   3.350  0.00  0.00    -0.314 N 
ATOM     18  C   UNL     1      -3.507  -0.845   3.191  0.00  0.00    +0.197 C 
ATOM     19  O   UNL     1      -4.108   0.184   2.967  0.00  0.00    -0.278 OA
ATOM     20  H   UNL     1      -1.688  -1.646   3.530  0.00  0.00    +0.149 HD
BRANCH  17  21
ATOM     21  C   UNL     1      -1.441   0.444   3.253  0.00  0.00    +0.074 C 
ATOM     22  C   UNL     1      -1.467   1.153   4.609  0.00  0.00    +0.028 C 
BRANCH  21  23
ATOM     23  C   UNL     1       0.009   0.170   2.849  0.00  0.00    +0.057 C 
BRANCH  23  30
ATOM     24  C   UNL     1      -0.011   1.912   0.545  0.00  0.00    +0.044 C 
ATOM     25  C   UNL     1       0.032   0.418   0.359  0.00  0.00    -0.047 A 
ATOM     26  C   UNL     1       0.067  -0.120  -0.914  0.00  0.00    +0.003 A 
ATOM     27  C   UNL     1       0.107  -1.490  -1.085  0.00  0.00    +0.000 A 
ATOM     28  C   UNL     1       0.111  -2.325   0.017  0.00  0.00    +0.000 A 
ATOM     29  C   UNL     1       0.077  -1.788   1.290  0.00  0.00    +0.004 A 
ATOM     30  C   UNL     1       0.042  -0.416   1.461  0.00  0.00    -0.043 A 
ENDBRANCH  23  30
ENDBRANCH  21  23
ENDBRANCH  17  21
ENDBRANCH   1  18
TORSDOF 6
