REMARK  Name = ZINC08680911
REMARK  9 active torsions:
REMARK  status: ('A' for Active; 'I' for Inactive)
REMARK    1  A    between atoms: C_1  and  C_2
REMARK    2  A    between atoms: C_2  and  C_3
REMARK    3  A    between atoms: C_6  and  C_9
REMARK    4  A    between atoms: C_14  and  C_27
REMARK    5  A    between atoms: N_16  and  C_19
REMARK    6  A    between atoms: C_24  and  O_25
REMARK    7  A    between atoms: O_25  and  C_26
REMARK    8  A    between atoms: C_30  and  C_33
REMARK    9  A    between atoms: C_33  and  C_34
REMARK                            x       y       z     vdW  Elec       q    Type
REMARK                         _______ _______ _______ _____ _____    ______ ____
ROOT
ATOM      1  C   UNL     1       3.491  -1.889  -4.958  0.00  0.00    +0.141 C 
ATOM      2  C   UNL     1       3.420  -3.376  -4.755  0.00  0.00    +0.075 C 
ATOM      3  C   UNL     1       4.551  -4.135  -4.700  0.00  0.00    +0.101 C 
ATOM      4  N   UNL     1       4.435  -5.497  -4.543  0.00  0.00    -0.310 N 
ATOM      5  C   UNL     1       3.268  -6.024  -3.824  0.00  0.00    +0.199 C 
ATOM      6  N   UNL     1       2.075  -5.289  -4.252  0.00  0.00    -0.241 N 
ATOM      7  C   UNL     1       2.166  -4.001  -4.628  0.00  0.00    +0.254 C 
ATOM      8  O   UNL     1       1.151  -3.368  -4.861  0.00  0.00    -0.270 OA
ATOM      9  N   UNL     1       5.793  -3.559  -4.800  0.00  0.00    -0.285 N 
ATOM     10  C   UNL     1       5.925  -2.234  -4.973  0.00  0.00    +0.136 C 
ATOM     11  N   UNL     1       4.866  -1.423  -5.054  0.00  0.00    -0.315 N 
ATOM     12  S   UNL     1       7.496  -1.565  -5.091  0.00  0.00    -0.019 S 
ATOM     13  H   UNL     1       5.110  -6.096  -4.899  0.00  0.00    +0.149 HD
ATOM     14  H   UNL     1       5.023  -0.474  -5.184  0.00  0.00    +0.149 HD
ATOM     15  H   UNL     1       6.585  -4.117  -4.746  0.00  0.00    +0.155 HD
ENDROOT
BRANCH   1  19
ATOM     16  C   UNL     1       1.587   0.055  -1.666  0.00  0.00    -0.048 A 
ATOM     17  C   UNL     1       0.902  -0.124  -2.853  0.00  0.00    +0.004 A 
ATOM     18  C   UNL     1       1.518  -0.753  -3.918  0.00  0.00    +0.006 A 
ATOM     19  C   UNL     1       2.820  -1.203  -3.797  0.00  0.00    -0.023 A 
ATOM     20  C   UNL     1       3.505  -1.023  -2.610  0.00  0.00    +0.006 A 
ATOM     21  C   UNL     1       2.890  -0.390  -1.546  0.00  0.00    +0.004 A 
BRANCH  16  23
ATOM     22  C   UNL     1       1.167   2.248  -0.587  0.00  0.00    +0.009 C 
ATOM     23  C   UNL     1       0.915   0.741  -0.504  0.00  0.00    +0.032 C 
ENDBRANCH  16  23
ENDBRANCH   1  19
BRANCH   6  24
ATOM     24  C   UNL     1       0.830  -5.933  -4.270  0.00  0.00    +0.080 A 
ATOM     25  C   UNL     1       0.001  -5.874  -3.160  0.00  0.00    +0.027 A 
ATOM     26  C   UNL     1      -1.226  -6.509  -3.180  0.00  0.00    +0.002 A 
ATOM     27  C   UNL     1      -1.630  -7.204  -4.306  0.00  0.00    +0.004 A 
ATOM     28  C   UNL     1      -0.809  -7.267  -5.416  0.00  0.00    +0.047 A 
ATOM     29  C   UNL     1       0.420  -6.628  -5.405  0.00  0.00    +0.141 A 
BRANCH  29  30
ATOM     30  O   UNL     1       1.227  -6.684  -6.499  0.00  0.00    -0.493 OA
ATOM     31  C   UNL     1       0.742  -7.415  -7.627  0.00  0.00    +0.277 C 
ENDBRANCH  29  30
ENDBRANCH   6  24
BRANCH   5  32
ATOM     32  C   UNL     1       3.468  -5.848  -2.340  0.00  0.00    -0.009 A 
ATOM     33  C   UNL     1       3.592  -6.955  -1.523  0.00  0.00    +0.007 A 
ATOM     34  C   UNL     1       3.775  -6.793  -0.162  0.00  0.00    +0.004 A 
ATOM     35  C   UNL     1       3.833  -5.524   0.381  0.00  0.00    -0.048 A 
ATOM     36  C   UNL     1       3.709  -4.416  -0.437  0.00  0.00    +0.004 A 
ATOM     37  C   UNL     1       3.531  -4.578  -1.798  0.00  0.00    +0.007 A 
BRANCH  35  38
ATOM     38  C   UNL     1       4.032  -5.347   1.864  0.00  0.00    +0.032 C 
ATOM     39  C   UNL     1       5.528  -5.270   2.173  0.00  0.00    +0.009 C 
ENDBRANCH  35  38
ENDBRANCH   5  32
TORSDOF 6
