REMARK  Name = ZINC41231732
REMARK  4 active torsions:
REMARK  status: ('A' for Active; 'I' for Inactive)
REMARK    1  A    between atoms: C_1  and  C_2
REMARK    2  A    between atoms: C_7  and  N_8
REMARK    3  A    between atoms: N_8  and  S_9
REMARK    4  A    between atoms: S_9  and  C_12
REMARK                            x       y       z     vdW  Elec       q    Type
REMARK                         _______ _______ _______ _____ _____    ______ ____
ROOT
ATOM      1  S   UNL     1       0.764  -0.678   3.741  0.00  0.00    +0.072 S 
ATOM      2  O   UNL     1       0.519   0.207   4.826  0.00  0.00    -0.150 OA
ATOM      3  O   UNL     1       0.387  -2.047   3.775  0.00  0.00    -0.150 OA
ENDROOT
BRANCH   1   4
ATOM      4  C   UNL     1       2.500  -0.640   3.443  0.00  0.00    +0.109 A 
ATOM      5  C   UNL     1       3.119  -1.706   2.816  0.00  0.00    +0.032 A 
ATOM      6  C   UNL     1       4.478  -1.680   2.577  0.00  0.00    +0.048 A 
ATOM      7  C   UNL     1       5.238  -0.580   2.966  0.00  0.00    +0.124 A 
ATOM      8  C   UNL     1       4.606   0.481   3.602  0.00  0.00    -0.001 A 
ATOM      9  C   UNL     1       3.248   0.457   3.831  0.00  0.00    +0.036 A 
ATOM     10  C   UNL     1       5.675   1.507   3.924  0.00  0.00    +0.080 C 
ATOM     11  C   UNL     1       6.972   0.685   3.741  0.00  0.00    +0.234 C 
ATOM     12  O   UNL     1       6.570  -0.343   2.820  0.00  0.00    -0.491 OA
ENDBRANCH   1   4
BRANCH   1  13
ATOM     13  N   UNL     1       0.025  -0.016   2.415  0.00  0.00    -0.216 N 
ATOM     14  H   UNL     1      -0.522   0.779   2.511  0.00  0.00    +0.174 HD
BRANCH  13  21
ATOM     15  C   UNL     1       0.152   1.691   0.143  0.00  0.00    +0.046 C 
ATOM     16  C   UNL     1       0.258   0.193   0.022  0.00  0.00    -0.028 A 
ATOM     17  C   UNL     1       0.427  -0.390  -1.218  0.00  0.00    +0.005 A 
ATOM     18  C   UNL     1       0.523  -1.765  -1.331  0.00  0.00    +0.000 A 
ATOM     19  C   UNL     1       0.450  -2.561  -0.202  0.00  0.00    +0.002 A 
ATOM     20  C   UNL     1       0.282  -1.984   1.042  0.00  0.00    +0.025 A 
ATOM     21  C   UNL     1       0.190  -0.603   1.159  0.00  0.00    +0.051 A 
ENDBRANCH  13  21
ENDBRANCH   1  13
TORSDOF 3
