REMARK  Name = ZINC67246101
REMARK  4 active torsions:
REMARK  status: ('A' for Active; 'I' for Inactive)
REMARK    1  A    between atoms: C_6  and  N_7
REMARK    2  A    between atoms: C_8  and  C_10
REMARK    3  A    between atoms: C_10  and  N_11
REMARK    4  A    between atoms: C_12  and  C_14
REMARK                            x       y       z     vdW  Elec       q    Type
REMARK                         _______ _______ _______ _____ _____    ______ ____
ROOT
ATOM      1  N   UNL     1      -2.196  -4.261  -0.311  0.00  0.00    -0.306 N 
ATOM      2  C   UNL     1      -3.209  -5.143  -0.417  0.00  0.00    +0.217 C 
ATOM      3  O   UNL     1      -4.357  -4.750  -0.422  0.00  0.00    -0.276 OA
ATOM      4  H   UNL     1      -1.278  -4.574  -0.307  0.00  0.00    +0.149 HD
ENDROOT
BRANCH   2   5
ATOM      5  C   UNL     1      -2.917  -6.617  -0.527  0.00  0.00    +0.075 C 
ATOM      6  C   UNL     1      -2.069  -6.876  -1.775  0.00  0.00    +0.015 C 
ATOM      7  C   UNL     1      -1.762  -8.372  -1.879  0.00  0.00    +0.036 C 
ATOM      8  C   UNL     1      -3.067  -9.157  -1.959  0.00  0.00    +0.112 C 
ATOM      9  C   UNL     1      -3.934  -8.889  -0.734  0.00  0.00    +0.036 C 
ATOM     10  C   UNL     1      -4.232  -7.391  -0.634  0.00  0.00    +0.015 C 
ATOM     11  C   UNL     1      -3.817  -8.808  -3.223  0.00  0.00    +0.244 C 
ATOM     12  O   UNL     1      -4.246  -7.721  -3.546  0.00  0.00    -0.273 OA
ATOM     13  N   UNL     1      -3.909  -9.961  -3.918  0.00  0.00    -0.238 N 
ATOM     14  C   UNL     1      -3.325 -10.976  -3.268  0.00  0.00    +0.307 C 
ATOM     15  O   UNL     1      -3.278 -12.113  -3.694  0.00  0.00    -0.252 OA
ATOM     16  N   UNL     1      -2.794 -10.595  -2.091  0.00  0.00    -0.285 N 
ATOM     17  H   UNL     1      -4.344 -10.045  -4.780  0.00  0.00    +0.159 HD
ATOM     18  H   UNL     1      -2.325 -11.158  -1.456  0.00  0.00    +0.151 HD
ENDBRANCH   2   5
BRANCH   1  19
ATOM     19  C   UNL     1      -2.480  -2.827  -0.204  0.00  0.00    +0.200 C 
BRANCH  19  21
ATOM     20  N   UNL     1      -1.200  -0.721   0.010  0.00  0.00    -0.284 N 
ATOM     21  C   UNL     1      -1.185  -2.065  -0.099  0.00  0.00    +0.234 C 
ATOM     22  O   UNL     1      -0.128  -2.659  -0.113  0.00  0.00    -0.274 OA
ATOM     23  H   UNL     1      -2.045  -0.252   0.098  0.00  0.00    +0.155 HD
BRANCH  20  29
ATOM     24  C   UNL     1       1.071  -0.454  -0.766  0.00  0.00    +0.026 A 
ATOM     25  C   UNL     1       2.257   0.255  -0.780  0.00  0.00    +0.043 A 
ATOM     26  C   UNL     1       2.380   1.414  -0.033  0.00  0.00    +0.159 A 
ATOM     27  C   UNL     1       1.314   1.866   0.730  0.00  0.00    +0.160 A 
ATOM     28  C   UNL     1       0.126   1.159   0.745  0.00  0.00    +0.064 A 
ATOM     29  C   UNL     1       0.002  -0.004  -0.004  0.00  0.00    +0.036 A 
ATOM     30  F   UNL     1       1.436   2.998   1.458  0.00  0.00    -0.202 F 
ATOM     31  F   UNL     1       3.541   2.105  -0.047  0.00  0.00    -0.202 F 
ENDBRANCH  20  29
ENDBRANCH  19  21
ENDBRANCH   1  19
TORSDOF 4
