REMARK  Name = ZINC02649438
REMARK  5 active torsions:
REMARK  status: ('A' for Active; 'I' for Inactive)
REMARK    1  A    between atoms: C_1  and  C_2
REMARK    2  A    between atoms: N_11  and  C_15
REMARK    3  A    between atoms: C_15  and  C_16
REMARK    4  A    between atoms: N_18  and  C_19
REMARK    5  A    between atoms: C_22  and  C_25
REMARK                            x       y       z     vdW  Elec       q    Type
REMARK                         _______ _______ _______ _____ _____    ______ ____
ROOT
ATOM      1  C   UNL     1      -3.203  -0.548   3.076  0.00  0.00    +0.214 C 
ENDROOT
BRANCH   1  11
ATOM      2  C   UNL     1      -1.149   3.380   2.897  0.00  0.00    +0.010 C 
ATOM      3  C   UNL     1      -0.270   2.862   1.757  0.00  0.00    +0.018 C 
ATOM      4  C   UNL     1      -0.800   3.394   0.423  0.00  0.00    +0.006 C 
ATOM      5  C   UNL     1       0.068   2.859  -0.718  0.00  0.00    +0.000 C 
ATOM      6  C   UNL     1       0.012   1.330  -0.731  0.00  0.00    +0.003 C 
ATOM      7  C   UNL     1       0.545   0.791   0.599  0.00  0.00    +0.035 C 
ATOM      8  C   UNL     1      -0.299   1.338   1.745  0.00  0.00    +0.115 C 
ATOM      9  C   UNL     1      -1.722   0.839   1.636  0.00  0.00    +0.247 C 
ATOM     10  O   UNL     1      -2.502   1.038   0.730  0.00  0.00    -0.273 OA
ATOM     11  N   UNL     1      -1.941   0.125   2.760  0.00  0.00    -0.215 N 
ATOM     12  C   UNL     1      -0.861   0.108   3.551  0.00  0.00    +0.310 C 
ATOM     13  O   UNL     1      -0.814  -0.471   4.619  0.00  0.00    -0.252 OA
ATOM     14  N   UNL     1       0.168   0.804   3.030  0.00  0.00    -0.285 N 
ATOM     15  H   UNL     1       1.045   0.927   3.426  0.00  0.00    +0.151 HD
ENDBRANCH   1  11
BRANCH   1  16
ATOM     16  C   UNL     1      -3.175  -1.952   2.528  0.00  0.00    +0.235 C 
ATOM     17  O   UNL     1      -2.197  -2.351   1.933  0.00  0.00    -0.274 OA
ATOM     18  N   UNL     1      -4.237  -2.763   2.700  0.00  0.00    -0.284 N 
ATOM     19  H   UNL     1      -4.988  -2.472   3.241  0.00  0.00    +0.155 HD
BRANCH  18  20
ATOM     20  C   UNL     1      -4.257  -4.022   2.101  0.00  0.00    +0.033 A 
ATOM     21  C   UNL     1      -3.651  -4.211   0.863  0.00  0.00    +0.024 A 
ATOM     22  C   UNL     1      -3.663  -5.454   0.271  0.00  0.00    +0.015 A 
ATOM     23  C   UNL     1      -4.296  -6.524   0.909  0.00  0.00    +0.037 A 
ATOM     24  C   UNL     1      -4.908  -6.329   2.151  0.00  0.00    +0.015 A 
ATOM     25  C   UNL     1      -4.887  -5.085   2.740  0.00  0.00    +0.024 A 
BRANCH  23  26
ATOM     26  C   UNL     1      -4.317  -7.856   0.275  0.00  0.00    +0.242 C 
ATOM     27  O   UNL     1      -4.868  -8.786   0.832  0.00  0.00    -0.270 OA
ATOM     28  N   UNL     1      -3.726  -8.042  -0.922  0.00  0.00    -0.325 N 
ATOM     29  H   UNL     1      -3.286  -7.300  -1.366  0.00  0.00    +0.145 HD
ATOM     30  H   UNL     1      -3.740  -8.917  -1.339  0.00  0.00    +0.145 HD
ENDBRANCH  23  26
ENDBRANCH  18  20
ENDBRANCH   1  16
TORSDOF 4
