REMARK  Name = ZINC38688239
REMARK  9 active torsions:
REMARK  status: ('A' for Active; 'I' for Inactive)
REMARK    1  A    between atoms: C_1  and  C_2
REMARK    2  A    between atoms: C_9  and  C_38
REMARK    3  A    between atoms: C_10  and  C_12
REMARK    4  A    between atoms: C_12  and  O_14
REMARK    5  A    between atoms: O_14  and  C_15
REMARK    6  A    between atoms: C_22  and  N_37
REMARK    7  A    between atoms: C_23  and  C_35
REMARK    8  A    between atoms: C_24  and  C_26
REMARK    9  A    between atoms: C_29  and  N_32
REMARK                            x       y       z     vdW  Elec       q    Type
REMARK                         _______ _______ _______ _____ _____    ______ ____
ROOT
ATOM      1  C   UNL     1       0.037  -6.605  -4.465  0.00  0.00    +0.136 A 
ATOM      2  C   UNL     1      -0.021  -7.767  -3.707  0.00  0.00    +0.047 A 
ATOM      3  C   UNL     1      -0.042  -8.998  -4.333  0.00  0.00    +0.012 A 
ATOM      4  C   UNL     1      -0.005  -9.079  -5.714  0.00  0.00    +0.008 A 
ATOM      5  C   UNL     1       0.053  -7.922  -6.475  0.00  0.00    +0.138 A 
ATOM      6  C   UNL     1       0.069  -6.683  -5.847  0.00  0.00    +0.093 A 
ATOM      7  O   UNL     1       0.090  -7.981  -7.829  0.00  0.00    -0.441 OA
ATOM      8  C   UNL     1      -0.310  -9.097  -8.462  0.00  0.00    +0.199 C 
ATOM      9  C   UNL     1      -0.388 -10.291  -7.829  0.00  0.00    +0.098 C 
ATOM     10  C   UNL     1      -0.028 -10.431  -6.377  0.00  0.00    +0.098 C 
ENDROOT
BRANCH  10  11
ATOM     11  C   UNL     1       1.332 -11.068  -6.258  0.00  0.00    -0.035 A 
ATOM     12  C   UNL     1       2.438 -10.442  -6.801  0.00  0.00    +0.007 A 
ATOM     13  C   UNL     1       3.686 -11.026  -6.692  0.00  0.00    +0.033 A 
ATOM     14  C   UNL     1       3.828 -12.237  -6.040  0.00  0.00    +0.126 A 
ATOM     15  C   UNL     1       2.722 -12.863  -5.497  0.00  0.00    +0.033 A 
ATOM     16  C   UNL     1       1.474 -12.277  -5.602  0.00  0.00    +0.007 A 
BRANCH  14  17
ATOM     17  N   UNL     1       5.164 -12.864  -5.925  0.00  0.00    +0.056 N 
ATOM     18  O   UNL     1       6.131 -12.316  -6.400  0.00  0.00    -0.126 OA
ATOM     19  O   UNL     1       5.288 -13.923  -5.355  0.00  0.00    -0.126 OA
ENDBRANCH  14  17
ENDBRANCH  10  11
BRANCH   8  20
ATOM     20  N   UNL     1      -0.649  -9.023  -9.790  0.00  0.00    -0.328 N 
ATOM     21  H   UNL     1      -0.598  -8.175 -10.257  0.00  0.00    +0.145 HD
ATOM     22  H   UNL     1      -0.939  -9.820 -10.261  0.00  0.00    +0.145 HD
ENDBRANCH   8  20
BRANCH   9  23
ATOM     23  C   UNL     1      -0.823 -11.444  -8.558  0.00  0.00    +0.101 C 
ATOM     24  N   UNL     1      -1.168 -12.359  -9.137  0.00  0.00    -0.191 NA
ENDBRANCH   9  23
BRANCH   1  25
ATOM     25  O   UNL     1       0.057  -5.393  -3.850  0.00  0.00    -0.420 OA
BRANCH  25  26
ATOM     26  C   UNL     1      -1.083  -4.673  -3.833  0.00  0.00    +0.380 C 
ATOM     27  O   UNL     1      -2.063  -5.071  -4.432  0.00  0.00    -0.241 OA
BRANCH  26  37
ATOM     28  C   UNL     1       0.246   1.338   0.287  0.00  0.00    +0.045 C 
ATOM     29  C   UNL     1      -0.480   0.343  -0.580  0.00  0.00    -0.029 A 
ATOM     30  C   UNL     1       0.177  -0.785  -1.021  0.00  0.00    +0.051 A 
ATOM     31  C   UNL     1      -0.488  -1.706  -1.822  0.00  0.00    +0.137 A 
ATOM     32  C   UNL     1      -1.832  -1.468  -2.170  0.00  0.00    +0.025 A 
ATOM     33  C   UNL     1      -2.481  -0.319  -1.713  0.00  0.00    +0.032 A 
ATOM     34  C   UNL     1      -1.808   0.570  -0.922  0.00  0.00    +0.045 A 
ATOM     35 CL   UNL     1      -2.614   1.996  -0.346  0.00  0.00    -0.083 Cl
ATOM     36  C   UNL     1      -2.232  -2.602  -3.002  0.00  0.00    +0.010 A 
ATOM     37  C   UNL     1      -1.141  -3.408  -3.090  0.00  0.00    +0.216 A 
ATOM     38  O   UNL     1      -0.120  -2.870  -2.391  0.00  0.00    -0.448 OA
ATOM     39  C   UNL     1      -3.581  -2.831  -3.633  0.00  0.00    +0.048 C 
ENDBRANCH  26  37
ENDBRANCH  25  26
ENDBRANCH   1  25
TORSDOF 7
