REMARK  Name = ZINC38532860
REMARK  11 active torsions:
REMARK  status: ('A' for Active; 'I' for Inactive)
REMARK    1  A    between atoms: C_1  and  C_2
REMARK    2  A    between atoms: C_2  and  O_3
REMARK    3  A    between atoms: O_3  and  C_4
REMARK    4  A    between atoms: C_6  and  C_19
REMARK    5  A    between atoms: C_9  and  O_10
REMARK    6  A    between atoms: O_10  and  C_11
REMARK    7  A    between atoms: C_11  and  C_12
REMARK    8  A    between atoms: C_15  and  C_18
REMARK    9  A    between atoms: C_21  and  C_32
REMARK   10  A    between atoms: C_22  and  N_31
REMARK   11  A    between atoms: C_27  and  C_30
REMARK                            x       y       z     vdW  Elec       q    Type
REMARK                         _______ _______ _______ _____ _____    ______ ____
ROOT
ATOM      1  C   UNL     1      -1.498  -1.849   0.006  0.00  0.00    +0.162 A 
ATOM      2  C   UNL     1      -0.389  -2.680  -0.003  0.00  0.00    +0.054 A 
ATOM      3  C   UNL     1      -0.553  -4.052  -0.008  0.00  0.00    -0.031 A 
ATOM      4  C   UNL     1      -1.823  -4.600  -0.005  0.00  0.00    +0.008 A 
ATOM      5  C   UNL     1      -2.934  -3.777   0.004  0.00  0.00    +0.050 A 
ATOM      6  C   UNL     1      -2.776  -2.400   0.016  0.00  0.00    +0.162 A 
ENDROOT
BRANCH   3   7
ATOM      7  C   UNL     1       0.654  -4.954  -0.018  0.00  0.00    +0.098 C 
ATOM      8  C   UNL     1       0.630  -5.877   1.187  0.00  0.00    +0.097 C 
ATOM      9  C   UNL     1       0.766  -7.213   1.059  0.00  0.00    +0.195 C 
ATOM     10  O   UNL     1       0.910  -7.901  -0.088  0.00  0.00    -0.448 OA
ATOM     11  C   UNL     1       1.386  -7.183  -1.229  0.00  0.00    +0.343 C 
ATOM     12  C   UNL     1       0.619  -5.857  -1.220  0.00  0.00    +0.030 C 
ATOM     13  C   UNL     1       0.022  -5.801  -2.385  0.00  0.00    +0.066 C 
ATOM     14  N   UNL     1       0.230  -6.951  -3.077  0.00  0.00    -0.155 NA
ATOM     15  N   UNL     1       0.959  -7.788  -2.494  0.00  0.00    -0.138 NA
ATOM     16  C   UNL     1      -0.779  -4.627  -2.886  0.00  0.00    +0.067 C 
BRANCH   9  17
ATOM     17  N   UNL     1       0.757  -7.947   2.219  0.00  0.00    -0.329 N 
ATOM     18  H   UNL     1       0.656  -7.500   3.074  0.00  0.00    +0.145 HD
ATOM     19  H   UNL     1       0.851  -8.911   2.184  0.00  0.00    +0.145 HD
ENDBRANCH   9  17
BRANCH   8  20
ATOM     20  C   UNL     1       0.460  -5.314   2.493  0.00  0.00    +0.101 C 
ATOM     21  N   UNL     1       0.325  -4.868   3.529  0.00  0.00    -0.191 NA
ENDBRANCH   8  20
ENDBRANCH   3   7
BRANCH   1  22
ATOM     22  O   UNL     1      -1.339  -0.499   0.012  0.00  0.00    -0.489 OA
BRANCH  22  24
ATOM     23  C   UNL     1      -0.019   1.526   0.010  0.00  0.00    +0.048 C 
ATOM     24  C   UNL     1       0.002  -0.004   0.002  0.00  0.00    +0.226 C 
ENDBRANCH  22  24
ENDBRANCH   1  22
BRANCH   6  25
ATOM     25  O   UNL     1      -3.868  -1.589   0.030  0.00  0.00    -0.484 OA
BRANCH  25  26
ATOM     26  C   UNL     1      -5.148  -2.225   0.039  0.00  0.00    +0.264 C 
BRANCH  26  27
ATOM     27  C   UNL     1      -6.229  -1.175   0.055  0.00  0.00    -0.010 A 
ATOM     28  C   UNL     1      -6.710  -0.696   1.259  0.00  0.00    +0.007 A 
ATOM     29  C   UNL     1      -7.702   0.266   1.274  0.00  0.00    +0.004 A 
ATOM     30  C   UNL     1      -8.213   0.750   0.084  0.00  0.00    -0.050 A 
ATOM     31  C   UNL     1      -7.732   0.272  -1.120  0.00  0.00    +0.004 A 
ATOM     32  C   UNL     1      -6.737  -0.688  -1.135  0.00  0.00    +0.007 A 
ATOM     33  C   UNL     1      -9.296   1.799   0.100  0.00  0.00    +0.044 C 
ENDBRANCH  26  27
ENDBRANCH  25  26
ENDBRANCH   6  25
TORSDOF 8
