REMARK  Name = ZINC38103706
REMARK  7 active torsions:
REMARK  status: ('A' for Active; 'I' for Inactive)
REMARK    1  A    between atoms: C_1  and  C_2
REMARK    2  A    between atoms: C_5  and  C_9
REMARK    3  A    between atoms: C_6  and  C_8
REMARK    4  A    between atoms: C_9  and  C_11
REMARK    5  A    between atoms: C_9  and  N_12
REMARK    6  A    between atoms: N_12  and  S_13
REMARK    7  A    between atoms: S_13  and  C_16
REMARK                            x       y       z     vdW  Elec       q    Type
REMARK                         _______ _______ _______ _____ _____    ______ ____
ROOT
ATOM      1  N   UNL     1       0.642  -4.749  -1.279  0.00  0.00    -0.183 NA
ATOM      2  H   UNL     1       0.485  -4.260  -2.102  0.00  0.00    +0.149 HD
ENDROOT
BRANCH   1   3
ATOM      3  S   UNL     1       1.570  -6.121  -1.297  0.00  0.00    +0.060 S 
ATOM      4  O   UNL     1       1.961  -6.330  -2.647  0.00  0.00    -0.153 OA
ATOM      5  O   UNL     1       2.514  -5.987  -0.243  0.00  0.00    -0.153 OA
BRANCH   3   6
ATOM      6  C   UNL     1       0.519  -7.467  -0.863  0.00  0.00    +0.123 A 
ATOM      7  C   UNL     1       0.361  -7.834   0.465  0.00  0.00    +0.033 A 
ATOM      8  C   UNL     1      -0.476  -8.899   0.760  0.00  0.00    +0.042 A 
ATOM      9  C   UNL     1      -1.122  -9.555  -0.273  0.00  0.00    +0.129 A 
ATOM     10  N   UNL     1      -0.948  -9.177  -1.525  0.00  0.00    -0.242 NA
ATOM     11  C   UNL     1      -0.163  -8.165  -1.841  0.00  0.00    +0.141 A 
ATOM     12 CL   UNL     1      -2.173 -10.890   0.083  0.00  0.00    -0.062 Cl
ENDBRANCH   3   6
ENDBRANCH   1   3
BRANCH   1  13
ATOM     13  C   UNL     1       0.059  -4.275  -0.021  0.00  0.00    +0.104 C 
ATOM     14  C   UNL     1      -1.370  -4.804   0.109  0.00  0.00    +0.031 C 
BRANCH  13  19
ATOM     15  C   UNL     1      -0.018   1.503   0.010  0.00  0.00    +0.044 C 
ATOM     16  C   UNL     1       0.002  -0.004   0.002  0.00  0.00    -0.050 A 
ATOM     17  C   UNL     1       0.006  -0.689  -1.199  0.00  0.00    +0.004 A 
ATOM     18  C   UNL     1       0.025  -2.071  -1.207  0.00  0.00    +0.006 A 
ATOM     19  C   UNL     1       0.040  -2.768  -0.013  0.00  0.00    -0.026 A 
ATOM     20  C   UNL     1       0.037  -2.084   1.188  0.00  0.00    -0.045 A 
ATOM     21  C   UNL     1       0.023  -0.702   1.195  0.00  0.00    +0.007 A 
ATOM     22  C   UNL     1       0.054  -2.845   2.489  0.00  0.00    +0.044 C 
ENDBRANCH  13  19
ENDBRANCH   1  13
TORSDOF 4
