REMARK  Name = ZINC03104250
REMARK  6 active torsions:
REMARK  status: ('A' for Active; 'I' for Inactive)
REMARK    1  A    between atoms: N_12  and  C_13
REMARK    2  A    between atoms: C_13  and  C_14
REMARK    3  A    between atoms: C_14  and  N_15
REMARK    4  A    between atoms: N_15  and  C_16
REMARK    5  A    between atoms: C_19  and  C_21
REMARK    6  A    between atoms: C_28  and  C_29
REMARK                            x       y       z     vdW  Elec       q    Type
REMARK                         _______ _______ _______ _____ _____    ______ ____
ROOT
ATOM      1  C   UNL     1      -2.234  -4.570   3.547  0.00  0.00    +0.022 A 
ATOM      2  C   UNL     1      -1.610  -4.306   2.345  0.00  0.00    +0.029 A 
ATOM      3  C   UNL     1      -2.108  -4.848   1.167  0.00  0.00    +0.069 A 
ATOM      4  C   UNL     1      -3.251  -5.649   1.203  0.00  0.00    +0.075 A 
ATOM      5  C   UNL     1      -3.872  -5.909   2.417  0.00  0.00    +0.048 A 
ATOM      6  C   UNL     1      -3.364  -5.371   3.584  0.00  0.00    +0.043 A 
ATOM      7 CL   UNL     1      -4.144  -5.698   5.100  0.00  0.00    -0.083 Cl
ATOM      8  N   UNL     1      -3.763  -6.191   0.026  0.00  0.00    -0.266 N 
ATOM      9  C   UNL     1      -3.147  -5.932  -1.172  0.00  0.00    +0.227 A 
ATOM     10  C   UNL     1      -1.949  -5.082  -1.198  0.00  0.00    +0.297 A 
ATOM     11  O   UNL     1      -1.389  -4.842  -2.251  0.00  0.00    -0.264 OA
ATOM     12  N   UNL     1      -1.474  -4.571  -0.043  0.00  0.00    -0.302 N 
ATOM     13  N   UNL     1      -3.834  -6.561  -2.100  0.00  0.00    -0.123 NA
ATOM     14  N   UNL     1      -4.821  -7.182  -1.554  0.00  0.00    -0.124 NA
ATOM     15  C   UNL     1      -4.814  -6.982  -0.257  0.00  0.00    +0.242 A 
ENDROOT
BRANCH  15  16
ATOM     16  C   UNL     1      -5.803  -7.538   0.735  0.00  0.00    +0.453 C 
ATOM     17  F   UNL     1      -6.752  -8.315   0.061  0.00  0.00    -0.163 F 
ATOM     18  F   UNL     1      -5.131  -8.331   1.670  0.00  0.00    -0.163 F 
ATOM     19  F   UNL     1      -6.446  -6.484   1.393  0.00  0.00    -0.163 F 
ENDBRANCH  15  16
BRANCH  12  20
ATOM     20  C   UNL     1      -0.280  -3.723  -0.061  0.00  0.00    +0.144 C 
BRANCH  20  21
ATOM     21  C   UNL     1      -0.694  -2.261  -0.242  0.00  0.00    +0.124 C 
BRANCH  21  22
ATOM     22  N   UNL     1       0.500  -1.413  -0.259  0.00  0.00    -0.328 N 
ATOM     23  H   UNL     1       1.379  -1.812  -0.163  0.00  0.00    +0.148 HD
BRANCH  22  24
ATOM     24  C   UNL     1       0.373  -0.037  -0.414  0.00  0.00    +0.115 A 
ATOM     25  C   UNL     1       1.513   0.763  -0.430  0.00  0.00    +0.079 A 
ATOM     26  C   UNL     1       1.371   2.131  -0.585  0.00  0.00    +0.037 A 
ATOM     27  C   UNL     1       0.092   2.654  -0.719  0.00  0.00    +0.072 A 
ATOM     28  C   UNL     1      -0.993   1.802  -0.694  0.00  0.00    +0.096 A 
ATOM     29 CL   UNL     1       3.088   0.055  -0.258  0.00  0.00    -0.080 Cl
ATOM     30  N   UNL     1      -0.893   0.454  -0.543  0.00  0.00    -0.348 N 
ATOM     31  H   UNL     1      -1.718  -0.157  -0.528  0.00  0.00    +0.167 HD
BRANCH  27  32
ATOM     32  C   UNL     1      -0.110   4.138  -0.890  0.00  0.00    +0.419 C 
ATOM     33  F   UNL     1      -1.477   4.413  -1.003  0.00  0.00    -0.166 F 
ATOM     34  F   UNL     1       0.411   4.811   0.221  0.00  0.00    -0.166 F 
ATOM     35  F   UNL     1       0.549   4.568  -2.047  0.00  0.00    -0.166 F 
ENDBRANCH  27  32
ENDBRANCH  22  24
ENDBRANCH  21  22
ENDBRANCH  20  21
ENDBRANCH  12  20
TORSDOF 6
