REMARK  Name = ZINC12624592
REMARK  6 active torsions:
REMARK  status: ('A' for Active; 'I' for Inactive)
REMARK    1  A    between atoms: C_4  and  C_7
REMARK    2  A    between atoms: C_12  and  O_13
REMARK    3  A    between atoms: O_13  and  C_14
REMARK    4  A    between atoms: C_14  and  C_15
REMARK    5  A    between atoms: C_18  and  C_21
REMARK    6  A    between atoms: N_23  and  N_24
REMARK                            x       y       z     vdW  Elec       q    Type
REMARK                         _______ _______ _______ _____ _____    ______ ____
ROOT
ATOM      1  C   UNL     1       1.030   3.511   0.011  0.00  0.00    -0.010 A 
ATOM      2  C   UNL     1       0.925   4.200  -1.184  0.00  0.00    +0.008 A 
ATOM      3  C   UNL     1       0.720   5.564  -1.182  0.00  0.00    +0.013 A 
ATOM      4  C   UNL     1       0.630   6.252   0.030  0.00  0.00    +0.038 A 
ATOM      5  C   UNL     1       0.743   5.551   1.232  0.00  0.00    +0.013 A 
ATOM      6  C   UNL     1       0.942   4.186   1.216  0.00  0.00    +0.008 A 
ENDROOT
BRANCH   4   7
ATOM      7  C   UNL     1       0.416   7.714   0.040  0.00  0.00    +0.263 C 
ATOM      8  O   UNL     1       0.339   8.310   1.097  0.00  0.00    -0.268 OA
ATOM      9  N   UNL     1       0.308   8.387  -1.123  0.00  0.00    -0.203 N 
ATOM     10  H   UNL     1       0.370   7.912  -1.966  0.00  0.00    +0.178 HD
BRANCH   9  11
ATOM     11  N   UNL     1       0.105   9.773  -1.114  0.00  0.00    -0.184 NA
ATOM     12  C   UNL     1       0.001  10.421  -2.233  0.00  0.00    +0.067 C 
ATOM     13  C   UNL     1       0.100   9.707  -3.566  0.00  0.00    +0.058 C 
ATOM     14  C   UNL     1       0.960  10.572  -4.490  0.00  0.00    +0.011 C 
ATOM     15  C   UNL     1       0.257  11.904  -4.741  0.00  0.00    +0.036 C 
ATOM     16  C   UNL     1      -0.084  12.593  -3.449  0.00  0.00    -0.038 A 
ATOM     17  C   UNL     1      -0.213  11.885  -2.254  0.00  0.00    +0.001 A 
ATOM     18  C   UNL     1      -0.543  12.553  -1.074  0.00  0.00    +0.010 A 
ATOM     19  C   UNL     1      -0.739  13.918  -1.091  0.00  0.00    +0.001 A 
ATOM     20  C   UNL     1      -0.607  14.620  -2.276  0.00  0.00    +0.000 A 
ATOM     21  C   UNL     1      -0.282  13.962  -3.447  0.00  0.00    +0.004 A 
ENDBRANCH   9  11
ENDBRANCH   4   7
BRANCH   1  22
ATOM     22  C   UNL     1       1.248   2.020   0.001  0.00  0.00    +0.264 C 
BRANCH  22  23
ATOM     23  O   UNL     1      -0.016   1.354   0.009  0.00  0.00    -0.487 OA
BRANCH  23  29
ATOM     24  C   UNL     1      -1.198  -0.722   0.010  0.00  0.00    +0.024 A 
ATOM     25  C   UNL     1      -1.168  -2.115   0.001  0.00  0.00    +0.012 A 
ATOM     26  C   UNL     1       0.042  -2.778  -0.014  0.00  0.00    +0.001 A 
ATOM     27  C   UNL     1       1.227  -2.065  -0.022  0.00  0.00    +0.004 A 
ATOM     28  C   UNL     1       1.210  -0.683  -0.019  0.00  0.00    +0.046 A 
ATOM     29  C   UNL     1       0.002  -0.004   0.002  0.00  0.00    +0.129 A 
BRANCH  24  33
ATOM     30  C   UNL     1      -4.918   1.336   0.059  0.00  0.00    +0.000 A 
ATOM     31  C   UNL     1      -4.697   0.334  -0.868  0.00  0.00    +0.001 A 
ATOM     32  C   UNL     1      -3.491  -0.338  -0.889  0.00  0.00    +0.008 A 
ATOM     33  C   UNL     1      -2.495  -0.004   0.027  0.00  0.00    -0.014 A 
ATOM     34  C   UNL     1      -2.725   1.003   0.962  0.00  0.00    +0.008 A 
ATOM     35  C   UNL     1      -3.932   1.672   0.970  0.00  0.00    +0.001 A 
ENDBRANCH  24  33
ENDBRANCH  23  29
ENDBRANCH  22  23
ENDBRANCH   1  22
TORSDOF 6
