REMARK  Name = ZINC08839405
REMARK  5 active torsions:
REMARK  status: ('A' for Active; 'I' for Inactive)
REMARK    1  A    between atoms: C_4  and  N_9
REMARK    2  A    between atoms: C_5  and  C_7
REMARK    3  A    between atoms: N_12  and  C_13
REMARK    4  A    between atoms: C_13  and  C_14
REMARK    5  A    between atoms: N_17  and  C_21
REMARK                            x       y       z     vdW  Elec       q    Type
REMARK                         _______ _______ _______ _____ _____    ______ ____
ROOT
ATOM      1  N   UNL     1       5.061   4.059  -2.251  0.00  0.00    -0.268 N 
ATOM      2  C   UNL     1       3.754   3.728  -2.263  0.00  0.00    +0.304 C 
ATOM      3  O   UNL     1       3.045   4.086  -3.184  0.00  0.00    -0.253 OA
ATOM      4  N   UNL     1       3.233   3.002  -1.254  0.00  0.00    -0.296 N 
ATOM      5  H   UNL     1       5.608   3.845  -1.478  0.00  0.00    +0.156 HD
ATOM      6  H   UNL     1       3.798   2.717  -0.519  0.00  0.00    +0.150 HD
ENDROOT
BRANCH   1  10
ATOM      7  C   UNL     1       6.751   5.999  -5.533  0.00  0.00    +0.001 A 
ATOM      8  C   UNL     1       5.621   5.214  -5.692  0.00  0.00    +0.002 A 
ATOM      9  C   UNL     1       5.059   4.571  -4.607  0.00  0.00    +0.024 A 
ATOM     10  C   UNL     1       5.626   4.708  -3.347  0.00  0.00    +0.052 A 
ATOM     11  C   UNL     1       6.767   5.507  -3.182  0.00  0.00    +0.073 A 
ATOM     12  C   UNL     1       7.327   6.147  -4.290  0.00  0.00    +0.021 A 
BRANCH  11  13
ATOM     13  C   UNL     1       7.358   5.660  -1.887  0.00  0.00    +0.101 C 
ATOM     14  N   UNL     1       7.826   5.782  -0.859  0.00  0.00    -0.191 NA
ENDBRANCH  11  13
ENDBRANCH   1  10
BRANCH   4  15
ATOM     15  C   UNL     1       1.813   2.643  -1.268  0.00  0.00    +0.152 C 
BRANCH  15  16
ATOM     16  C   UNL     1       1.482   1.824  -0.018  0.00  0.00    +0.213 C 
ATOM     17  C   UNL     1      -0.009   1.433  -0.008  0.00  0.00    +0.163 C 
ATOM     18  N   UNL     1       0.015  -0.037  -0.030  0.00  0.00    -0.234 N 
ATOM     19  C   UNL     1       1.290  -0.451  -0.050  0.00  0.00    +0.408 C 
ATOM     20  O   UNL     1       1.606  -1.623  -0.070  0.00  0.00    -0.226 OA
ATOM     21  O   UNL     1       2.182   0.546  -0.045  0.00  0.00    -0.444 OA
BRANCH  18  22
ATOM     22  C   UNL     1      -1.111  -0.870  -0.029  0.00  0.00    +0.040 A 
ATOM     23  C   UNL     1      -2.385  -0.318  -0.001  0.00  0.00    +0.026 A 
ATOM     24  C   UNL     1      -3.494  -1.140  -0.005  0.00  0.00    +0.040 A 
ATOM     25  C   UNL     1      -3.337  -2.516  -0.027  0.00  0.00    +0.124 A 
ATOM     26  C   UNL     1      -2.067  -3.069  -0.051  0.00  0.00    +0.040 A 
ATOM     27  C   UNL     1      -0.956  -2.250  -0.051  0.00  0.00    +0.026 A 
ATOM     28  F   UNL     1      -4.423  -3.319  -0.026  0.00  0.00    -0.205 F 
ENDBRANCH  18  22
ENDBRANCH  15  16
ENDBRANCH   4  15
TORSDOF 5
