REMARK  Name = ZINC40924671
REMARK  5 active torsions:
REMARK  status: ('A' for Active; 'I' for Inactive)
REMARK    1  A    between atoms: C_1  and  C_2
REMARK    2  A    between atoms: C_2  and  C_3
REMARK    3  A    between atoms: C_2  and  C_4
REMARK    4  A    between atoms: C_2  and  N_18
REMARK    5  A    between atoms: C_13  and  C_15
REMARK                            x       y       z     vdW  Elec       q    Type
REMARK                         _______ _______ _______ _____ _____    ______ ____
ROOT
ATOM      1  C   UNL     1      -1.353  -0.286   0.104  0.00  0.00    +0.208 C 
ATOM      2  O   UNL     1      -0.273   0.241   0.267  0.00  0.00    -0.277 OA
ATOM      3  N   UNL     1      -1.910  -0.317  -1.123  0.00  0.00    -0.272 N 
ATOM      4  C   UNL     1      -3.247  -0.834  -1.424  0.00  0.00    +0.118 C 
ATOM      5  C   UNL     1      -3.418  -0.653  -2.941  0.00  0.00    +0.056 C 
ATOM      6  C   UNL     1      -2.119  -0.025  -3.396  0.00  0.00    -0.024 A 
ATOM      7  C   UNL     1      -1.299   0.143  -2.287  0.00  0.00    +0.039 A 
ATOM      8  C   UNL     1      -0.033   0.716  -2.452  0.00  0.00    +0.024 A 
ATOM      9  C   UNL     1       0.394   1.111  -3.697  0.00  0.00    +0.017 A 
ATOM     10  C   UNL     1      -0.440   0.941  -4.807  0.00  0.00    +0.064 A 
ATOM     11  C   UNL     1      -1.700   0.360  -4.639  0.00  0.00    +0.020 A 
ENDROOT
BRANCH   1  13
ATOM     12  C   UNL     1      -1.863  -2.421   1.257  0.00  0.00    -0.001 C 
ATOM     13  C   UNL     1      -2.073  -0.906   1.274  0.00  0.00    +0.002 C 
ATOM     14  C   UNL     1      -1.518  -0.329   2.578  0.00  0.00    -0.001 C 
BRANCH  13  15
ATOM     15  N   UNL     1      -3.509  -0.610   1.179  0.00  0.00    +0.387 N 
ATOM     16  H   UNL     1      -3.949  -0.790   2.068  0.00  0.00    -0.089 HD
ATOM     17  H   UNL     1      -3.636   0.360   0.931  0.00  0.00    -0.089 HD
ATOM     18  H   UNL     1      -3.927  -1.195   0.471  0.00  0.00    -0.089 HD
ENDBRANCH  13  15
ENDBRANCH   1  13
BRANCH  10  19
ATOM     19  C   UNL     1       0.011   1.363  -6.144  0.00  0.00    +0.387 C 
ATOM     20  O   UNL     1       1.117   1.863  -6.287  0.00  0.00    -0.241 OA
ATOM     21  O   UNL     1      -0.722   1.212  -7.112  0.00  0.00    -0.241 OA
ENDBRANCH  10  19
TORSDOF 3
