REMARK  Name = ZINC09159848
REMARK  5 active torsions:
REMARK  status: ('A' for Active; 'I' for Inactive)
REMARK    1  A    between atoms: C_1  and  C_2
REMARK    2  A    between atoms: C_9  and  N_34
REMARK    3  A    between atoms: C_10  and  C_32
REMARK    4  A    between atoms: N_18  and  C_21
REMARK    5  A    between atoms: C_21  and  C_22
REMARK                            x       y       z     vdW  Elec       q    Type
REMARK                         _______ _______ _______ _____ _____    ______ ____
ROOT
ATOM      1  C   UNL     1       0.001   1.514   0.009  0.00  0.00    +0.068 C 
ATOM      2  C   UNL     1       0.012   0.007   0.008  0.00  0.00    +0.068 A 
ATOM      3  C   UNL     1       0.004  -0.807  -1.116  0.00  0.00    +0.061 A 
ATOM      4  C   UNL     1       0.018  -2.110  -0.696  0.00  0.00    +0.223 A 
ATOM      5  N   UNL     1       0.035  -2.102   0.646  0.00  0.00    -0.246 N 
ATOM      6  H   UNL     1       0.049  -2.883   1.222  0.00  0.00    +0.192 HD
ATOM      7  N   UNL     1       0.036  -0.763   1.069  0.00  0.00    -0.176 NA
ATOM      8  O   UNL     1       0.014  -3.155  -1.559  0.00  0.00    -0.423 OA
ATOM      9  C   UNL     1      -0.273  -2.905  -2.853  0.00  0.00    +0.201 C 
ATOM     10  C   UNL     1      -0.305  -1.663  -3.389  0.00  0.00    +0.110 C 
ATOM     11  C   UNL     1      -0.015  -0.434  -2.572  0.00  0.00    +0.145 C 
ATOM     12  C   UNL     1       1.271   0.205  -2.986  0.00  0.00    -0.001 A 
ATOM     13  C   UNL     1       2.567  -0.264  -2.989  0.00  0.00    +0.007 A 
ATOM     14  C   UNL     1       3.552   0.604  -3.447  0.00  0.00    +0.000 A 
ATOM     15  C   UNL     1       3.242   1.878  -3.879  0.00  0.00    +0.002 A 
ATOM     16  C   UNL     1       1.942   2.357  -3.881  0.00  0.00    +0.024 A 
ATOM     17  C   UNL     1       0.943   1.495  -3.424  0.00  0.00    +0.041 A 
ATOM     18  N   UNL     1      -0.420   1.706  -3.319  0.00  0.00    -0.265 N 
ATOM     19  C   UNL     1      -1.064   0.626  -2.829  0.00  0.00    +0.241 C 
ATOM     20  O   UNL     1      -2.256   0.524  -2.632  0.00  0.00    -0.274 OA
ENDROOT
BRANCH   9  21
ATOM     21  N   UNL     1      -0.547  -3.972  -3.673  0.00  0.00    -0.328 N 
ATOM     22  H   UNL     1      -0.531  -4.874  -3.317  0.00  0.00    +0.145 HD
ATOM     23  H   UNL     1      -0.757  -3.823  -4.608  0.00  0.00    +0.145 HD
ENDBRANCH   9  21
BRANCH  10  24
ATOM     24  C   UNL     1      -0.623  -1.514  -4.777  0.00  0.00    +0.102 C 
ATOM     25  N   UNL     1      -0.876  -1.395  -5.878  0.00  0.00    -0.191 NA
ENDBRANCH  10  24
BRANCH  18  26
ATOM     26  C   UNL     1      -1.086   2.956  -3.695  0.00  0.00    +0.149 C 
BRANCH  26  27
ATOM     27  C   UNL     1      -1.371   2.947  -5.175  0.00  0.00    -0.022 A 
ATOM     28  C   UNL     1      -1.100   1.839  -5.918  0.00  0.00    +0.006 A 
ATOM     29  C   UNL     1      -1.357   1.812  -7.287  0.00  0.00    +0.001 A 
ATOM     30  C   UNL     1      -1.885   2.894  -7.922  0.00  0.00    +0.008 A 
ATOM     31  C   UNL     1      -2.178   4.056  -7.189  0.00  0.00    -0.018 A 
ATOM     32  C   UNL     1      -1.923   4.081  -5.795  0.00  0.00    -0.013 A 
ATOM     33  C   UNL     1      -2.221   5.242  -5.060  0.00  0.00    +0.009 A 
ATOM     34  C   UNL     1      -2.756   6.321  -5.694  0.00  0.00    +0.001 A 
ATOM     35  C   UNL     1      -3.013   6.294  -7.064  0.00  0.00    +0.001 A 
ATOM     36  C   UNL     1      -2.724   5.193  -7.809  0.00  0.00    +0.008 A 
ENDBRANCH  26  27
ENDBRANCH  18  26
TORSDOF 4
