REMARK  Name = ZINC11264971
REMARK  7 active torsions:
REMARK  status: ('A' for Active; 'I' for Inactive)
REMARK    1  A    between atoms: C_1  and  C_2
REMARK    2  A    between atoms: N_13  and  C_29
REMARK    3  A    between atoms: C_14  and  S_16
REMARK    4  A    between atoms: S_16  and  C_17
REMARK    5  A    between atoms: C_17  and  C_19
REMARK    6  A    between atoms: C_17  and  C_20
REMARK    7  A    between atoms: N_25  and  C_26
REMARK                            x       y       z     vdW  Elec       q    Type
REMARK                         _______ _______ _______ _____ _____    ______ ____
ROOT
ATOM      1  C   UNL     1       1.492 -13.939   2.932  0.00  0.00    +0.008 C 
ATOM      2  C   UNL     1       2.011 -12.545   2.574  0.00  0.00    -0.009 C 
ATOM      3  C   UNL     1       3.327 -12.669   1.801  0.00  0.00    +0.008 C 
ATOM      4  C   UNL     1       3.976 -11.292   1.655  0.00  0.00    +0.037 C 
ATOM      5  C   UNL     1       2.953 -10.326   1.064  0.00  0.00    -0.023 A 
ATOM      6  C   UNL     1       1.636 -10.609   1.102  0.00  0.00    -0.004 A 
ATOM      7  S   UNL     1       0.845  -9.231   0.316  0.00  0.00    -0.073 S 
ATOM      8  C   UNL     1       2.292  -8.274  -0.063  0.00  0.00    +0.117 A 
ATOM      9  C   UNL     1       3.343  -9.062   0.435  0.00  0.00    +0.076 A 
ATOM     10  C   UNL     1       4.659  -8.526   0.265  0.00  0.00    +0.268 A 
ATOM     11  O   UNL     1       5.633  -9.139   0.666  0.00  0.00    -0.267 OA
ATOM     12  N   UNL     1       4.806  -7.335  -0.345  0.00  0.00    -0.255 N 
ATOM     13  C   UNL     1       3.725  -6.633  -0.800  0.00  0.00    +0.178 A 
ATOM     14  N   UNL     1       2.503  -7.103  -0.651  0.00  0.00    -0.215 NA
ATOM     15  C   UNL     1       0.985 -11.826   1.685  0.00  0.00    +0.046 C 
ENDROOT
BRANCH  12  16
ATOM     16  C   UNL     1       6.091  -6.804  -0.516  0.00  0.00    +0.052 A 
ATOM     17  C   UNL     1       6.818  -7.098  -1.662  0.00  0.00    +0.026 A 
ATOM     18  C   UNL     1       8.082  -6.569  -1.831  0.00  0.00    +0.002 A 
ATOM     19  C   UNL     1       8.630  -5.757  -0.854  0.00  0.00    +0.000 A 
ATOM     20  C   UNL     1       7.911  -5.468   0.291  0.00  0.00    +0.002 A 
ATOM     21  C   UNL     1       6.643  -5.989   0.463  0.00  0.00    +0.026 A 
ENDBRANCH  12  16
BRANCH  13  22
ATOM     22  S   UNL     1       3.968  -5.077  -1.591  0.00  0.00    -0.075 S 
BRANCH  22  23
ATOM     23  C   UNL     1       2.251  -4.641  -1.961  0.00  0.00    +0.137 C 
ATOM     24  C   UNL     1       1.483  -4.436  -0.653  0.00  0.00    +0.029 C 
BRANCH  23  25
ATOM     25  C   UNL     1       2.218  -3.368  -2.767  0.00  0.00    +0.233 C 
ATOM     26  O   UNL     1       3.174  -2.622  -2.761  0.00  0.00    -0.274 OA
ATOM     27  N   UNL     1       1.127  -3.059  -3.495  0.00  0.00    -0.239 N 
ATOM     28  C   UNL     1       1.098  -1.921  -4.216  0.00  0.00    +0.306 C 
ATOM     29  O   UNL     1       2.056  -1.173  -4.210  0.00  0.00    -0.252 OA
ATOM     30  N   UNL     1       0.007  -1.612  -4.944  0.00  0.00    -0.296 N 
ATOM     31  H   UNL     1       0.363  -3.656  -3.500  0.00  0.00    +0.159 HD
ATOM     32  H   UNL     1      -0.758  -2.208  -4.949  0.00  0.00    +0.151 HD
BRANCH  30  33
ATOM     33  C   UNL     1      -0.024  -0.374  -5.728  0.00  0.00    +0.075 C 
ATOM     34  C   UNL     1      -1.306   0.461  -5.679  0.00  0.00    +0.024 C 
ATOM     35  C   UNL     1      -0.955  -0.330  -6.941  0.00  0.00    +0.024 C 
ENDBRANCH  30  33
ENDBRANCH  23  25
ENDBRANCH  22  23
ENDBRANCH  13  22
TORSDOF 5
