REMARK  Name = ZINC41022178
REMARK  9 active torsions:
REMARK  status: ('A' for Active; 'I' for Inactive)
REMARK    1  A    between atoms: C_1  and  C_2
REMARK    2  A    between atoms: C_5  and  C_8
REMARK    3  A    between atoms: C_8  and  C_10
REMARK    4  A    between atoms: C_8  and  N_28
REMARK    5  A    between atoms: C_10  and  N_11
REMARK    6  A    between atoms: C_12  and  C_14
REMARK    7  A    between atoms: C_14  and  C_15
REMARK    8  A    between atoms: C_15  and  C_16
REMARK    9  A    between atoms: C_19  and  C_21
REMARK                            x       y       z     vdW  Elec       q    Type
REMARK                         _______ _______ _______ _____ _____    ______ ____
ROOT
ATOM      1  N   UNL     1      -2.199  -4.408  -1.002  0.00  0.00    -0.317 N 
ATOM      2  C   UNL     1      -3.504  -4.739  -1.058  0.00  0.00    +0.213 C 
ATOM      3  O   UNL     1      -3.986  -5.451  -0.202  0.00  0.00    -0.276 OA
ATOM      4  H   UNL     1      -1.813  -3.838  -1.686  0.00  0.00    +0.149 HD
ENDROOT
BRANCH   1   5
ATOM      5  C   UNL     1      -1.363  -4.908   0.093  0.00  0.00    +0.093 C 
BRANCH   5   6
ATOM      6  C   UNL     1       0.031  -4.283  -0.004  0.00  0.00    -0.020 C 
BRANCH   6   7
ATOM      7  N   UNL     1       0.887  -4.830   1.057  0.00  0.00    +0.385 N 
ATOM      8  C   UNL     1       2.195  -4.148   1.008  0.00  0.00    -0.078 C 
ATOM      9  C   UNL     1       2.824  -4.231   2.376  0.00  0.00    -0.019 C 
ATOM     10  C   UNL     1       3.804  -5.415   2.475  0.00  0.00    -0.002 C 
ATOM     11  C   UNL     1       3.256  -6.672   1.768  0.00  0.00    -0.002 C 
ATOM     12  C   UNL     1       1.785  -6.880   2.024  0.00  0.00    -0.019 C 
ATOM     13  C   UNL     1       0.978  -6.213   0.891  0.00  0.00    -0.078 C 
ATOM     14  H   UNL     1       0.457  -4.638   1.949  0.00  0.00    -0.081 HD
ENDBRANCH   6   7
BRANCH   6  19
ATOM     15  C   UNL     1      -0.382   1.448   0.612  0.00  0.00    +0.044 C 
ATOM     16  C   UNL     1      -0.275  -0.047   0.451  0.00  0.00    -0.050 A 
ATOM     17  C   UNL     1      -0.151  -0.600  -0.810  0.00  0.00    +0.003 A 
ATOM     18  C   UNL     1      -0.052  -1.970  -0.957  0.00  0.00    +0.002 A 
ATOM     19  C   UNL     1      -0.076  -2.789   0.157  0.00  0.00    -0.059 A 
ATOM     20  C   UNL     1      -0.199  -2.236   1.418  0.00  0.00    +0.002 A 
ATOM     21  C   UNL     1      -0.293  -0.865   1.565  0.00  0.00    +0.003 A 
ENDBRANCH   6  19
ENDBRANCH   5   6
ENDBRANCH   1   5
BRANCH   2  22
ATOM     22  C   UNL     1      -4.364  -4.225  -2.183  0.00  0.00    +0.105 C 
BRANCH  22  23
ATOM     23  C   UNL     1      -5.793  -4.744  -2.011  0.00  0.00    +0.105 C 
BRANCH  23  24
ATOM     24  C   UNL     1      -6.653  -4.230  -3.137  0.00  0.00    +0.197 A 
ATOM     25  N   UNL     1      -6.847  -4.832  -4.277  0.00  0.00    -0.221 NA
ATOM     26  C   UNL     1      -7.667  -4.083  -5.029  0.00  0.00    +0.161 A 
ATOM     27  C   UNL     1      -7.984  -2.976  -4.311  0.00  0.00    +0.155 A 
ATOM     28  O   UNL     1      -7.346  -3.083  -3.125  0.00  0.00    -0.440 OA
BRANCH  27  29
ATOM     29  C   UNL     1      -8.863  -1.868  -4.742  0.00  0.00    +0.019 A 
ATOM     30  C   UNL     1      -9.093  -0.785  -3.892  0.00  0.00    +0.013 A 
ATOM     31  C   UNL     1      -9.914   0.246  -4.299  0.00  0.00    +0.021 A 
ATOM     32  C   UNL     1     -10.510   0.208  -5.548  0.00  0.00    +0.041 A 
ATOM     33  C   UNL     1     -10.286  -0.864  -6.396  0.00  0.00    +0.021 A 
ATOM     34  C   UNL     1      -9.462  -1.898  -6.002  0.00  0.00    +0.013 A 
ATOM     35 CL   UNL     1     -11.542   1.509  -6.054  0.00  0.00    -0.084 Cl
ENDBRANCH  27  29
ENDBRANCH  23  24
ENDBRANCH  22  23
ENDBRANCH   2  22
TORSDOF 8
