REMARK  Name = ZINC25497734
REMARK  8 active torsions:
REMARK  status: ('A' for Active; 'I' for Inactive)
REMARK    1  A    between atoms: C_1  and  C_2
REMARK    2  A    between atoms: C_4  and  C_8
REMARK    3  A    between atoms: C_5  and  C_7
REMARK    4  A    between atoms: C_8  and  C_10
REMARK    5  A    between atoms: C_8  and  N_11
REMARK    6  A    between atoms: C_13  and  C_20
REMARK    7  A    between atoms: C_14  and  C_19
REMARK    8  A    between atoms: C_15  and  C_18
REMARK                            x       y       z     vdW  Elec       q    Type
REMARK                         _______ _______ _______ _____ _____    ______ ____
ROOT
ATOM      1  N   UNL     1      -2.425   2.890   4.717  0.00  0.00    -0.320 N 
ATOM      2  C   UNL     1      -1.878   2.443   3.526  0.00  0.00    +0.159 A 
ATOM      3  C   UNL     1      -2.699   2.236   2.402  0.00  0.00    +0.098 A 
ATOM      4  C   UNL     1      -2.086   1.789   1.224  0.00  0.00    -0.007 A 
ATOM      5  C   UNL     1      -0.718   1.572   1.248  0.00  0.00    +0.065 A 
ATOM      6  N   UNL     1      -0.031   1.794   2.351  0.00  0.00    -0.152 NA
ATOM      7  N   UNL     1      -0.576   2.208   3.436  0.00  0.00    -0.133 NA
ATOM      8  C   UNL     1      -0.013   1.086   0.008  0.00  0.00    +0.068 C 
ATOM      9  C   UNL     1      -2.890   1.547  -0.028  0.00  0.00    +0.047 C 
ATOM     10  H   UNL     1      -3.505   3.083   4.788  0.00  0.00    +0.148 HD
ENDROOT
BRANCH   1  11
ATOM     11  C   UNL     1      -1.565   3.104   5.884  0.00  0.00    +0.100 C 
ATOM     12  C   UNL     1      -1.382   1.783   6.633  0.00  0.00    +0.033 C 
BRANCH  11  16
ATOM     13  C   UNL     1      -5.561   5.611   7.801  0.00  0.00    +0.051 C 
ATOM     14  C   UNL     1      -4.115   5.224   7.626  0.00  0.00    -0.013 A 
ATOM     15  C   UNL     1      -3.572   4.306   6.790  0.00  0.00    +0.016 A 
ATOM     16  C   UNL     1      -2.203   4.117   6.799  0.00  0.00    -0.017 A 
ATOM     17  C   UNL     1      -1.444   4.851   7.649  0.00  0.00    -0.008 A 
ATOM     18  S   UNL     1      -2.672   5.858   8.465  0.00  0.00    -0.098 S 
ATOM     19  C   UNL     1       0.049   4.826   7.850  0.00  0.00    +0.052 C 
ENDBRANCH  11  16
ENDBRANCH   1  11
BRANCH   3  20
ATOM     20  C   UNL     1      -4.109   2.477   2.458  0.00  0.00    +0.103 C 
ATOM     21  N   UNL     1      -5.228   2.669   2.503  0.00  0.00    -0.191 NA
ENDBRANCH   3  20
TORSDOF 3
