REMARK  Name = ZINC12462310
REMARK  6 active torsions:
REMARK  status: ('A' for Active; 'I' for Inactive)
REMARK    1  A    between atoms: C_1  and  C_2
REMARK    2  A    between atoms: C_5  and  N_9
REMARK    3  A    between atoms: C_12  and  C_19
REMARK    4  A    between atoms: C_14  and  C_17
REMARK    5  A    between atoms: C_15  and  N_16
REMARK    6  A    between atoms: C_22  and  N_24
REMARK                            x       y       z     vdW  Elec       q    Type
REMARK                         _______ _______ _______ _____ _____    ______ ____
ROOT
ATOM      1  N   UNL     1      -3.043   7.274   0.028  0.00  0.00    -0.260 N 
ATOM      2  C   UNL     1      -3.164   6.432   1.103  0.00  0.00    +0.024 C 
ATOM      3  C   UNL     1      -3.816   5.256   0.986  0.00  0.00    +0.026 C 
ATOM      4  C   UNL     1      -4.429   4.837  -0.326  0.00  0.00    +0.104 C 
ATOM      5  C   UNL     1      -4.585   6.008  -1.251  0.00  0.00    +0.077 C 
ATOM      6  C   UNL     1      -3.897   7.161  -1.046  0.00  0.00    +0.107 C 
ATOM      7  C   UNL     1      -3.942   4.385   2.083  0.00  0.00    +0.162 C 
ATOM      8  O   UNL     1      -4.548   3.341   1.948  0.00  0.00    -0.292 OA
ATOM      9  C   UNL     1      -3.341   4.723   3.420  0.00  0.00    +0.080 C 
ATOM     10  C   UNL     1      -2.117   5.619   3.204  0.00  0.00    +0.014 C 
ATOM     11  C   UNL     1      -2.555   6.856   2.417  0.00  0.00    +0.052 C 
ENDROOT
BRANCH   1  16
ATOM     12  C   UNL     1       1.003  11.252   0.007  0.00  0.00    +0.045 C 
ATOM     13  C   UNL     1      -0.072  10.195   0.013  0.00  0.00    -0.032 A 
ATOM     14  C   UNL     1       0.195   8.936  -0.492  0.00  0.00    +0.006 A 
ATOM     15  C   UNL     1      -0.787   7.966  -0.488  0.00  0.00    +0.024 A 
ATOM     16  C   UNL     1      -2.046   8.255   0.023  0.00  0.00    +0.041 A 
ATOM     17  C   UNL     1      -2.314   9.522   0.524  0.00  0.00    +0.044 A 
ATOM     18  C   UNL     1      -1.325  10.488   0.523  0.00  0.00    +0.046 A 
ATOM     19 CL   UNL     1      -1.656  12.070   1.156  0.00  0.00    -0.083 Cl
ENDBRANCH   1  16
BRANCH   4  20
ATOM     20  C   UNL     1      -3.542   3.807  -0.979  0.00  0.00    +0.005 A 
ATOM     21  C   UNL     1      -3.832   2.530  -1.329  0.00  0.00    +0.014 A 
ATOM     22  C   UNL     1      -2.853   1.761  -1.928  0.00  0.00    +0.041 A 
ATOM     23  C   UNL     1      -1.628   2.302  -2.137  0.00  0.00    +0.164 A 
ATOM     24  S   UNL     1      -1.839   3.953  -1.491  0.00  0.00    -0.068 S 
BRANCH  23  25
ATOM     25  N   UNL     1      -0.428   1.687  -2.749  0.00  0.00    +0.063 N 
ATOM     26  O   UNL     1      -0.468   0.534  -3.139  0.00  0.00    -0.126 OA
ATOM     27  O   UNL     1       0.596   2.335  -2.866  0.00  0.00    -0.126 OA
ENDBRANCH  23  25
ENDBRANCH   4  20
BRANCH   6  28
ATOM     28  N   UNL     1      -4.051   8.216  -1.913  0.00  0.00    -0.345 N 
ATOM     29  H   UNL     1      -3.499   9.008  -1.817  0.00  0.00    +0.144 HD
ATOM     30  H   UNL     1      -4.712   8.169  -2.622  0.00  0.00    +0.144 HD
ENDBRANCH   6  28
BRANCH   5  31
ATOM     31  C   UNL     1      -5.476   5.909  -2.368  0.00  0.00    +0.099 C 
ATOM     32  N   UNL     1      -6.182   5.830  -3.254  0.00  0.00    -0.191 NA
ENDBRANCH   5  31
TORSDOF 5
