REMARK  Name = ZINC05375429
REMARK  7 active torsions:
REMARK  status: ('A' for Active; 'I' for Inactive)
REMARK    1  A    between atoms: C_1  and  C_2
REMARK    2  A    between atoms: C_2  and  C_3
REMARK    3  A    between atoms: C_2  and  C_4
REMARK    4  A    between atoms: C_4  and  C_5
REMARK    5  A    between atoms: N_7  and  C_8
REMARK    6  A    between atoms: N_17  and  S_18
REMARK    7  A    between atoms: S_18  and  C_21
REMARK                            x       y       z     vdW  Elec       q    Type
REMARK                         _______ _______ _______ _____ _____    ______ ____
ROOT
ATOM      1  C   UNL     1      -4.876   0.495   1.618  0.00  0.00    +0.034 A 
ATOM      2  C   UNL     1      -4.128   0.723   2.766  0.00  0.00    +0.025 A 
ATOM      3  C   UNL     1      -2.792   1.052   2.660  0.00  0.00    +0.027 A 
ATOM      4  C   UNL     1      -2.196   1.157   1.408  0.00  0.00    +0.054 A 
ATOM      5  C   UNL     1      -2.940   0.927   0.262  0.00  0.00    -0.023 A 
ATOM      6  C   UNL     1      -4.280   0.598   0.370  0.00  0.00    +0.028 A 
ATOM      7  C   UNL     1      -2.324   1.026  -1.109  0.00  0.00    +0.039 C 
ATOM      8  C   UNL     1      -1.048   1.867  -1.063  0.00  0.00    +0.025 C 
ATOM      9  C   UNL     1      -0.138   1.326   0.047  0.00  0.00    +0.131 C 
ATOM     10  N   UNL     1      -0.838   1.501   1.327  0.00  0.00    -0.207 N 
ENDROOT
BRANCH   1  13
ATOM     11  C   UNL     1      -6.663  -0.604   2.745  0.00  0.00    +0.217 C 
ATOM     12  O   UNL     1      -5.892  -0.934   3.621  0.00  0.00    -0.275 OA
ATOM     13  N   UNL     1      -6.233   0.161   1.722  0.00  0.00    -0.285 N 
ATOM     14  H   UNL     1      -6.863   0.481   1.057  0.00  0.00    +0.155 HD
BRANCH  11  15
ATOM     15  C   UNL     1      -8.101  -1.049   2.800  0.00  0.00    +0.099 C 
BRANCH  15  17
ATOM     16  C   UNL     1      -9.809  -2.247   4.175  0.00  0.00    +0.008 C 
ATOM     17  C   UNL     1      -8.324  -1.899   4.052  0.00  0.00    -0.008 C 
ATOM     18  C   UNL     1      -7.506  -3.188   3.946  0.00  0.00    +0.008 C 
ENDBRANCH  15  17
ENDBRANCH  11  15
ENDBRANCH   1  13
BRANCH  10  19
ATOM     19  S   UNL     1      -0.037   2.093   2.650  0.00  0.00    +0.043 S 
ATOM     20  O   UNL     1       1.124   2.718   2.122  0.00  0.00    -0.155 OA
ATOM     21  O   UNL     1      -1.012   2.852   3.353  0.00  0.00    -0.155 OA
ATOM     22  C   UNL     1       0.425   0.626   3.612  0.00  0.00    +0.218 C 
ENDBRANCH  10  19
TORSDOF 4
