REMARK  Name = ZINC25280661
REMARK  10 active torsions:
REMARK  status: ('A' for Active; 'I' for Inactive)
REMARK    1  A    between atoms: C_1  and  C_2
REMARK    2  A    between atoms: C_5  and  C_35
REMARK    3  A    between atoms: C_6  and  S_8
REMARK    4  A    between atoms: S_8  and  C_9
REMARK    5  A    between atoms: C_9  and  C_10
REMARK    6  A    between atoms: C_16  and  C_34
REMARK    7  A    between atoms: C_17  and  C_21
REMARK    8  A    between atoms: C_29  and  C_31
REMARK    9  A    between atoms: C_31  and  C_32
REMARK   10  A    between atoms: C_31  and  C_33
REMARK                            x       y       z     vdW  Elec       q    Type
REMARK                         _______ _______ _______ _____ _____    ______ ____
ROOT
ATOM      1  C   UNL     1      -6.134  -5.097   7.632  0.00  0.00    +0.121 A 
ATOM      2  N   UNL     1      -5.732  -4.210   8.575  0.00  0.00    -0.310 N 
ATOM      3  H   UNL     1      -6.056  -3.297   8.537  0.00  0.00    +0.170 HD
ATOM      4  C   UNL     1      -4.891  -4.572   9.565  0.00  0.00    +0.260 A 
ATOM      5  O   UNL     1      -4.537  -3.768  10.408  0.00  0.00    -0.267 OA
ATOM      6  C   UNL     1      -4.411  -5.972   9.601  0.00  0.00    +0.076 A 
ATOM      7  C   UNL     1      -3.548  -6.586  10.511  0.00  0.00    -0.017 A 
ATOM      8  C   UNL     1      -3.230  -7.904  10.361  0.00  0.00    +0.080 A 
ATOM      9  S   UNL     1      -4.146  -8.368   8.902  0.00  0.00    -0.064 S 
ATOM     10  C   UNL     1      -4.901  -6.798   8.563  0.00  0.00    +0.116 A 
ATOM     11  N   UNL     1      -5.734  -6.339   7.637  0.00  0.00    -0.226 NA
ATOM     12  C   UNL     1      -2.968  -5.794  11.654  0.00  0.00    +0.046 C 
ENDROOT
BRANCH   8  13
ATOM     13  C   UNL     1      -2.353  -8.734  11.194  0.00  0.00    +0.254 C 
ATOM     14  O   UNL     1      -2.227  -8.486  12.379  0.00  0.00    -0.269 OA
ATOM     15  N   UNL     1      -1.688  -9.770  10.647  0.00  0.00    -0.294 N 
ATOM     16  C   UNL     1      -1.694  -9.979   9.192  0.00  0.00    +0.127 C 
ATOM     17  C   UNL     1      -0.243 -10.039   8.699  0.00  0.00    +0.127 C 
ATOM     18  N   UNL     1       0.502 -10.980   9.547  0.00  0.00    -0.298 N 
ATOM     19  C   UNL     1       0.509 -10.771  11.001  0.00  0.00    +0.127 C 
ATOM     20  C   UNL     1      -0.937 -10.708  11.494  0.00  0.00    +0.127 C 
ATOM     21  C   UNL     1       1.168 -12.017   9.000  0.00  0.00    +0.218 C 
ATOM     22  O   UNL     1       1.779 -12.787   9.710  0.00  0.00    -0.275 OA
BRANCH  21  23
ATOM     23  C   UNL     1       1.153 -12.218   7.506  0.00  0.00    +0.069 C 
ATOM     24  C   UNL     1       2.461 -11.694   6.908  0.00  0.00    +0.017 C 
ATOM     25  C   UNL     1       1.010 -13.709   7.194  0.00  0.00    +0.017 C 
ENDBRANCH  21  23
ENDBRANCH   8  13
BRANCH   1  26
ATOM     26  C   UNL     1      -7.075  -4.636   6.549  0.00  0.00    +0.148 C 
BRANCH  26  27
ATOM     27  S   UNL     1      -7.446  -6.023   5.440  0.00  0.00    -0.117 S 
BRANCH  27  33
ATOM     28  C   UNL     1     -10.167  -2.006   3.479  0.00  0.00    +0.044 C 
ATOM     29  C   UNL     1      -9.769  -3.457   3.391  0.00  0.00    -0.049 A 
ATOM     30  C   UNL     1     -10.265  -4.248   2.371  0.00  0.00    +0.004 A 
ATOM     31  C   UNL     1      -9.902  -5.580   2.286  0.00  0.00    +0.005 A 
ATOM     32  C   UNL     1      -9.043  -6.125   3.220  0.00  0.00    -0.037 A 
ATOM     33  C   UNL     1      -8.543  -5.333   4.246  0.00  0.00    +0.011 A 
ATOM     34  C   UNL     1      -8.905  -3.993   4.325  0.00  0.00    +0.018 A 
ATOM     35  C   UNL     1      -8.649  -7.576   3.126  0.00  0.00    +0.045 C 
ENDBRANCH  27  33
ENDBRANCH  26  27
ENDBRANCH   1  26
TORSDOF 5
