REMARK  Name = ZINC12360376
REMARK  4 active torsions:
REMARK  status: ('A' for Active; 'I' for Inactive)
REMARK    1  A    between atoms: C_10  and  N_11
REMARK    2  A    between atoms: N_11  and  C_12
REMARK    3  A    between atoms: C_12  and  C_13
REMARK    4  A    between atoms: N_15  and  N_16
REMARK                            x       y       z     vdW  Elec       q    Type
REMARK                         _______ _______ _______ _____ _____    ______ ____
ROOT
ATOM      1  C   UNL     1       7.279   0.378  -0.065  0.00  0.00    +0.249 C 
ATOM      2  O   UNL     1       7.041   1.566  -0.057  0.00  0.00    -0.272 OA
ATOM      3  N   UNL     1       8.556  -0.053  -0.079  0.00  0.00    -0.205 N 
ATOM      4  H   UNL     1       8.747  -1.004  -0.086  0.00  0.00    +0.177 HD
ENDROOT
BRANCH   3   5
ATOM      5  N   UNL     1       9.608   0.872  -0.085  0.00  0.00    -0.174 NA
ATOM      6  C   UNL     1      10.850   0.453  -0.099  0.00  0.00    +0.153 C 
ATOM      7  C   UNL     1      12.080   1.278  -0.101  0.00  0.00    +0.030 A 
ATOM      8  C   UNL     1      12.307   2.650  -0.090  0.00  0.00    +0.027 A 
ATOM      9  C   UNL     1      13.601   3.132  -0.095  0.00  0.00    +0.020 A 
ATOM     10  C   UNL     1      14.669   2.249  -0.112  0.00  0.00    +0.032 A 
ATOM     11  C   UNL     1      14.454   0.885  -0.123  0.00  0.00    +0.041 A 
ATOM     12  C   UNL     1      13.157   0.383  -0.117  0.00  0.00    +0.057 A 
ATOM     13  N   UNL     1      12.671  -0.921  -0.125  0.00  0.00    -0.279 N 
ATOM     14  C   UNL     1      11.328  -0.944  -0.109  0.00  0.00    +0.269 C 
ATOM     15  O   UNL     1      10.628  -1.940  -0.107  0.00  0.00    -0.268 OA
ATOM     16 BR   UNL     1      15.926  -0.302  -0.146  0.00  0.00    -0.048 Br
ATOM     17 BR   UNL     1      13.916   4.996  -0.081  0.00  0.00    -0.050 Br
ATOM     18  H   UNL     1      13.231  -1.713  -0.136  0.00  0.00    +0.155 HD
ENDBRANCH   3   5
BRANCH   1  19
ATOM     19  C   UNL     1       6.148  -0.618  -0.059  0.00  0.00    +0.199 C 
BRANCH  19  20
ATOM     20  N   UNL     1       4.869   0.096  -0.044  0.00  0.00    -0.335 N 
ATOM     21  H   UNL     1       4.855   1.066  -0.039  0.00  0.00    +0.147 HD
BRANCH  20  31
ATOM     22  C   UNL     1      -0.016   1.357   0.009  0.00  0.00    +0.001 A 
ATOM     23  C   UNL     1       1.169   2.090   0.002  0.00  0.00    +0.001 A 
ATOM     24  C   UNL     1       2.378   1.466  -0.013  0.00  0.00    +0.010 A 
ATOM     25  C   UNL     1       2.437   0.064  -0.021  0.00  0.00    +0.003 A 
ATOM     26  C   UNL     1       1.233  -0.683  -0.013  0.00  0.00    -0.016 A 
ATOM     27  C   UNL     1       0.002  -0.004   0.002  0.00  0.00    +0.008 A 
ATOM     28  C   UNL     1       1.290  -2.087  -0.020  0.00  0.00    +0.008 A 
ATOM     29  C   UNL     1       2.496  -2.719  -0.034  0.00  0.00    +0.002 A 
ATOM     30  C   UNL     1       3.685  -1.997  -0.041  0.00  0.00    +0.023 A 
ATOM     31  C   UNL     1       3.673  -0.618  -0.036  0.00  0.00    +0.035 A 
ENDBRANCH  20  31
ENDBRANCH  19  20
ENDBRANCH   1  19
TORSDOF 4
