REMARK  Name = ZINC43560585
REMARK  4 active torsions:
REMARK  status: ('A' for Active; 'I' for Inactive)
REMARK    1  A    between atoms: C_5  and  C_7
REMARK    2  A    between atoms: C_9  and  C_12
REMARK    3  A    between atoms: C_15  and  N_19
REMARK    4  A    between atoms: C_17  and  O_18
REMARK                            x       y       z     vdW  Elec       q    Type
REMARK                         _______ _______ _______ _____ _____    ______ ____
ROOT
ATOM      1  C   UNL     1       1.246  -2.166  -0.023  0.00  0.00    +0.203 A 
ATOM      2  N   UNL     1       0.168  -2.966  -0.022  0.00  0.00    -0.187 NA
ATOM      3  C   UNL     1       0.545  -4.225  -0.032  0.00  0.00    +0.262 A 
ATOM      4  O   UNL     1       1.890  -4.261  -0.039  0.00  0.00    -0.332 OA
ATOM      5  N   UNL     1       2.325  -2.909  -0.039  0.00  0.00    -0.056 NA
ENDROOT
BRANCH   1  10
ATOM      6  C   UNL     1      -0.017   1.376   0.010  0.00  0.00    +0.001 A 
ATOM      7  C   UNL     1       1.170   2.087   0.002  0.00  0.00    +0.001 A 
ATOM      8  C   UNL     1       2.381   1.420  -0.013  0.00  0.00    +0.016 A 
ATOM      9  C   UNL     1       2.412   0.039  -0.022  0.00  0.00    +0.029 A 
ATOM     10  C   UNL     1       1.219  -0.682  -0.014  0.00  0.00    +0.036 A 
ATOM     11  C   UNL     1       0.002  -0.004   0.002  0.00  0.00    +0.013 A 
ATOM     12 BR   UNL     1       4.069  -0.872  -0.044  0.00  0.00    -0.050 Br
ENDBRANCH   1  10
BRANCH   3  13
ATOM     13  C   UNL     1      -0.351  -5.395  -0.033  0.00  0.00    +0.081 A 
ATOM     14  C   UNL     1      -1.737  -5.217  -0.030  0.00  0.00    +0.019 A 
ATOM     15  C   UNL     1      -2.571  -6.312  -0.032  0.00  0.00    +0.024 A 
ATOM     16  C   UNL     1      -2.038  -7.599  -0.038  0.00  0.00    +0.028 A 
ATOM     17  C   UNL     1      -0.662  -7.786  -0.041  0.00  0.00    +0.069 A 
ATOM     18  C   UNL     1       0.185  -6.691  -0.044  0.00  0.00    +0.131 A 
BRANCH  16  19
ATOM     19  N   UNL     1      -2.888  -8.702  -0.039  0.00  0.00    -0.358 N 
ATOM     20  H   UNL     1      -3.850  -8.573  -0.037  0.00  0.00    +0.142 HD
ATOM     21  H   UNL     1      -2.519  -9.599  -0.043  0.00  0.00    +0.142 HD
ENDBRANCH  16  19
BRANCH  18  22
ATOM     22  O   UNL     1       1.530  -6.872  -0.053  0.00  0.00    -0.506 OA
ATOM     23  H   UNL     1       1.925  -6.929   0.828  0.00  0.00    +0.292 HD
ENDBRANCH  18  22
ENDBRANCH   3  13
TORSDOF 4
