REMARK  Name = ZINC08927697
REMARK  9 active torsions:
REMARK  status: ('A' for Active; 'I' for Inactive)
REMARK    1  A    between atoms: C_1  and  C_2
REMARK    2  A    between atoms: C_5  and  C_33
REMARK    3  A    between atoms: C_6  and  C_8
REMARK    4  A    between atoms: C_8  and  N_9
REMARK    5  A    between atoms: C_16  and  C_19
REMARK    6  A    between atoms: C_16  and  O_31
REMARK    7  A    between atoms: C_19  and  C_20
REMARK    8  A    between atoms: C_20  and  C_22
REMARK    9  A    between atoms: C_25  and  N_28
REMARK                            x       y       z     vdW  Elec       q    Type
REMARK                         _______ _______ _______ _____ _____    ______ ____
ROOT
ATOM      1  N   UNL     1       1.184   1.942  -0.003  0.00  0.00    -0.264 N 
ATOM      2  C   UNL     1       2.053   0.850  -0.005  0.00  0.00    +0.043 A 
ATOM      3  C   UNL     1       3.445   0.793  -0.005  0.00  0.00    +0.025 A 
ATOM      4  C   UNL     1       4.089  -0.427  -0.008  0.00  0.00    +0.017 A 
ATOM      5  C   UNL     1       3.359  -1.603  -0.013  0.00  0.00    +0.018 A 
ATOM      6  C   UNL     1       1.975  -1.554  -0.014  0.00  0.00    +0.024 A 
ATOM      7  C   UNL     1       1.331  -0.337  -0.010  0.00  0.00    +0.016 A 
ATOM      8  C   UNL     1      -0.129   0.053  -0.011  0.00  0.00    +0.175 C 
ATOM      9  C   UNL     1      -0.106   1.567  -0.005  0.00  0.00    +0.257 C 
ATOM     10  O   UNL     1      -1.071   2.302  -0.008  0.00  0.00    -0.272 OA
ATOM     11 BR   UNL     1       4.249  -3.271  -0.017  0.00  0.00    -0.050 Br
ENDROOT
BRANCH   8  12
ATOM     12  O   UNL     1      -0.777  -0.434  -1.187  0.00  0.00    -0.374 OA
ATOM     13  H   UNL     1      -1.702  -0.162  -1.268  0.00  0.00    +0.211 HD
ENDBRANCH   8  12
BRANCH   1  14
ATOM     14  C   UNL     1       1.628   3.338   0.002  0.00  0.00    +0.149 C 
BRANCH  14  20
ATOM     15  C   UNL     1       1.258   2.493   4.921  0.00  0.00    +0.044 C 
ATOM     16  C   UNL     1       1.503   3.440   3.774  0.00  0.00    -0.050 A 
ATOM     17  C   UNL     1       1.775   4.772   4.023  0.00  0.00    +0.003 A 
ATOM     18  C   UNL     1       2.000   5.640   2.971  0.00  0.00    +0.004 A 
ATOM     19  C   UNL     1       1.957   5.175   1.670  0.00  0.00    -0.046 A 
ATOM     20  C   UNL     1       1.680   3.844   1.421  0.00  0.00    -0.027 A 
ATOM     21  C   UNL     1       1.456   2.976   2.473  0.00  0.00    +0.008 A 
ATOM     22  C   UNL     1       2.207   6.121   0.523  0.00  0.00    +0.044 C 
ENDBRANCH  14  20
ENDBRANCH   1  14
BRANCH   8  23
ATOM     23  C   UNL     1      -0.826  -0.477   1.245  0.00  0.00    +0.129 C 
BRANCH  23  24
ATOM     24  C   UNL     1      -2.253   0.005   1.268  0.00  0.00    +0.167 C 
ATOM     25  O   UNL     1      -2.672   0.703   0.370  0.00  0.00    -0.292 OA
BRANCH  24  26
ATOM     26  C   UNL     1      -3.139  -0.372   2.381  0.00  0.00    +0.018 A 
ATOM     27  C   UNL     1      -2.661  -1.182   3.417  0.00  0.00    +0.013 A 
ATOM     28  C   UNL     1      -3.495  -1.527   4.458  0.00  0.00    +0.033 A 
ATOM     29  C   UNL     1      -4.806  -1.082   4.477  0.00  0.00    +0.126 A 
ATOM     30  C   UNL     1      -5.288  -0.285   3.453  0.00  0.00    +0.033 A 
ATOM     31  C   UNL     1      -4.464   0.073   2.407  0.00  0.00    +0.013 A 
BRANCH  29  32
ATOM     32  N   UNL     1      -5.697  -1.462   5.596  0.00  0.00    +0.056 N 
ATOM     33  O   UNL     1      -6.851  -1.073   5.615  0.00  0.00    -0.126 OA
ATOM     34  O   UNL     1      -5.276  -2.163   6.498  0.00  0.00    -0.126 OA
ENDBRANCH  29  32
ENDBRANCH  24  26
ENDBRANCH  23  24
ENDBRANCH   8  23
TORSDOF 7
