REMARK  Name = ZINC15996920
REMARK  2 active torsions:
REMARK  status: ('A' for Active; 'I' for Inactive)
REMARK    1  A    between atoms: C_1  and  C_2
REMARK    2  A    between atoms: N_20  and  C_23
REMARK                            x       y       z     vdW  Elec       q    Type
REMARK                         _______ _______ _______ _____ _____    ______ ____
ROOT
ATOM      1  C   UNL     1       1.676   4.955  -4.336  0.00  0.00    +0.044 C 
ATOM      2  C   UNL     1       1.680   5.430  -2.906  0.00  0.00    -0.050 A 
ATOM      3  C   UNL     1       1.686   6.784  -2.626  0.00  0.00    +0.005 A 
ATOM      4  C   UNL     1       1.689   7.225  -1.319  0.00  0.00    +0.024 A 
ATOM      5  C   UNL     1       1.685   6.309  -0.270  0.00  0.00    +0.036 A 
ATOM      6  C   UNL     1       1.680   4.948  -0.564  0.00  0.00    -0.027 A 
ATOM      7  C   UNL     1       1.676   4.513  -1.870  0.00  0.00    +0.008 A 
ATOM      8  C   UNL     1       1.678   4.242   0.762  0.00  0.00    +0.053 C 
ATOM      9  C   UNL     1       0.559   3.264   0.924  0.00  0.00    +0.089 C 
ATOM     10  C   UNL     1       1.133   2.114   0.003  0.00  0.00    +0.074 C 
ATOM     11  C   UNL     1       2.521   2.001   0.516  0.00  0.00    -0.054 C 
ATOM     12  C   UNL     1       3.294   3.385   2.330  0.00  0.00    -0.076 C 
ATOM     13  C   UNL     1       3.659   1.915   2.647  0.00  0.00    -0.020 C 
ATOM     14  C   UNL     1       2.623   1.143   1.788  0.00  0.00    -0.016 C 
ATOM     15  C   UNL     1      -0.014   1.208   0.009  0.00  0.00    +0.228 C 
ATOM     16  O   UNL     1       0.002  -0.004   0.002  0.00  0.00    -0.275 OA
ATOM     17  N   UNL     1      -1.114   2.029   0.018  0.00  0.00    -0.210 N 
ATOM     18  C   UNL     1      -0.799   3.323   0.346  0.00  0.00    +0.229 C 
ATOM     19  O   UNL     1      -1.489   4.308   0.189  0.00  0.00    -0.275 OA
ATOM     20  C   UNL     1       1.680   5.339   1.791  0.00  0.00    +0.212 C 
ATOM     21  O   UNL     1       1.676   5.202   2.996  0.00  0.00    -0.277 OA
ATOM     22  N   UNL     1       1.685   6.504   1.113  0.00  0.00    -0.286 N 
ATOM     23  H   UNL     1       1.689   7.377   1.537  0.00  0.00    +0.155 HD
ATOM     24  N   UNL     1       2.880   3.387   0.918  0.00  0.00    +0.395 N 
ATOM     25  H   UNL     1       3.643   3.740   0.329  0.00  0.00    -0.079 HD
ENDROOT
BRANCH  17  26
ATOM     26  C   UNL     1      -2.414   1.592  -0.273  0.00  0.00    +0.044 A 
ATOM     27  C   UNL     1      -3.474   2.488  -0.237  0.00  0.00    +0.025 A 
ATOM     28  C   UNL     1      -4.753   2.056  -0.528  0.00  0.00    +0.022 A 
ATOM     29  C   UNL     1      -4.980   0.729  -0.846  0.00  0.00    +0.041 A 
ATOM     30  C   UNL     1      -3.926  -0.168  -0.878  0.00  0.00    +0.022 A 
ATOM     31  C   UNL     1      -2.645   0.261  -0.593  0.00  0.00    +0.025 A 
ATOM     32 CL   UNL     1      -6.590   0.187  -1.205  0.00  0.00    -0.084 Cl
ENDBRANCH  17  26
TORSDOF 1
