REMARK  Name = ZINC36207196
REMARK  16 active torsions:
REMARK  status: ('A' for Active; 'I' for Inactive)
REMARK    1  A    between atoms: C_1  and  C_2
REMARK    2  A    between atoms: C_2  and  O_3
REMARK    3  A    between atoms: O_3  and  C_4
REMARK    4  A    between atoms: C_4  and  C_6
REMARK    5  A    between atoms: C_7  and  C_38
REMARK    6  A    between atoms: C_13  and  C_17
REMARK    7  A    between atoms: C_17  and  N_18
REMARK    8  A    between atoms: N_18  and  C_19
REMARK    9  A    between atoms: N_18  and  C_25
REMARK   10  A    between atoms: C_19  and  C_20
REMARK   11  A    between atoms: C_25  and  C_26
REMARK   12  A    between atoms: C_26  and  C_28
REMARK   13  A    between atoms: C_26  and  O_37
REMARK   14  A    between atoms: C_28  and  O_29
REMARK   15  A    between atoms: O_29  and  C_30
REMARK   16  A    between atoms: C_35  and  C_36
REMARK                            x       y       z     vdW  Elec       q    Type
REMARK                         _______ _______ _______ _____ _____    ______ ____
ROOT
ATOM      1  N   UNL     1       4.473  -2.966   8.346  0.00  0.00    +0.391 N 
ATOM      2  H   UNL     1       3.718  -2.462   8.785  0.00  0.00    -0.080 HD
ENDROOT
BRANCH   1   3
ATOM      3  C   UNL     1       3.974  -4.249   7.834  0.00  0.00    -0.003 C 
BRANCH   3  11
ATOM      4  C   UNL     1       1.400  -6.135  13.295  0.00  0.00    +0.102 A 
ATOM      5  C   UNL     1       1.339  -6.825  12.119  0.00  0.00    -0.015 A 
ATOM      6  C   UNL     1       1.948  -6.304  10.975  0.00  0.00    +0.076 A 
ATOM      7  C   UNL     1       2.010  -6.869   9.608  0.00  0.00    +0.260 A 
ATOM      8  O   UNL     1       1.483  -7.936   9.348  0.00  0.00    -0.267 OA
ATOM      9  N   UNL     1       2.665  -6.173   8.659  0.00  0.00    -0.312 N 
ATOM     10  H   UNL     1       2.715  -6.529   7.758  0.00  0.00    +0.170 HD
ATOM     11  C   UNL     1       3.255  -4.984   8.936  0.00  0.00    +0.094 A 
ATOM     12  N   UNL     1       3.219  -4.458  10.130  0.00  0.00    -0.229 NA
ATOM     13  C   UNL     1       2.601  -5.061  11.138  0.00  0.00    +0.116 A 
ATOM     14  S   UNL     1       2.332  -4.679  12.850  0.00  0.00    -0.062 S 
ATOM     15  C   UNL     1       0.616  -8.146  12.054  0.00  0.00    +0.046 C 
BRANCH   4  16
ATOM     16  C   UNL     1       0.836  -6.497  14.597  0.00  0.00    +0.346 C 
ATOM     17  O   UNL     1       0.222  -7.539  14.726  0.00  0.00    -0.244 OA
BRANCH  16  18
ATOM     18  O   UNL     1       0.998  -5.674  15.654  0.00  0.00    -0.461 OA
BRANCH  18  20
ATOM     19  C   UNL     1       0.705  -5.038  17.967  0.00  0.00    +0.048 C 
ATOM     20  C   UNL     1       0.421  -6.090  16.894  0.00  0.00    +0.229 C 
ENDBRANCH  18  20
ENDBRANCH  16  18
ENDBRANCH   4  16
ENDBRANCH   3  11
ENDBRANCH   1   3
BRANCH   1  21
ATOM     21  C   UNL     1       5.011  -2.171   7.234  0.00  0.00    -0.002 C 
BRANCH  21  22
ATOM     22  C   UNL     1       3.910  -1.879   6.247  0.00  0.00    +0.089 A 
ATOM     23  C   UNL     1       3.152  -0.768   6.220  0.00  0.00    +0.042 A 
ATOM     24  C   UNL     1       2.252  -0.911   5.140  0.00  0.00    +0.041 A 
ATOM     25  C   UNL     1       2.514  -2.102   4.571  0.00  0.00    +0.195 A 
ATOM     26  O   UNL     1       3.522  -2.681   5.242  0.00  0.00    -0.470 OA
ENDBRANCH  21  22
ENDBRANCH   1  21
BRANCH   1  27
ATOM     27  C   UNL     1       5.536  -3.212   9.330  0.00  0.00    -0.043 C 
BRANCH  27  28
ATOM     28  C   UNL     1       5.929  -1.892   9.997  0.00  0.00    +0.135 C 
BRANCH  28  29
ATOM     29  O   UNL     1       6.591  -1.057   9.045  0.00  0.00    -0.390 OA
ATOM     30  H   UNL     1       7.398  -1.443   8.677  0.00  0.00    +0.210 HD
ENDBRANCH  28  29
BRANCH  28  31
ATOM     31  C   UNL     1       6.870  -2.174  11.170  0.00  0.00    +0.258 C 
BRANCH  31  32
ATOM     32  O   UNL     1       7.145  -0.955  11.863  0.00  0.00    -0.489 OA
BRANCH  32  33
ATOM     33  C   UNL     1       7.971  -1.030  12.940  0.00  0.00    +0.124 A 
ATOM     34  C   UNL     1       8.511  -2.251  13.317  0.00  0.00    +0.046 A 
ATOM     35  C   UNL     1       9.351  -2.325  14.411  0.00  0.00    +0.004 A 
ATOM     36  C   UNL     1       9.653  -1.183  15.130  0.00  0.00    +0.000 A 
ATOM     37  C   UNL     1       9.117   0.035  14.756  0.00  0.00    +0.007 A 
ATOM     38  C   UNL     1       8.281   0.115  13.659  0.00  0.00    -0.009 A 
ATOM     39  C   UNL     1       7.701   1.444  13.248  0.00  0.00    +0.047 C 
ENDBRANCH  32  33
ENDBRANCH  31  32
ENDBRANCH  28  31
ENDBRANCH  27  28
ENDBRANCH   1  27
TORSDOF 13
