REMARK  Name = ZINC07983308
REMARK  6 active torsions:
REMARK  status: ('A' for Active; 'I' for Inactive)
REMARK    1  A    between atoms: C_1  and  C_2
REMARK    2  A    between atoms: C_5  and  N_8
REMARK    3  A    between atoms: N_8  and  C_9
REMARK    4  A    between atoms: C_12  and  S_18
REMARK    5  A    between atoms: C_14  and  N_15
REMARK    6  A    between atoms: S_18  and  N_21
REMARK                            x       y       z     vdW  Elec       q    Type
REMARK                         _______ _______ _______ _____ _____    ______ ____
ROOT
ATOM      1  C   UNL     1      -2.149   2.578   3.814  0.00  0.00    +0.058 A 
ATOM      2  C   UNL     1      -2.345   1.317   3.265  0.00  0.00    +0.027 A 
ATOM      3  C   UNL     1      -1.836   1.022   2.016  0.00  0.00    +0.030 A 
ATOM      4  C   UNL     1      -1.132   1.981   1.310  0.00  0.00    +0.107 A 
ATOM      5  C   UNL     1      -0.930   3.236   1.856  0.00  0.00    +0.063 A 
ATOM      6  C   UNL     1      -1.441   3.539   3.103  0.00  0.00    +0.149 A 
ENDROOT
BRANCH   6   7
ATOM      7  N   UNL     1      -1.230   4.884   3.683  0.00  0.00    +0.058 N 
ATOM      8  O   UNL     1      -2.114   5.412   4.333  0.00  0.00    -0.126 OA
ATOM      9  O   UNL     1      -0.172   5.462   3.510  0.00  0.00    -0.126 OA
ENDBRANCH   6   7
BRANCH   4  10
ATOM     10  S   UNL     1      -0.485   1.601  -0.284  0.00  0.00    +0.056 S 
ATOM     11  O   UNL     1      -0.335   0.189  -0.335  0.00  0.00    -0.153 OA
ATOM     12  O   UNL     1       0.601   2.491  -0.504  0.00  0.00    -0.153 OA
BRANCH  10  13
ATOM     13  N   UNL     1      -1.651   1.994  -1.392  0.00  0.00    -0.204 NA
ATOM     14  H   UNL     1      -2.013   1.311  -1.978  0.00  0.00    +0.144 HD
ATOM     15  H   UNL     1      -1.972   2.907  -1.455  0.00  0.00    +0.144 HD
ENDBRANCH  10  13
ENDBRANCH   4  10
BRANCH   1  16
ATOM     16  N   UNL     1      -2.662   2.879   5.077  0.00  0.00    -0.339 N 
ATOM     17  H   UNL     1      -2.456   3.731   5.494  0.00  0.00    +0.146 HD
BRANCH  16  22
ATOM     18  C   UNL     1      -5.838   5.152   7.448  0.00  0.00    +0.007 C 
ATOM     19  C   UNL     1      -5.359   3.734   7.131  0.00  0.00    -0.014 C 
ATOM     20  C   UNL     1      -3.911   3.569   7.598  0.00  0.00    +0.005 C 
ATOM     21  C   UNL     1      -3.432   2.151   7.282  0.00  0.00    +0.022 C 
ATOM     22  C   UNL     1      -3.513   1.910   5.773  0.00  0.00    +0.070 C 
ATOM     23  C   UNL     1      -4.960   2.075   5.306  0.00  0.00    +0.022 C 
ATOM     24  C   UNL     1      -5.440   3.493   5.623  0.00  0.00    +0.005 C 
ENDBRANCH  16  22
ENDBRANCH   1  16
TORSDOF 5
