REMARK  Name = ZINC39884962
REMARK  12 active torsions:
REMARK  status: ('A' for Active; 'I' for Inactive)
REMARK    1  A    between atoms: C_1  and  C_2
REMARK    2  A    between atoms: C_2  and  C_3
REMARK    3  A    between atoms: C_10  and  N_17
REMARK    4  A    between atoms: C_11  and  C_12
REMARK    5  A    between atoms: C_12  and  O_14
REMARK    6  A    between atoms: O_14  and  C_15
REMARK    7  A    between atoms: C_15  and  C_16
REMARK    8  A    between atoms: C_18  and  C_20
REMARK    9  A    between atoms: C_20  and  C_36
REMARK   10  A    between atoms: C_21  and  C_22
REMARK   11  A    between atoms: C_25  and  C_27
REMARK   12  A    between atoms: C_32  and  N_33
REMARK                            x       y       z     vdW  Elec       q    Type
REMARK                         _______ _______ _______ _____ _____    ______ ____
ROOT
ATOM      1  N   UNL     1       1.461  -2.126   7.357  0.00  0.00    -0.275 N 
ATOM      2  C   UNL     1       0.879  -1.386   8.322  0.00  0.00    +0.259 C 
ATOM      3  O   UNL     1       0.156  -0.454   8.023  0.00  0.00    -0.269 OA
ATOM      4  H   UNL     1       2.036  -2.869   7.596  0.00  0.00    +0.156 HD
ENDROOT
BRANCH   1  11
ATOM      5  C   UNL     1       0.742  -0.511   1.242  0.00  0.00    -0.006 C 
ATOM      6  C   UNL     1       0.868  -2.036   1.176  0.00  0.00    +0.008 C 
ATOM      7  C   UNL     1       1.813  -2.528   2.275  0.00  0.00    +0.037 C 
ATOM      8  C   UNL     1       1.354  -1.951   3.606  0.00  0.00    -0.021 A 
ATOM      9  C   UNL     1       0.527  -0.886   3.662  0.00  0.00    -0.004 A 
ATOM     10  S   UNL     1       0.285  -0.594   5.390  0.00  0.00    -0.077 S 
ATOM     11  C   UNL     1       1.236  -1.824   6.024  0.00  0.00    +0.087 A 
ATOM     12  C   UNL     1       1.746  -2.469   4.906  0.00  0.00    +0.091 A 
ATOM     13  C   UNL     1      -0.046  -0.129   2.503  0.00  0.00    +0.046 C 
BRANCH   5  15
ATOM     14  C   UNL     1      -0.019   1.526   0.010  0.00  0.00    +0.004 C 
ATOM     15  C   UNL     1       0.002  -0.004   0.002  0.00  0.00    +0.000 C 
ENDBRANCH   5  15
BRANCH  12  16
ATOM     16  C   UNL     1       2.640  -3.621   5.031  0.00  0.00    +0.342 C 
ATOM     17  O   UNL     1       3.843  -3.454   5.090  0.00  0.00    -0.245 OA
BRANCH  16  18
ATOM     18  O   UNL     1       2.129  -4.869   5.082  0.00  0.00    -0.461 OA
BRANCH  18  19
ATOM     19  C   UNL     1       3.059  -5.947   5.204  0.00  0.00    +0.229 C 
ATOM     20  C   UNL     1       2.300  -7.274   5.245  0.00  0.00    +0.048 C 
ENDBRANCH  18  19
ENDBRANCH  16  18
ENDBRANCH  12  16
ENDBRANCH   1  11
BRANCH   2  21
ATOM     21  C   UNL     1       1.117  -1.706   9.734  0.00  0.00    +0.117 C 
ATOM     22  C   UNL     1       0.518  -0.944  10.729  0.00  0.00    +0.070 C 
BRANCH  22  23
ATOM     23  C   UNL     1       0.745  -1.250  12.080  0.00  0.00    +0.130 A 
ATOM     24  C   UNL     1       0.207  -0.578  13.168  0.00  0.00    +0.050 A 
ATOM     25  C   UNL     1       0.693  -1.210  14.312  0.00  0.00    +0.050 A 
ATOM     26  C   UNL     1       1.506  -2.241  13.890  0.00  0.00    +0.138 A 
ATOM     27  O   UNL     1       1.520  -2.253  12.546  0.00  0.00    -0.455 OA
BRANCH  26  28
ATOM     28  C   UNL     1       2.234  -3.178  14.767  0.00  0.00    +0.047 A 
ATOM     29  C   UNL     1       3.015  -2.692  15.819  0.00  0.00    +0.014 A 
ATOM     30  C   UNL     1       3.692  -3.574  16.635  0.00  0.00    +0.001 A 
ATOM     31  C   UNL     1       3.599  -4.937  16.413  0.00  0.00    +0.002 A 
ATOM     32  C   UNL     1       2.828  -5.425  15.373  0.00  0.00    +0.033 A 
ATOM     33  C   UNL     1       2.140  -4.555  14.553  0.00  0.00    +0.137 A 
BRANCH  33  34
ATOM     34  N   UNL     1       1.310  -5.080  13.445  0.00  0.00    +0.057 N 
ATOM     35  O   UNL     1       1.231  -6.272  13.262  0.00  0.00    -0.126 OA
ATOM     36  O   UNL     1       0.712  -4.316  12.724  0.00  0.00    -0.126 OA
ENDBRANCH  33  34
ENDBRANCH  26  28
ENDBRANCH  22  23
BRANCH  21  37
ATOM     37  C   UNL     1       1.967  -2.803  10.087  0.00  0.00    +0.104 C 
ATOM     38  N   UNL     1       2.641  -3.673  10.367  0.00  0.00    -0.191 NA
ENDBRANCH  21  37
ENDBRANCH   2  21
TORSDOF 10
