REMARK  Name = ZINC40103134
REMARK  11 active torsions:
REMARK  status: ('A' for Active; 'I' for Inactive)
REMARK    1  A    between atoms: C_1  and  C_2
REMARK    2  A    between atoms: C_2  and  C_3
REMARK    3  A    between atoms: C_3  and  C_4
REMARK    4  A    between atoms: C_4  and  N_5
REMARK    5  A    between atoms: C_6  and  C_30
REMARK    6  A    between atoms: C_8  and  C_13
REMARK    7  A    between atoms: C_13  and  C_15
REMARK    8  A    between atoms: C_19  and  O_21
REMARK    9  A    between atoms: O_21  and  C_22
REMARK   10  A    between atoms: C_22  and  C_23
REMARK   11  A    between atoms: C_34  and  O_36
REMARK                            x       y       z     vdW  Elec       q    Type
REMARK                         _______ _______ _______ _____ _____    ______ ____
ROOT
ATOM      1  N   UNL     1       1.472  -2.439  -2.508  0.00  0.00    -0.284 N 
ATOM      2  C   UNL     1       0.787  -2.828  -3.746  0.00  0.00    +0.145 C 
ATOM      3  C   UNL     1       1.867  -3.282  -4.701  0.00  0.00    +0.076 C 
ATOM      4  C   UNL     1       3.045  -3.155  -4.047  0.00  0.00    +0.249 C 
ATOM      5  C   UNL     1       2.792  -2.627  -2.689  0.00  0.00    +0.288 C 
ATOM      6  O   UNL     1       3.650  -2.399  -1.859  0.00  0.00    -0.266 OA
ATOM      7  O   UNL     1       4.261  -3.459  -4.556  0.00  0.00    -0.282 OA
ENDROOT
BRANCH   2   8
ATOM      8  C   UNL     1      -0.174  -3.956  -3.474  0.00  0.00    -0.019 A 
ATOM      9  C   UNL     1       0.222  -5.028  -2.696  0.00  0.00    +0.006 A 
ATOM     10  C   UNL     1      -0.657  -6.065  -2.444  0.00  0.00    +0.004 A 
ATOM     11  C   UNL     1      -1.934  -6.033  -2.971  0.00  0.00    +0.045 A 
ATOM     12  C   UNL     1      -2.334  -4.958  -3.752  0.00  0.00    +0.117 A 
ATOM     13  C   UNL     1      -1.451  -3.916  -3.998  0.00  0.00    +0.051 A 
BRANCH  12  14
ATOM     14  O   UNL     1      -3.589  -4.924  -4.272  0.00  0.00    -0.507 OA
ATOM     15  H   UNL     1      -4.240  -4.495  -3.699  0.00  0.00    +0.292 HD
ENDBRANCH  12  14
ENDBRANCH   2   8
BRANCH   3  16
ATOM     16  C   UNL     1       1.675  -3.767  -6.071  0.00  0.00    +0.195 C 
ATOM     17  O   UNL     1       1.935  -4.922  -6.349  0.00  0.00    -0.287 OA
BRANCH  16  18
ATOM     18  C   UNL     1       1.166  -2.851  -7.115  0.00  0.00    +0.026 A 
ATOM     19  C   UNL     1       0.985  -1.495  -6.831  0.00  0.00    +0.012 A 
ATOM     20  C   UNL     1       0.510  -0.645  -7.807  0.00  0.00    +0.004 A 
ATOM     21  C   UNL     1       0.211  -1.129  -9.067  0.00  0.00    +0.046 A 
ATOM     22  C   UNL     1       0.388  -2.475  -9.359  0.00  0.00    +0.122 A 
ATOM     23  C   UNL     1       0.870  -3.337  -8.389  0.00  0.00    +0.057 A 
BRANCH  22  24
ATOM     24  O   UNL     1       0.092  -2.946 -10.600  0.00  0.00    -0.487 OA
BRANCH  24  25
ATOM     25  C   UNL     1      -0.395  -2.000 -11.553  0.00  0.00    +0.264 C 
BRANCH  25  26
ATOM     26  C   UNL     1      -0.666  -2.698 -12.861  0.00  0.00    -0.010 A 
ATOM     27  C   UNL     1       0.334  -2.800 -13.810  0.00  0.00    +0.008 A 
ATOM     28  C   UNL     1       0.086  -3.441 -15.009  0.00  0.00    +0.020 A 
ATOM     29  C   UNL     1      -1.163  -3.980 -15.260  0.00  0.00    +0.041 A 
ATOM     30  C   UNL     1      -2.163  -3.878 -14.309  0.00  0.00    +0.020 A 
ATOM     31  C   UNL     1      -1.913  -3.242 -13.108  0.00  0.00    +0.008 A 
ATOM     32 CL   UNL     1      -1.475  -4.784 -16.766  0.00  0.00    -0.084 Cl
ENDBRANCH  25  26
ENDBRANCH  24  25
ENDBRANCH  22  24
ENDBRANCH  16  18
ENDBRANCH   3  16
BRANCH   1  33
ATOM     33  C   UNL     1       0.833  -1.931  -1.292  0.00  0.00    +0.109 C 
BRANCH  33  34
ATOM     34  C   UNL     1       0.735  -0.406  -1.367  0.00  0.00    +0.019 C 
BRANCH  34  36
ATOM     35  C   UNL     1      -0.032   1.650  -0.172  0.00  0.00    +0.004 C 
ATOM     36  C   UNL     1       0.067   0.125  -0.097  0.00  0.00    -0.002 C 
ENDBRANCH  34  36
ENDBRANCH  33  34
ENDBRANCH   1  33
TORSDOF 10
