REMARK  Name = ZINC02326130
REMARK  8 active torsions:
REMARK  status: ('A' for Active; 'I' for Inactive)
REMARK    1  A    between atoms: C_1  and  C_2
REMARK    2  A    between atoms: C_2  and  C_3
REMARK    3  A    between atoms: C_3  and  N_4
REMARK    4  A    between atoms: N_12  and  N_13
REMARK    5  A    between atoms: C_14  and  C_16
REMARK    6  A    between atoms: C_16  and  N_17
REMARK    7  A    between atoms: N_17  and  C_18
REMARK    8  A    between atoms: C_23  and  C_24
REMARK                            x       y       z     vdW  Elec       q    Type
REMARK                         _______ _______ _______ _____ _____    ______ ____
ROOT
ATOM      1  N   UNL     1       0.738  -1.962  -1.265  0.00  0.00    -0.266 N 
ATOM      2  C   UNL     1       1.747  -2.735  -0.699  0.00  0.00    +0.046 A 
ATOM      3  C   UNL     1       2.914  -2.384  -0.029  0.00  0.00    +0.025 A 
ATOM      4  C   UNL     1       3.764  -3.364   0.443  0.00  0.00    +0.017 A 
ATOM      5  C   UNL     1       3.468  -4.704   0.256  0.00  0.00    +0.019 A 
ATOM      6  C   UNL     1       2.313  -5.072  -0.408  0.00  0.00    +0.027 A 
ATOM      7  C   UNL     1       1.451  -4.091  -0.886  0.00  0.00    +0.029 A 
ATOM      8  C   UNL     1       0.166  -4.142  -1.621  0.00  0.00    +0.153 C 
ATOM      9  N   UNL     1      -0.490  -5.208  -2.009  0.00  0.00    -0.174 NA
ATOM     10  C   UNL     1      -0.219  -2.729  -1.815  0.00  0.00    +0.271 C 
ATOM     11  O   UNL     1      -1.222  -2.330  -2.375  0.00  0.00    -0.268 OA
ATOM     12 BR   UNL     1       4.645  -6.032   0.909  0.00  0.00    -0.050 Br
ENDROOT
BRANCH   9  13
ATOM     13  N   UNL     1      -1.702  -5.073  -2.699  0.00  0.00    -0.205 N 
ATOM     14  C   UNL     1      -2.376  -6.169  -3.099  0.00  0.00    +0.249 C 
ATOM     15  O   UNL     1      -1.934  -7.273  -2.861  0.00  0.00    -0.272 OA
ATOM     16  H   UNL     1      -2.055  -4.190  -2.889  0.00  0.00    +0.177 HD
BRANCH  14  17
ATOM     17  C   UNL     1      -3.680  -6.023  -3.841  0.00  0.00    +0.199 C 
BRANCH  17  18
ATOM     18  N   UNL     1      -4.210  -7.351  -4.162  0.00  0.00    -0.335 N 
ATOM     19  H   UNL     1      -3.723  -8.145  -3.894  0.00  0.00    +0.147 HD
BRANCH  18  20
ATOM     20  C   UNL     1      -5.418  -7.472  -4.853  0.00  0.00    +0.030 A 
ATOM     21  C   UNL     1      -6.114  -6.334  -5.242  0.00  0.00    +0.023 A 
ATOM     22  C   UNL     1      -7.308  -6.457  -5.926  0.00  0.00    +0.002 A 
ATOM     23  C   UNL     1      -7.810  -7.711  -6.223  0.00  0.00    +0.000 A 
ATOM     24  C   UNL     1      -7.120  -8.845  -5.836  0.00  0.00    +0.005 A 
ATOM     25  C   UNL     1      -5.923  -8.729  -5.158  0.00  0.00    -0.030 A 
ATOM     26  C   UNL     1      -5.168  -9.966  -4.743  0.00  0.00    +0.045 C 
ENDBRANCH  18  20
ENDBRANCH  17  18
ENDBRANCH  14  17
ENDBRANCH   9  13
BRANCH   1  27
ATOM     27  C   UNL     1       0.718  -0.497  -1.257  0.00  0.00    +0.114 C 
BRANCH  27  29
ATOM     28  C   UNL     1      -0.019   1.526   0.010  0.00  0.00    +0.005 C 
ATOM     29  C   UNL     1       0.002  -0.004   0.002  0.00  0.00    +0.016 C 
ENDBRANCH  27  29
ENDBRANCH   1  27
TORSDOF 6
