REMARK  Name = ZINC35144244
REMARK  10 active torsions:
REMARK  status: ('A' for Active; 'I' for Inactive)
REMARK    1  A    between atoms: C_1  and  C_2
REMARK    2  A    between atoms: N_8  and  C_9
REMARK    3  A    between atoms: C_9  and  C_10
REMARK    4  A    between atoms: C_10  and  C_11
REMARK    5  A    between atoms: C_11  and  N_12
REMARK    6  A    between atoms: C_13  and  C_15
REMARK    7  A    between atoms: C_15  and  C_17
REMARK    8  A    between atoms: C_15  and  S_18
REMARK    9  A    between atoms: S_18  and  C_19
REMARK   10  A    between atoms: N_29  and  C_30
REMARK                            x       y       z     vdW  Elec       q    Type
REMARK                         _______ _______ _______ _____ _____    ______ ____
ROOT
ATOM      1  S   UNL     1       9.422   0.320   5.395  0.00  0.00    -0.075 S 
ENDROOT
BRANCH   1   2
ATOM      2  C   UNL     1       9.270   0.251   7.149  0.00  0.00    +0.177 A 
ATOM      3  N   UNL     1       8.785  -0.839   7.692  0.00  0.00    -0.223 NA
ATOM      4  C   UNL     1       8.641  -0.958   9.032  0.00  0.00    +0.079 A 
ATOM      5  C   UNL     1       8.125  -2.120   9.613  0.00  0.00    +0.028 A 
ATOM      6  C   UNL     1       7.997  -2.198  10.972  0.00  0.00    +0.002 A 
ATOM      7  C   UNL     1       8.374  -1.137  11.787  0.00  0.00    +0.001 A 
ATOM      8  C   UNL     1       8.882   0.012  11.248  0.00  0.00    +0.015 A 
ATOM      9  C   UNL     1       9.023   0.119   9.865  0.00  0.00    +0.065 A 
ATOM     10  C   UNL     1       9.563   1.328   9.231  0.00  0.00    +0.267 A 
ATOM     11  O   UNL     1       9.909   2.288   9.895  0.00  0.00    -0.267 OA
ATOM     12  N   UNL     1       9.668   1.335   7.882  0.00  0.00    -0.255 N 
BRANCH  12  13
ATOM     13  C   UNL     1      10.182   2.464   7.230  0.00  0.00    +0.055 A 
ATOM     14  C   UNL     1      11.545   2.564   6.984  0.00  0.00    +0.026 A 
ATOM     15  C   UNL     1      12.050   3.677   6.341  0.00  0.00    +0.005 A 
ATOM     16  C   UNL     1      11.201   4.693   5.943  0.00  0.00    +0.038 A 
ATOM     17  C   UNL     1       9.841   4.597   6.187  0.00  0.00    +0.125 A 
ATOM     18  C   UNL     1       9.329   3.481   6.824  0.00  0.00    +0.064 A 
ATOM     19  F   UNL     1       9.013   5.591   5.797  0.00  0.00    -0.205 F 
ENDBRANCH  12  13
ENDBRANCH   1   2
BRANCH   1  20
ATOM     20  C   UNL     1       8.795  -1.288   4.836  0.00  0.00    +0.137 C 
ATOM     21  C   UNL     1       9.717  -2.399   5.343  0.00  0.00    +0.029 C 
BRANCH  20  23
ATOM     22  N   UNL     1       7.899  -2.139   2.693  0.00  0.00    -0.314 N 
ATOM     23  C   UNL     1       8.756  -1.315   3.330  0.00  0.00    +0.226 C 
ATOM     24  O   UNL     1       9.494  -0.597   2.691  0.00  0.00    -0.275 OA
ATOM     25  H   UNL     1       7.308  -2.713   3.205  0.00  0.00    +0.149 HD
BRANCH  22  26
ATOM     26  C   UNL     1       7.861  -2.166   1.229  0.00  0.00    +0.102 C 
BRANCH  26  27
ATOM     27  C   UNL     1       6.811  -3.177   0.765  0.00  0.00    +0.000 C 
BRANCH  27  28
ATOM     28  C   UNL     1       6.771  -3.205  -0.764  0.00  0.00    -0.077 C 
BRANCH  28  35
ATOM     29  C   UNL     1       5.294  -2.688  -3.095  0.00  0.00    -0.013 C 
ATOM     30  C   UNL     1       5.640  -4.117  -2.671  0.00  0.00    -0.072 C 
ATOM     31  C   UNL     1       4.534  -5.068  -3.133  0.00  0.00    -0.016 C 
ATOM     32  C   UNL     1       4.886  -6.496  -2.706  0.00  0.00    -0.003 C 
ATOM     33  C   UNL     1       5.085  -6.531  -1.188  0.00  0.00    -0.019 C 
ATOM     34  C   UNL     1       6.170  -5.525  -0.799  0.00  0.00    -0.078 C 
ATOM     35  N   UNL     1       5.763  -4.176  -1.210  0.00  0.00    +0.381 N 
ATOM     36  H   UNL     1       4.873  -3.952  -0.789  0.00  0.00    -0.081 HD
ENDBRANCH  28  35
ENDBRANCH  27  28
ENDBRANCH  26  27
ENDBRANCH  22  26
ENDBRANCH  20  23
ENDBRANCH   1  20
TORSDOF 8
