REMARK  Name = ZINC63493113
REMARK  7 active torsions:
REMARK  status: ('A' for Active; 'I' for Inactive)
REMARK    1  A    between atoms: C_1  and  C_2
REMARK    2  A    between atoms: C_2  and  N_3
REMARK    3  A    between atoms: C_10  and  N_14
REMARK    4  A    between atoms: C_15  and  C_17
REMARK    5  A    between atoms: N_19  and  C_20
REMARK    6  A    between atoms: C_20  and  C_21
REMARK    7  A    between atoms: C_21  and  C_22
REMARK                            x       y       z     vdW  Elec       q    Type
REMARK                         _______ _______ _______ _____ _____    ______ ____
ROOT
ATOM      1  C   UNL     1       5.507   0.478  -3.933  0.00  0.00    +0.299 C 
ATOM      2  O   UNL     1       5.076   1.421  -4.564  0.00  0.00    -0.265 OA
ATOM      3  N   UNL     1       6.837   0.277  -3.846  0.00  0.00    -0.307 N 
ATOM      4  H   UNL     1       7.181  -0.477  -3.342  0.00  0.00    +0.149 HD
ENDROOT
BRANCH   1   6
ATOM      5  N   UNL     1       3.233  -0.261  -3.343  0.00  0.00    -0.292 N 
ATOM      6  C   UNL     1       4.563  -0.461  -3.255  0.00  0.00    +0.300 C 
ATOM      7  O   UNL     1       4.994  -1.405  -2.625  0.00  0.00    -0.265 OA
ATOM      8  H   UNL     1       2.889   0.494  -3.847  0.00  0.00    +0.150 HD
BRANCH   5  16
ATOM      9  N   UNL     1       0.688  -0.476  -1.203  0.00  0.00    -0.270 N 
ATOM     10  C   UNL     1       0.044  -0.733  -2.414  0.00  0.00    +0.042 A 
ATOM     11  C   UNL     1      -1.298  -0.621  -2.775  0.00  0.00    +0.024 A 
ATOM     12  C   UNL     1      -1.700  -0.937  -4.056  0.00  0.00    +0.002 A 
ATOM     13  C   UNL     1      -0.777  -1.367  -4.992  0.00  0.00    +0.000 A 
ATOM     14  C   UNL     1       0.557  -1.481  -4.642  0.00  0.00    +0.008 A 
ATOM     15  C   UNL     1       0.961  -1.166  -3.364  0.00  0.00    +0.003 A 
ATOM     16  C   UNL     1       2.308  -1.181  -2.678  0.00  0.00    +0.192 C 
ATOM     17  C   UNL     1       2.010  -0.708  -1.271  0.00  0.00    +0.245 C 
ATOM     18  O   UNL     1       2.813  -0.565  -0.374  0.00  0.00    -0.273 OA
BRANCH   9  20
ATOM     19  C   UNL     1      -0.019   1.526   0.010  0.00  0.00    +0.025 C 
ATOM     20  C   UNL     1       0.002  -0.004   0.002  0.00  0.00    +0.110 C 
ENDBRANCH   9  20
ENDBRANCH   5  16
ENDBRANCH   1   6
BRANCH   3  21
ATOM     21  C   UNL     1       7.762   1.198  -4.511  0.00  0.00    +0.109 C 
BRANCH  21  22
ATOM     22  C   UNL     1       9.202   0.747  -4.255  0.00  0.00    +0.052 C 
BRANCH  22  23
ATOM     23  C   UNL     1      10.153   1.694  -4.940  0.00  0.00    -0.040 C 
ATOM     24  C   UNL     1      10.777   2.760  -4.388  0.00  0.00    +0.000 A 
ATOM     25  C   UNL     1      10.757   3.334  -3.037  0.00  0.00    +0.030 A 
ATOM     26  C   UNL     1      11.504   4.432  -2.780  0.00  0.00    +0.042 A 
ATOM     27  C   UNL     1      12.296   5.034  -3.769  0.00  0.00    +0.022 A 
ATOM     28  C   UNL     1      12.366   4.563  -5.032  0.00  0.00    +0.027 A 
ATOM     29  C   UNL     1      11.621   3.413  -5.414  0.00  0.00    +0.043 A 
ATOM     30  N   UNL     1      11.523   2.776  -6.555  0.00  0.00    -0.380 N 
ATOM     31  C   UNL     1      10.610   1.641  -6.381  0.00  0.00    +0.144 C 
ATOM     32 CL   UNL     1      11.482   5.115  -1.184  0.00  0.00    -0.084 Cl
ATOM     33  H   UNL     1      11.981   3.013  -7.377  0.00  0.00    +0.160 HD
ENDBRANCH  22  23
ENDBRANCH  21  22
ENDBRANCH   3  21
TORSDOF 6
