REMARK  Name = ZINC28082017
REMARK  12 active torsions:
REMARK  status: ('A' for Active; 'I' for Inactive)
REMARK    1  A    between atoms: C_1  and  C_2
REMARK    2  A    between atoms: C_2  and  C_3
REMARK    3  A    between atoms: C_2  and  N_4
REMARK    4  A    between atoms: N_4  and  C_5
REMARK    5  A    between atoms: N_4  and  C_32
REMARK    6  A    between atoms: C_5  and  C_6
REMARK    7  A    between atoms: C_6  and  N_7
REMARK    8  A    between atoms: C_17  and  S_18
REMARK    9  A    between atoms: S_18  and  C_19
REMARK   10  A    between atoms: C_19  and  C_20
REMARK   11  A    between atoms: C_32  and  C_33
REMARK   12  A    between atoms: C_32  and  C_34
REMARK                            x       y       z     vdW  Elec       q    Type
REMARK                         _______ _______ _______ _____ _____    ______ ____
ROOT
ATOM      1  N   UNL     1      -0.491   1.531   2.822  0.00  0.00    -0.289 N 
ATOM      2  C   UNL     1      -0.571   0.295   3.369  0.00  0.00    +0.262 A 
ATOM      3  O   UNL     1      -1.066  -0.634   2.758  0.00  0.00    -0.267 OA
ATOM      4  C   UNL     1      -0.032   0.117   4.724  0.00  0.00    +0.065 A 
ATOM      5  C   UNL     1      -0.062  -1.117   5.372  0.00  0.00    +0.015 A 
ATOM      6  C   UNL     1       0.449  -1.226   6.636  0.00  0.00    +0.001 A 
ATOM      7  C   UNL     1       0.996  -0.123   7.278  0.00  0.00    +0.002 A 
ATOM      8  C   UNL     1       1.037   1.098   6.667  0.00  0.00    +0.028 A 
ATOM      9  C   UNL     1       0.523   1.242   5.375  0.00  0.00    +0.079 A 
ATOM     10  N   UNL     1       0.544   2.429   4.734  0.00  0.00    -0.223 NA
ATOM     11  C   UNL     1       0.062   2.564   3.523  0.00  0.00    +0.172 A 
ENDROOT
BRANCH   1  12
ATOM     12  C   UNL     1      -1.009   1.764   1.471  0.00  0.00    +0.109 C 
BRANCH  12  13
ATOM     13  C   UNL     1       0.106   1.525   0.451  0.00  0.00    -0.056 C 
BRANCH  13  14
ATOM     14  N   UNL     1      -0.413   1.758  -0.904  0.00  0.00    +0.384 N 
ATOM     15  H   UNL     1      -0.892   2.748  -0.917  0.00  0.00    -0.081 HD
BRANCH  14  17
ATOM     16  C   UNL     1       1.329   3.154  -1.910  0.00  0.00    -0.014 C 
ATOM     17  C   UNL     1       0.676   1.771  -1.890  0.00  0.00    -0.074 C 
ATOM     18  C   UNL     1       1.721   0.720  -1.509  0.00  0.00    -0.014 C 
ENDBRANCH  14  17
BRANCH  14  19
ATOM     19  C   UNL     1      -1.431   0.759  -1.257  0.00  0.00    -0.074 C 
ATOM     20  C   UNL     1      -2.119   1.171  -2.560  0.00  0.00    -0.014 C 
ATOM     21  C   UNL     1      -0.764  -0.605  -1.442  0.00  0.00    -0.014 C 
ENDBRANCH  14  19
ENDBRANCH  13  14
ENDBRANCH  12  13
ENDBRANCH   1  12
BRANCH  11  22
ATOM     22  S   UNL     1       0.133   4.152   2.764  0.00  0.00    -0.081 S 
BRANCH  22  23
ATOM     23  C   UNL     1       0.929   5.098   4.087  0.00  0.00    +0.133 C 
BRANCH  23  24
ATOM     24  C   UNL     1       1.098   6.530   3.649  0.00  0.00    +0.059 A 
ATOM     25  C   UNL     1       0.266   7.509   4.157  0.00  0.00    +0.094 A 
ATOM     26  C   UNL     1       0.446   8.833   3.739  0.00  0.00    +0.259 A 
ATOM     27  O   UNL     1      -0.270   9.722   4.172  0.00  0.00    -0.267 OA
ATOM     28  N   UNL     1       1.419   9.110   2.845  0.00  0.00    -0.267 N 
ATOM     29  C   UNL     1       1.602  10.393   2.424  0.00  0.00    +0.116 A 
ATOM     30  C   UNL     1       2.570  10.695   1.529  0.00  0.00    +0.058 A 
ATOM     31  C   UNL     1       3.400   9.684   1.022  0.00  0.00    +0.025 A 
ATOM     32  C   UNL     1       3.224   8.399   1.436  0.00  0.00    +0.048 A 
ATOM     33  C   UNL     1       2.212   8.104   2.368  0.00  0.00    +0.141 A 
ATOM     34  N   UNL     1       2.039   6.848   2.774  0.00  0.00    -0.233 NA
ATOM     35 CL   UNL     1       2.785  12.336   1.006  0.00  0.00    -0.082 Cl
ENDBRANCH  23  24
ENDBRANCH  22  23
ENDBRANCH  11  22
TORSDOF 8
