REMARK  Name = ZINC14475853
REMARK  9 active torsions:
REMARK  status: ('A' for Active; 'I' for Inactive)
REMARK    1  A    between atoms: C_1  and  C_2
REMARK    2  A    between atoms: C_2  and  N_3
REMARK    3  A    between atoms: N_3  and  C_4
REMARK    4  A    between atoms: N_3  and  S_6
REMARK    5  A    between atoms: C_4  and  C_5
REMARK    6  A    between atoms: S_6  and  C_9
REMARK    7  A    between atoms: C_22  and  C_25
REMARK    8  A    between atoms: C_27  and  N_32
REMARK    9  A    between atoms: C_30  and  O_31
REMARK                            x       y       z     vdW  Elec       q    Type
REMARK                         _______ _______ _______ _____ _____    ______ ____
ROOT
ATOM      1  C   UNL     1       0.002  -0.004   0.002  0.00  0.00    +0.106 A 
ATOM      2  C   UNL     1      -0.017   1.379   0.010  0.00  0.00    +0.030 A 
ATOM      3  C   UNL     1       1.167   2.088   0.002  0.00  0.00    +0.025 A 
ATOM      4  C   UNL     1       2.385   1.420  -0.013  0.00  0.00    +0.031 A 
ATOM      5  C   UNL     1       2.396   0.021  -0.009  0.00  0.00    -0.018 A 
ATOM      6  C   UNL     1       1.209  -0.678  -0.007  0.00  0.00    +0.034 A 
ATOM      7  C   UNL     1       3.714  -0.651   0.016  0.00  0.00    +0.049 C 
ATOM      8  C   UNL     1       3.936  -2.029  -0.519  0.00  0.00    -0.023 C 
ATOM      9  C   UNL     1       5.166  -2.113  -1.012  0.00  0.00    -0.030 C 
ATOM     10  C   UNL     1       5.885  -0.771  -0.855  0.00  0.00    +0.033 C 
ATOM     11  C   UNL     1       4.705   0.209  -0.824  0.00  0.00    +0.029 C 
ATOM     12  C   UNL     1       4.893   1.494  -0.037  0.00  0.00    +0.108 C 
ATOM     13  N   UNL     1       3.572   2.162  -0.043  0.00  0.00    -0.336 N 
ATOM     14  H   UNL     1       3.511   3.260  -0.070  0.00  0.00    +0.147 HD
ENDROOT
BRANCH  12  15
ATOM     15  C   UNL     1       5.313   1.183   1.376  0.00  0.00    +0.017 A 
ATOM     16  C   UNL     1       4.359   1.034   2.364  0.00  0.00    +0.041 A 
ATOM     17  C   UNL     1       4.744   0.743   3.660  0.00  0.00    +0.127 A 
ATOM     18  C   UNL     1       6.084   0.611   3.972  0.00  0.00    +0.036 A 
ATOM     19  C   UNL     1       7.042   0.765   2.989  0.00  0.00    +0.048 A 
ATOM     20  C   UNL     1       6.658   1.052   1.687  0.00  0.00    +0.122 A 
BRANCH  17  21
ATOM     21  N   UNL     1       3.719   0.577   4.715  0.00  0.00    +0.056 N 
ATOM     22  O   UNL     1       4.057   0.325   5.857  0.00  0.00    -0.126 OA
ATOM     23  O   UNL     1       2.538   0.693   4.441  0.00  0.00    -0.126 OA
ENDBRANCH  17  21
BRANCH  20  24
ATOM     24  O   UNL     1       7.599   1.203   0.718  0.00  0.00    -0.506 OA
ATOM     25  H   UNL     1       8.666   1.098   0.966  0.00  0.00    +0.292 HD
ENDBRANCH  20  24
ENDBRANCH  12  15
BRANCH   1  26
ATOM     26  S   UNL     1      -1.512  -0.906   0.003  0.00  0.00    +0.061 S 
ATOM     27  O   UNL     1      -1.221  -2.187   0.546  0.00  0.00    -0.153 OA
ATOM     28  O   UNL     1      -2.496  -0.047   0.563  0.00  0.00    -0.153 OA
BRANCH  26  29
ATOM     29  N   UNL     1      -1.938  -1.148  -1.578  0.00  0.00    -0.177 NA
BRANCH  29  31
ATOM     30  C   UNL     1      -2.555  -3.429  -2.211  0.00  0.00    +0.022 C 
ATOM     31  C   UNL     1      -1.478  -2.345  -2.287  0.00  0.00    +0.106 C 
ENDBRANCH  29  31
BRANCH  29  32
ATOM     32  C   UNL     1      -2.777  -0.165  -2.269  0.00  0.00    +0.106 C 
ATOM     33  C   UNL     1      -1.887   0.812  -3.040  0.00  0.00    +0.022 C 
ENDBRANCH  29  32
ENDBRANCH  26  29
ENDBRANCH   1  26
TORSDOF 7
