REMARK  Name = ZINC63514048
REMARK  9 active torsions:
REMARK  status: ('A' for Active; 'I' for Inactive)
REMARK    1  A    between atoms: C_1  and  C_2
REMARK    2  A    between atoms: C_4  and  C_14
REMARK    3  A    between atoms: C_7  and  O_12
REMARK    4  A    between atoms: O_12  and  C_13
REMARK    5  A    between atoms: C_14  and  C_15
REMARK    6  A    between atoms: C_15  and  N_16
REMARK    7  A    between atoms: C_17  and  C_19
REMARK    8  A    between atoms: C_24  and  C_33
REMARK    9  A    between atoms: C_26  and  C_29
REMARK                            x       y       z     vdW  Elec       q    Type
REMARK                         _______ _______ _______ _____ _____    ______ ____
ROOT
ATOM      1  N   UNL     1      -4.819  -0.825  -1.544  0.00  0.00    -0.313 N 
ATOM      2  C   UNL     1      -6.036  -1.378  -1.371  0.00  0.00    +0.236 C 
ATOM      3  O   UNL     1      -6.259  -2.061  -0.394  0.00  0.00    -0.274 OA
ATOM      4  H   UNL     1      -4.641  -0.279  -2.326  0.00  0.00    +0.149 HD
ENDROOT
BRANCH   2   5
ATOM      5  C   UNL     1      -7.120  -1.149  -2.393  0.00  0.00    +0.185 C 
ATOM      6  C   UNL     1      -7.475   0.318  -2.465  0.00  0.00    +0.047 C 
ATOM      7  C   UNL     1      -8.777   0.421  -2.121  0.00  0.00    +0.138 C 
ATOM      8  N   UNL     1      -9.546   1.535  -2.039  0.00  0.00    -0.230 NA
ATOM      9  C   UNL     1     -10.815   1.462  -1.683  0.00  0.00    +0.081 C 
ATOM     10  C   UNL     1     -11.403   0.157  -1.371  0.00  0.00    +0.056 C 
ATOM     11  C   UNL     1     -10.630  -0.943  -1.456  0.00  0.00    +0.115 C 
ATOM     12  N   UNL     1      -9.311  -0.826  -1.831  0.00  0.00    -0.215 N 
ATOM     13  N   UNL     1      -8.368  -1.812  -1.977  0.00  0.00    -0.218 NA
ATOM     14  H   UNL     1      -8.237  -2.319  -1.114  0.00  0.00    +0.146 HD
BRANCH   9  15
ATOM     15  C   UNL     1     -11.633   2.682  -1.599  0.00  0.00    +0.038 A 
ATOM     16  C   UNL     1     -11.272   3.994  -1.854  0.00  0.00    +0.017 A 
ATOM     17  C   UNL     1     -12.267   4.931  -1.687  0.00  0.00    +0.008 A 
ATOM     18  C   UNL     1     -13.497   4.522  -1.296  0.00  0.00    +0.046 A 
ATOM     19  S   UNL     1     -13.350   2.855  -1.149  0.00  0.00    -0.095 S 
ENDBRANCH   9  15
BRANCH  11  20
ATOM     20  C   UNL     1     -11.209  -2.298  -1.141  0.00  0.00    +0.363 C 
ATOM     21  F   UNL     1     -12.556  -2.160  -0.788  0.00  0.00    -0.181 F 
ATOM     22  F   UNL     1     -11.104  -3.123  -2.266  0.00  0.00    -0.181 F 
ATOM     23 CL   UNL     1     -10.300  -3.035   0.231  0.00  0.00    -0.041 Cl
ENDBRANCH  11  20
ENDBRANCH   2   5
BRANCH   1  24
ATOM     24  C   UNL     1      -3.765  -1.048  -0.551  0.00  0.00    +0.108 C 
BRANCH  24  25
ATOM     25  C   UNL     1      -2.494  -0.315  -0.984  0.00  0.00    +0.052 C 
BRANCH  25  28
ATOM     26  C   UNL     1      -0.019   1.526   0.010  0.00  0.00    +0.035 C 
ATOM     27  C   UNL     1       0.002  -0.004   0.002  0.00  0.00    +0.103 C 
ATOM     28  C   UNL     1      -1.410  -0.545   0.038  0.00  0.00    -0.037 C 
ATOM     29  C   UNL     1      -1.503  -1.275   1.172  0.00  0.00    +0.003 A 
ATOM     30  C   UNL     1      -2.598  -2.045   1.773  0.00  0.00    +0.055 A 
ATOM     31  C   UNL     1      -2.393  -2.691   2.946  0.00  0.00    +0.121 A 
ATOM     32  C   UNL     1      -1.160  -2.651   3.620  0.00  0.00    +0.047 A 
ATOM     33  C   UNL     1      -0.095  -1.970   3.147  0.00  0.00    +0.029 A 
ATOM     34  C   UNL     1      -0.204  -1.234   1.883  0.00  0.00    +0.043 A 
ATOM     35  N   UNL     1       0.658  -0.508   1.214  0.00  0.00    -0.378 N 
ATOM     36  H   UNL     1       1.576  -0.332   1.476  0.00  0.00    +0.160 HD
BRANCH  31  37
ATOM     37  O   UNL     1      -3.416  -3.401   3.491  0.00  0.00    -0.495 OA
ATOM     38  C   UNL     1      -3.157  -4.065   4.729  0.00  0.00    +0.277 C 
ENDBRANCH  31  37
ENDBRANCH  25  28
ENDBRANCH  24  25
ENDBRANCH   1  24
TORSDOF 7
