REMARK  Name = ZINC33937113
REMARK  14 active torsions:
REMARK  status: ('A' for Active; 'I' for Inactive)
REMARK    1  A    between atoms: C_1  and  C_2
REMARK    2  A    between atoms: C_2  and  C_3
REMARK    3  A    between atoms: C_3  and  C_5
REMARK    4  A    between atoms: C_3  and  N_17
REMARK    5  A    between atoms: N_9  and  C_10
REMARK    6  A    between atoms: C_10  and  C_11
REMARK    7  A    between atoms: N_17  and  C_18
REMARK    8  A    between atoms: N_17  and  C_27
REMARK    9  A    between atoms: C_18  and  C_19
REMARK   10  A    between atoms: C_22  and  O_25
REMARK   11  A    between atoms: O_25  and  C_26
REMARK   12  A    between atoms: C_27  and  C_28
REMARK   13  A    between atoms: C_32  and  C_41
REMARK   14  A    between atoms: C_34  and  C_40
REMARK                            x       y       z     vdW  Elec       q    Type
REMARK                         _______ _______ _______ _____ _____    ______ ____
ROOT
ATOM      1  N   UNL     1       3.027  -0.628   0.332  0.00  0.00    +0.392 N 
ATOM      2  H   UNL     1       2.706  -1.303  -0.346  0.00  0.00    -0.080 HD
ENDROOT
BRANCH   1   3
ATOM      3  C   UNL     1       1.937   0.303   0.651  0.00  0.00    +0.003 C 
BRANCH   3   4
ATOM      4  C   UNL     1       2.437   1.353   1.610  0.00  0.00    +0.138 A 
ATOM      5  N   UNL     1       3.165   1.152   2.681  0.00  0.00    -0.115 NA
ATOM      6  N   UNL     1       3.386   2.295   3.232  0.00  0.00    -0.023 NA
ATOM      7  N   UNL     1       2.818   3.220   2.541  0.00  0.00    -0.044 NA
ATOM      8  N   UNL     1       2.226   2.680   1.530  0.00  0.00    -0.228 N 
BRANCH   8   9
ATOM      9  C   UNL     1       1.466   3.379   0.491  0.00  0.00    +0.178 C 
BRANCH   9  10
ATOM     10  C   UNL     1       0.024   3.579   0.961  0.00  0.00    +0.140 C 
ATOM     11  C   UNL     1      -0.775   4.396  -0.084  0.00  0.00    +0.035 C 
ATOM     12  C   UNL     1      -2.225   3.935   0.226  0.00  0.00    +0.031 C 
ATOM     13  C   UNL     1      -2.019   2.463   0.641  0.00  0.00    +0.160 C 
ATOM     14  O   UNL     1      -0.652   2.314   1.048  0.00  0.00    -0.375 OA
ENDBRANCH   9  10
ENDBRANCH   8   9
ENDBRANCH   3   4
BRANCH   3  16
ATOM     15  C   UNL     1       0.261  -1.519   0.314  0.00  0.00    +0.002 C 
ATOM     16  C   UNL     1       0.781  -0.466   1.294  0.00  0.00    -0.011 C 
ENDBRANCH   3  16
ENDBRANCH   1   3
BRANCH   1  17
ATOM     17  C   UNL     1       4.163   0.120  -0.222  0.00  0.00    -0.042 C 
BRANCH  17  18
ATOM     18  C   UNL     1       3.773   0.715  -1.550  0.00  0.00    -0.064 A 
ATOM     19  C   UNL     1       3.857  -0.048  -2.700  0.00  0.00    +0.005 A 
ATOM     20  C   UNL     1       3.500   0.495  -3.918  0.00  0.00    +0.046 A 
ATOM     21  C   UNL     1       3.058   1.808  -3.989  0.00  0.00    +0.120 A 
ATOM     22  C   UNL     1       2.975   2.572  -2.834  0.00  0.00    +0.046 A 
ATOM     23  C   UNL     1       3.328   2.022  -1.616  0.00  0.00    +0.005 A 
BRANCH  21  24
ATOM     24  O   UNL     1       2.707   2.345  -5.187  0.00  0.00    -0.495 OA
ATOM     25  C   UNL     1       2.260   3.703  -5.183  0.00  0.00    +0.277 C 
ENDBRANCH  21  24
ENDBRANCH  17  18
ENDBRANCH   1  17
BRANCH   1  26
ATOM     26  C   UNL     1       3.449  -1.325   1.555  0.00  0.00    -0.036 C 
BRANCH  26  27
ATOM     27  C   UNL     1       3.032  -2.771   1.478  0.00  0.00    +0.001 A 
ATOM     28  C   UNL     1       3.609  -3.593   0.568  0.00  0.00    +0.017 A 
ATOM     29  C   UNL     1       3.182  -4.993   0.519  0.00  0.00    -0.001 A 
ATOM     30  C   UNL     1       3.741  -5.889  -0.398  0.00  0.00    +0.013 A 
ATOM     31  C   UNL     1       3.321  -7.188  -0.418  0.00  0.00    -0.050 A 
ATOM     32  C   UNL     1       2.343  -7.628   0.464  0.00  0.00    +0.008 A 
ATOM     33  C   UNL     1       1.777  -6.763   1.376  0.00  0.00    -0.026 A 
ATOM     34  C   UNL     1       2.190  -5.435   1.415  0.00  0.00    +0.052 A 
ATOM     35  N   UNL     1       1.643  -4.548   2.317  0.00  0.00    -0.322 N 
ATOM     36  H   UNL     1       0.960  -4.854   2.934  0.00  0.00    +0.169 HD
ATOM     37  C   UNL     1       2.045  -3.266   2.358  0.00  0.00    +0.251 A 
ATOM     38  O   UNL     1       1.543  -2.511   3.172  0.00  0.00    -0.268 OA
ATOM     39  C   UNL     1       0.716  -7.253   2.327  0.00  0.00    +0.046 C 
ATOM     40  C   UNL     1       3.924  -8.153  -1.406  0.00  0.00    +0.044 C 
ENDBRANCH  26  27
ENDBRANCH   1  26
TORSDOF 10
