REMARK  Name = ZINC02955719
REMARK  9 active torsions:
REMARK  status: ('A' for Active; 'I' for Inactive)
REMARK    1  A    between atoms: C_1  and  C_2
REMARK    2  A    between atoms: C_2  and  O_3
REMARK    3  A    between atoms: O_3  and  C_4
REMARK    4  A    between atoms: C_7  and  N_10
REMARK    5  A    between atoms: C_12  and  C_24
REMARK    6  A    between atoms: C_15  and  C_22
REMARK    7  A    between atoms: C_18  and  C_21
REMARK    8  A    between atoms: C_22  and  O_23
REMARK    9  A    between atoms: N_26  and  C_27
REMARK                            x       y       z     vdW  Elec       q    Type
REMARK                         _______ _______ _______ _____ _____    ______ ____
ROOT
ATOM      1  N   UNL     1       0.296  -6.701  -1.499  0.00  0.00    -0.325 N 
ATOM      2  C   UNL     1       0.586  -6.566  -2.774  0.00  0.00    +0.212 A 
ATOM      3  C   UNL     1       1.450  -7.546  -3.463  0.00  0.00    +0.098 A 
ATOM      4  C   UNL     1       1.277  -7.693  -4.821  0.00  0.00    +0.030 A 
ATOM      5  C   UNL     1       0.254  -6.864  -5.462  0.00  0.00    +0.027 A 
ATOM      6  C   UNL     1      -0.183  -7.112  -6.769  0.00  0.00    +0.007 A 
ATOM      7  C   UNL     1      -1.153  -6.290  -7.306  0.00  0.00    +0.117 A 
ATOM      8  N   UNL     1      -1.662  -5.290  -6.611  0.00  0.00    -0.256 NA
ATOM      9  C   UNL     1      -1.283  -5.015  -5.379  0.00  0.00    +0.081 A 
ATOM     10  C   UNL     1      -0.312  -5.787  -4.755  0.00  0.00    +0.159 A 
ATOM     11  O   UNL     1       0.094  -5.524  -3.494  0.00  0.00    -0.437 OA
ATOM     12  C   UNL     1      -1.907  -3.858  -4.643  0.00  0.00    +0.069 C 
ATOM     13  H   UNL     1       0.559  -7.505  -1.024  0.00  0.00    +0.169 HD
ENDROOT
BRANCH   1  17
ATOM     14  C   UNL     1      -1.742  -3.696   0.491  0.00  0.00    +0.121 A 
ATOM     15  C   UNL     1      -2.117  -5.021   0.668  0.00  0.00    +0.047 A 
ATOM     16  C   UNL     1      -1.441  -6.025   0.007  0.00  0.00    +0.029 A 
ATOM     17  C   UNL     1      -0.378  -5.708  -0.842  0.00  0.00    +0.042 A 
ATOM     18  C   UNL     1      -0.005  -4.373  -1.017  0.00  0.00    +0.029 A 
ATOM     19  C   UNL     1      -0.690  -3.375  -0.356  0.00  0.00    +0.047 A 
BRANCH  14  20
ATOM     20  O   UNL     1      -2.411  -2.710   1.145  0.00  0.00    -0.492 OA
BRANCH  20  22
ATOM     21  C   UNL     1      -4.112  -1.872   2.644  0.00  0.00    +0.048 C 
ATOM     22  C   UNL     1      -3.483  -3.110   2.000  0.00  0.00    +0.225 C 
ENDBRANCH  20  22
ENDBRANCH  14  20
ENDBRANCH   1  17
BRANCH   3  23
ATOM     23  C   UNL     1       2.456  -8.332  -2.727  0.00  0.00    +0.253 C 
ATOM     24  O   UNL     1       3.067  -9.219  -3.293  0.00  0.00    -0.270 OA
ATOM     25  N   UNL     1       2.699  -8.069  -1.428  0.00  0.00    -0.281 N 
ATOM     26  H   UNL     1       2.175  -7.399  -0.963  0.00  0.00    +0.155 HD
BRANCH  25  27
ATOM     27  C   UNL     1       3.708  -8.762  -0.751  0.00  0.00    +0.034 A 
ATOM     28  C   UNL     1       3.964 -10.093  -1.057  0.00  0.00    +0.024 A 
ATOM     29  C   UNL     1       4.961 -10.774  -0.388  0.00  0.00    +0.017 A 
ATOM     30  C   UNL     1       5.705 -10.133   0.588  0.00  0.00    +0.018 A 
ATOM     31  C   UNL     1       5.452  -8.808   0.895  0.00  0.00    +0.017 A 
ATOM     32  C   UNL     1       4.460  -8.120   0.224  0.00  0.00    +0.024 A 
ATOM     33 BR   UNL     1       7.069 -11.070   1.502  0.00  0.00    -0.050 Br
ENDBRANCH  25  27
ENDBRANCH   3  23
BRANCH   6  34
ATOM     34  C   UNL     1       0.392  -8.251  -7.571  0.00  0.00    +0.193 C 
BRANCH  34  35
ATOM     35  O   UNL     1      -0.222  -8.283  -8.861  0.00  0.00    -0.390 OA
ATOM     36  H   UNL     1       0.101  -8.993  -9.433  0.00  0.00    +0.210 HD
ENDBRANCH  34  35
ENDBRANCH   6  34
TORSDOF 7
