REMARK  Name = ZINC63405914
REMARK  7 active torsions:
REMARK  status: ('A' for Active; 'I' for Inactive)
REMARK    1  A    between atoms: C_1  and  N_2
REMARK    2  A    between atoms: N_12  and  C_28
REMARK    3  A    between atoms: N_18  and  C_21
REMARK    4  A    between atoms: C_21  and  C_22
REMARK    5  A    between atoms: C_28  and  C_29
REMARK    6  A    between atoms: C_29  and  S_30
REMARK    7  A    between atoms: S_30  and  C_31
REMARK                            x       y       z     vdW  Elec       q    Type
REMARK                         _______ _______ _______ _____ _____    ______ ____
ROOT
ATOM      1  C   UNL     1      -0.861   1.490   1.111  0.00  0.00    +0.136 C 
ATOM      2  N   UNL     1      -0.554   0.074   0.898  0.00  0.00    -0.264 N 
ATOM      3  C   UNL     1      -1.633  -0.873   0.644  0.00  0.00    +0.203 C 
ATOM      4  C   UNL     1      -1.237  -1.827  -0.510  0.00  0.00    +0.205 C 
ATOM      5  C   UNL     1       0.230  -2.147  -0.424  0.00  0.00    +0.264 C 
ATOM      6  N   UNL     1       1.094  -1.409   0.252  0.00  0.00    -0.126 NA
ATOM      7  C   UNL     1       0.737  -0.351   0.931  0.00  0.00    +0.330 C 
ATOM      8  O   UNL     1       1.655   0.334   1.637  0.00  0.00    -0.250 OA
ATOM      9  O   UNL     1       0.642  -3.132  -1.005  0.00  0.00    -0.271 OA
ATOM     10  N   UNL     1      -1.999  -3.036  -0.086  0.00  0.00    -0.289 N 
ATOM     11  C   UNL     1      -1.988  -3.005   1.293  0.00  0.00    +0.161 C 
ATOM     12  N   UNL     1      -1.810  -1.796   1.776  0.00  0.00    -0.340 N 
ATOM     13  N   UNL     1      -2.160  -4.119   2.080  0.00  0.00    -0.302 N 
ATOM     14  C   UNL     1      -1.374  -4.303   3.310  0.00  0.00    +0.123 C 
ATOM     15  C   UNL     1      -2.337  -4.614   4.461  0.00  0.00    +0.103 C 
ATOM     16  N   UNL     1      -3.186  -5.753   4.091  0.00  0.00    -0.295 NA
ATOM     17  C   UNL     1      -4.028  -5.436   2.930  0.00  0.00    +0.103 C 
ATOM     18  C   UNL     1      -3.139  -5.155   1.719  0.00  0.00    +0.123 C 
ATOM     19  H   UNL     1      -1.790  -1.551   2.715  0.00  0.00    +0.164 HD
ENDROOT
BRANCH  16  20
ATOM     20  C   UNL     1      -4.004  -6.193   5.229  0.00  0.00    +0.119 C 
BRANCH  20  21
ATOM     21  C   UNL     1      -4.672  -7.501   4.893  0.00  0.00    -0.033 A 
ATOM     22  C   UNL     1      -5.915  -7.507   4.288  0.00  0.00    +0.005 A 
ATOM     23  C   UNL     1      -6.528  -8.707   3.980  0.00  0.00    +0.000 A 
ATOM     24  C   UNL     1      -5.897  -9.901   4.275  0.00  0.00    +0.000 A 
ATOM     25  C   UNL     1      -4.654  -9.895   4.879  0.00  0.00    +0.000 A 
ATOM     26  C   UNL     1      -4.039  -8.695   5.184  0.00  0.00    +0.005 A 
ENDBRANCH  20  21
ENDBRANCH  16  20
BRANCH  10  27
ATOM     27  C   UNL     1      -2.624  -4.042  -0.949  0.00  0.00    +0.119 C 
BRANCH  27  28
ATOM     28  C   UNL     1      -1.684  -5.239  -1.101  0.00  0.00    +0.092 C 
BRANCH  28  29
ATOM     29  S   UNL     1      -2.521  -6.549  -2.037  0.00  0.00    -0.113 S 
BRANCH  29  30
ATOM     30  C   UNL     1      -1.289  -7.878  -2.128  0.00  0.00    +0.235 C 
ATOM     31  N   UNL     1      -0.870  -8.270  -0.776  0.00  0.00    -0.355 N 
ATOM     32  C   UNL     1       0.410  -8.050  -0.685  0.00  0.00    +0.061 A 
ATOM     33  C   UNL     1       1.382  -8.240   0.400  0.00  0.00    +0.027 A 
ATOM     34  C   UNL     1       2.675  -7.916   0.200  0.00  0.00    +0.002 A 
ATOM     35  C   UNL     1       3.146  -7.397  -1.019  0.00  0.00    +0.002 A 
ATOM     36  C   UNL     1       2.340  -7.184  -2.079  0.00  0.00    +0.027 A 
ATOM     37  C   UNL     1       0.909  -7.500  -1.976  0.00  0.00    +0.061 A 
ATOM     38  N   UNL     1      -0.082  -7.401  -2.814  0.00  0.00    -0.355 N 
ATOM     39  H   UNL     1      -1.442  -8.626  -0.078  0.00  0.00    +0.162 HD
ATOM     40  H   UNL     1      -0.032  -7.072  -3.725  0.00  0.00    +0.162 HD
ENDBRANCH  29  30
ENDBRANCH  28  29
ENDBRANCH  27  28
ENDBRANCH  10  27
TORSDOF 6
