REMARK  Name = ZINC62526726
REMARK  1 active torsions:
REMARK  status: ('A' for Active; 'I' for Inactive)
REMARK    1  A    between atoms: N_10  and  N_11
REMARK                            x       y       z     vdW  Elec       q    Type
REMARK                         _______ _______ _______ _____ _____    ______ ____
ROOT
ATOM      1  C   UNL     1      -0.017   1.391   0.010  0.00  0.00    +0.051 A 
ATOM      2  C   UNL     1       1.171   2.092   0.002  0.00  0.00    +0.045 A 
ATOM      3  C   UNL     1       2.383   1.417  -0.013  0.00  0.00    +0.043 A 
ATOM      4  C   UNL     1       2.415   0.036  -0.021  0.00  0.00    +0.087 A 
ATOM      5  C   UNL     1       1.230  -0.683  -0.013  0.00  0.00    +0.175 A 
ATOM      6  C   UNL     1       0.002  -0.004   0.002  0.00  0.00    +0.114 A 
ATOM      7  N   UNL     1      -0.970  -0.957   0.006  0.00  0.00    -0.194 NA
ATOM      8  C   UNL     1      -0.402  -2.136  -0.006  0.00  0.00    +0.302 A 
ATOM      9  O   UNL     1       0.936  -2.004  -0.018  0.00  0.00    -0.422 OA
ATOM     10  N   UNL     1      -1.076  -3.336  -0.006  0.00  0.00    -0.237 N 
ATOM     11 CL   UNL     1       3.937  -0.798  -0.041  0.00  0.00    -0.080 Cl
ATOM     12 CL   UNL     1       1.150   3.828   0.012  0.00  0.00    -0.083 Cl
ATOM     13  H   UNL     1      -2.046  -3.348   0.004  0.00  0.00    +0.170 HD
ENDROOT
BRANCH  10  14
ATOM     14  N   UNL     1      -0.379  -4.511  -0.019  0.00  0.00    -0.253 NA
ATOM     15  H   UNL     1       0.266  -4.558   0.755  0.00  0.00    +0.141 HD
ATOM     16  H   UNL     1      -1.004  -5.303  -0.017  0.00  0.00    +0.141 HD
ENDBRANCH  10  14
TORSDOF 1
