REMARK  Name = ZINC55042002
REMARK  8 active torsions:
REMARK  status: ('A' for Active; 'I' for Inactive)
REMARK    1  A    between atoms: C_1  and  C_2
REMARK    2  A    between atoms: C_3  and  C_15
REMARK    3  A    between atoms: N_10  and  C_11
REMARK    4  A    between atoms: C_11  and  C_12
REMARK    5  A    between atoms: C_15  and  N_16
REMARK    6  A    between atoms: N_16  and  C_17
REMARK    7  A    between atoms: C_17  and  C_18
REMARK    8  A    between atoms: C_18  and  N_19
REMARK                            x       y       z     vdW  Elec       q    Type
REMARK                         _______ _______ _______ _____ _____    ______ ____
ROOT
ATOM      1  C   UNL     1      -0.018   1.503   0.010  0.00  0.00    +0.064 C 
ATOM      2  C   UNL     1       0.002  -0.004   0.002  0.00  0.00    +0.019 A 
ATOM      3  C   UNL     1       0.007  -0.769  -1.101  0.00  0.00    -0.036 A 
ATOM      4  C   UNL     1       0.029  -2.164  -0.655  0.00  0.00    +0.001 A 
ATOM      5  C   UNL     1       0.043  -3.394  -1.316  0.00  0.00    +0.010 A 
ATOM      6  C   UNL     1       0.063  -4.552  -0.593  0.00  0.00    +0.001 A 
ATOM      7  C   UNL     1       0.070  -4.517   0.795  0.00  0.00    +0.002 A 
ATOM      8  C   UNL     1       0.056  -3.315   1.468  0.00  0.00    +0.026 A 
ATOM      9  C   UNL     1       0.036  -2.122   0.751  0.00  0.00    +0.050 A 
ATOM     10  N   UNL     1       0.024  -0.795   1.118  0.00  0.00    -0.335 N 
ENDROOT
BRANCH  10  11
ATOM     11  C   UNL     1       0.031  -0.304   2.498  0.00  0.00    +0.217 C 
BRANCH  11  12
ATOM     12  C   UNL     1      -1.387  -0.155   2.985  0.00  0.00    +0.230 C 
ATOM     13  O   UNL     1      -2.313  -0.432   2.252  0.00  0.00    -0.274 OA
ATOM     14  N   UNL     1      -1.627   0.286   4.236  0.00  0.00    -0.328 N 
ATOM     15  H   UNL     1      -0.887   0.507   4.823  0.00  0.00    +0.145 HD
ATOM     16  H   UNL     1      -2.540   0.382   4.550  0.00  0.00    +0.145 HD
ENDBRANCH  11  12
ENDBRANCH  10  11
BRANCH   3  17
ATOM     17  C   UNL     1      -0.006  -0.284  -2.528  0.00  0.00    -0.044 C 
BRANCH  17  18
ATOM     18  N   UNL     1       1.374  -0.106  -2.999  0.00  0.00    +0.383 N 
ATOM     19  H   UNL     1       1.843   0.572  -2.417  0.00  0.00    -0.085 HD
ATOM     20  H   UNL     1       1.862  -0.988  -2.948  0.00  0.00    -0.085 HD
BRANCH  18  21
ATOM     21  C   UNL     1       1.360   0.366  -4.389  0.00  0.00    -0.067 C 
BRANCH  21  22
ATOM     22  C   UNL     1       2.798   0.551  -4.879  0.00  0.00    +0.066 C 
BRANCH  22  23
ATOM     23  N   UNL     1       2.784   1.024  -6.270  0.00  0.00    -0.300 NA
ATOM     24  C   UNL     1       4.138   1.008  -6.846  0.00  0.00    +0.089 C 
ATOM     25  C   UNL     1       4.022   1.148  -8.364  0.00  0.00    +0.051 C 
ATOM     26  C   UNL     1       3.138   2.319  -8.706  0.00  0.00    -0.042 A 
ATOM     27  C   UNL     1       3.188   2.832  -9.994  0.00  0.00    +0.004 A 
ATOM     28  C   UNL     1       2.392   3.902 -10.350  0.00  0.00    +0.000 A 
ATOM     29  C   UNL     1       1.539   4.464  -9.418  0.00  0.00    +0.000 A 
ATOM     30  C   UNL     1       1.489   3.955  -8.136  0.00  0.00    +0.005 A 
ATOM     31  C   UNL     1       2.291   2.882  -7.776  0.00  0.00    -0.030 A 
ATOM     32  C   UNL     1       2.209   2.369  -6.362  0.00  0.00    +0.119 C 
ENDBRANCH  22  23
ENDBRANCH  21  22
ENDBRANCH  18  21
ENDBRANCH  17  18
ENDBRANCH   3  17
TORSDOF 7
