REMARK  Name = ZINC02024074
REMARK  11 active torsions:
REMARK  status: ('A' for Active; 'I' for Inactive)
REMARK    1  A    between atoms: C_1  and  C_2
REMARK    2  A    between atoms: C_5  and  S_8
REMARK    3  A    between atoms: S_8  and  N_11
REMARK    4  A    between atoms: N_11  and  C_12
REMARK    5  A    between atoms: C_14  and  C_33
REMARK    6  A    between atoms: C_15  and  N_19
REMARK    7  A    between atoms: C_17  and  C_18
REMARK    8  A    between atoms: N_19  and  S_20
REMARK    9  A    between atoms: S_20  and  C_23
REMARK   10  A    between atoms: C_26  and  N_30
REMARK   11  A    between atoms: C_28  and  C_29
REMARK                            x       y       z     vdW  Elec       q    Type
REMARK                         _______ _______ _______ _____ _____    ______ ____
ROOT
ATOM      1  C   UNL     1       4.834   4.904  -2.514  0.00  0.00    +0.051 A 
ATOM      2  C   UNL     1       3.975   4.150  -3.303  0.00  0.00    +0.030 A 
ATOM      3  C   UNL     1       3.373   3.021  -2.784  0.00  0.00    -0.026 A 
ATOM      4  C   UNL     1       3.627   2.639  -1.473  0.00  0.00    +0.051 A 
ATOM      5  C   UNL     1       4.482   3.395  -0.683  0.00  0.00    +0.030 A 
ATOM      6  C   UNL     1       5.088   4.522  -1.203  0.00  0.00    -0.026 A 
ATOM      7  C   UNL     1       6.019   5.340  -0.347  0.00  0.00    +0.046 C 
ATOM      8  C   UNL     1       2.442   2.203  -3.640  0.00  0.00    +0.046 C 
ENDROOT
BRANCH   1   9
ATOM      9  N   UNL     1       5.444   6.049  -3.040  0.00  0.00    -0.216 N 
ATOM     10  H   UNL     1       6.323   6.316  -2.729  0.00  0.00    +0.174 HD
BRANCH   9  11
ATOM     11  S   UNL     1       4.665   6.947  -4.192  0.00  0.00    +0.072 S 
ATOM     12  O   UNL     1       5.461   8.103  -4.413  0.00  0.00    -0.150 OA
ATOM     13  O   UNL     1       4.315   6.051  -5.238  0.00  0.00    -0.150 OA
BRANCH  11  18
ATOM     14  C   UNL     1      -0.515   8.861  -1.760  0.00  0.00    +0.044 C 
ATOM     15  C   UNL     1       0.778   8.383  -2.368  0.00  0.00    -0.050 A 
ATOM     16  C   UNL     1       1.923   9.150  -2.249  0.00  0.00    +0.005 A 
ATOM     17  C   UNL     1       3.109   8.711  -2.807  0.00  0.00    +0.029 A 
ATOM     18  C   UNL     1       3.152   7.506  -3.482  0.00  0.00    +0.109 A 
ATOM     19  C   UNL     1       2.007   6.741  -3.604  0.00  0.00    +0.029 A 
ATOM     20  C   UNL     1       0.821   7.178  -3.043  0.00  0.00    +0.005 A 
ENDBRANCH  11  18
ENDBRANCH   9  11
ENDBRANCH   1   9
BRANCH   4  21
ATOM     21  N   UNL     1       3.017   1.494  -0.947  0.00  0.00    -0.216 N 
ATOM     22  H   UNL     1       2.871   0.719  -1.512  0.00  0.00    +0.174 HD
BRANCH  21  23
ATOM     23  S   UNL     1       2.545   1.462   0.640  0.00  0.00    +0.073 S 
ATOM     24  O   UNL     1       3.688   1.810   1.410  0.00  0.00    -0.150 OA
ATOM     25  O   UNL     1       1.841   0.242   0.830  0.00  0.00    -0.150 OA
BRANCH  23  26
ATOM     26  C   UNL     1       1.374   2.760   0.861  0.00  0.00    +0.112 A 
ATOM     27  C   UNL     1       1.681   3.837   1.672  0.00  0.00    +0.031 A 
ATOM     28  C   UNL     1       0.761   4.852   1.850  0.00  0.00    +0.034 A 
ATOM     29  C   UNL     1      -0.464   4.796   1.209  0.00  0.00    +0.127 A 
ATOM     30  C   UNL     1      -0.770   3.720   0.398  0.00  0.00    +0.038 A 
ATOM     31  C   UNL     1       0.149   2.701   0.224  0.00  0.00    -0.022 A 
ATOM     32  C   UNL     1      -0.185   1.528  -0.660  0.00  0.00    +0.046 C 
BRANCH  29  33
ATOM     33  N   UNL     1      -1.447   5.886   1.396  0.00  0.00    +0.056 N 
ATOM     34  O   UNL     1      -2.527   5.834   0.834  0.00  0.00    -0.126 OA
ATOM     35  O   UNL     1      -1.177   6.834   2.111  0.00  0.00    -0.126 OA
ENDBRANCH  29  33
ENDBRANCH  23  26
ENDBRANCH  21  23
ENDBRANCH   4  21
TORSDOF 7
