REMARK  Name = ZINC12427531
REMARK  8 active torsions:
REMARK  status: ('A' for Active; 'I' for Inactive)
REMARK    1  A    between atoms: C_1  and  C_2
REMARK    2  A    between atoms: C_2  and  C_3
REMARK    3  A    between atoms: C_8  and  N_9
REMARK    4  A    between atoms: C_12  and  C_17
REMARK    5  A    between atoms: C_17  and  S_18
REMARK    6  A    between atoms: S_18  and  C_19
REMARK    7  A    between atoms: N_32  and  C_33
REMARK    8  A    between atoms: C_33  and  C_34
REMARK                            x       y       z     vdW  Elec       q    Type
REMARK                         _______ _______ _______ _____ _____    ______ ____
ROOT
ATOM      1  N   UNL     1       8.509  -1.456   2.261  0.00  0.00    -0.283 N 
ATOM      2  C   UNL     1       7.811  -1.396   1.070  0.00  0.00    +0.224 A 
ATOM      3  N   UNL     1       6.484  -1.300   1.079  0.00  0.00    -0.198 NA
ATOM      4  C   UNL     1       5.816  -1.242  -0.059  0.00  0.00    +0.146 A 
ATOM      5  N   UNL     1       6.462  -1.284  -1.211  0.00  0.00    -0.199 NA
ATOM      6  C   UNL     1       7.790  -1.373  -1.229  0.00  0.00    +0.217 A 
ATOM      7  N   UNL     1       8.465  -1.432  -0.086  0.00  0.00    -0.181 NA
ATOM      8  N   UNL     1       8.464  -1.411  -2.432  0.00  0.00    -0.327 N 
ATOM      9  H   UNL     1       8.041  -1.344   3.103  0.00  0.00    +0.155 HD
ATOM     10  H   UNL     1       9.431  -1.480  -2.444  0.00  0.00    +0.145 HD
ATOM     11  H   UNL     1       7.970  -1.368  -3.266  0.00  0.00    +0.145 HD
ENDROOT
BRANCH   1  17
ATOM     12  C   UNL     1      10.670  -1.253   3.318  0.00  0.00    -0.026 A 
ATOM     13  C   UNL     1      12.033  -1.475   3.306  0.00  0.00    +0.005 A 
ATOM     14  C   UNL     1      12.621  -2.122   2.235  0.00  0.00    +0.000 A 
ATOM     15  C   UNL     1      11.846  -2.549   1.171  0.00  0.00    +0.002 A 
ATOM     16  C   UNL     1      10.482  -2.334   1.180  0.00  0.00    +0.023 A 
ATOM     17  C   UNL     1       9.889  -1.680   2.252  0.00  0.00    +0.037 A 
BRANCH  12  19
ATOM     18  C   UNL     1       9.501  -1.583   5.480  0.00  0.00    +0.009 C 
ATOM     19  C   UNL     1      10.031  -0.547   4.486  0.00  0.00    +0.033 C 
ENDBRANCH  12  19
ENDBRANCH   1  17
BRANCH   4  20
ATOM     20  C   UNL     1       4.313  -1.134  -0.044  0.00  0.00    +0.153 C 
BRANCH  20  21
ATOM     21  S   UNL     1       3.832   0.615  -0.022  0.00  0.00    -0.078 S 
BRANCH  21  22
ATOM     22  C   UNL     1       2.071   0.573  -0.006  0.00  0.00    +0.198 A 
ATOM     23  N   UNL     1       1.326  -0.505  -0.010  0.00  0.00    -0.120 NA
ATOM     24  N   UNL     1      -0.016  -0.106   0.007  0.00  0.00    -0.109 NA
ATOM     25  C   UNL     1      -0.051   1.208   0.021  0.00  0.00    +0.240 A 
ATOM     26  N   UNL     1       1.240   1.661   0.013  0.00  0.00    -0.256 N 
ATOM     27  C   UNL     1       1.511   3.027   0.025  0.00  0.00    +0.064 A 
ATOM     28  C   UNL     1       2.816   3.496   0.018  0.00  0.00    +0.027 A 
ATOM     29  C   UNL     1       3.058   4.856   0.030  0.00  0.00    +0.002 A 
ATOM     30  C   UNL     1       2.006   5.758   0.050  0.00  0.00    +0.001 A 
ATOM     31  C   UNL     1       0.702   5.310   0.056  0.00  0.00    +0.015 A 
ATOM     32  C   UNL     1       0.446   3.940   0.044  0.00  0.00    +0.064 A 
ATOM     33  C   UNL     1      -0.934   3.419   0.052  0.00  0.00    +0.263 A 
ATOM     34  O   UNL     1      -1.882   4.181   0.069  0.00  0.00    -0.267 OA
ATOM     35  N   UNL     1      -1.125   2.084   0.034  0.00  0.00    -0.273 N 
BRANCH  35  36
ATOM     36  C   UNL     1      -2.490   1.552   0.035  0.00  0.00    +0.155 C 
BRANCH  36  37
ATOM     37  C   UNL     1      -2.952   1.355   1.456  0.00  0.00    -0.013 C 
ATOM     38  C   UNL     1      -4.063   1.914   1.867  0.00  0.00    +0.005 C 
ENDBRANCH  36  37
ENDBRANCH  35  36
ENDBRANCH  21  22
ENDBRANCH  20  21
ENDBRANCH   4  20
TORSDOF 7
