REMARK  Name = ZINC06443747
REMARK  14 active torsions:
REMARK  status: ('A' for Active; 'I' for Inactive)
REMARK    1  A    between atoms: C_1  and  C_2
REMARK    2  A    between atoms: C_12  and  C_14
REMARK    3  A    between atoms: C_14  and  C_16
REMARK    4  A    between atoms: C_14  and  N_72
REMARK    5  A    between atoms: N_20  and  C_21
REMARK    6  A    between atoms: C_21  and  C_22
REMARK    7  A    between atoms: C_21  and  C_23
REMARK    8  A    between atoms: C_21  and  C_24
REMARK    9  A    between atoms: C_25  and  C_26
REMARK   10  A    between atoms: C_25  and  N_72
REMARK   11  A    between atoms: C_29  and  O_32
REMARK   12  A    between atoms: O_32  and  C_33
REMARK   13  A    between atoms: C_34  and  C_35
REMARK   14  A    between atoms: C_34  and  N_72
REMARK                            x       y       z     vdW  Elec       q    Type
REMARK                         _______ _______ _______ _____ _____    ______ ____
ROOT
ATOM      1  C   UNL     1       0.592  -2.769   4.820  0.00  0.00    +0.040 C 
ENDROOT
BRANCH   1  13
ATOM      2  C   UNL     1       1.702   1.700   0.130  0.00  0.00    +0.046 C 
ATOM      3  C   UNL     1       1.798   0.196   0.114  0.00  0.00    -0.026 A 
ATOM      4  C   UNL     1       2.170  -0.461  -1.039  0.00  0.00    +0.005 A 
ATOM      5  C   UNL     1       2.267  -1.846  -1.065  0.00  0.00    +0.001 A 
ATOM      6  C   UNL     1       1.984  -2.583   0.050  0.00  0.00    +0.010 A 
ATOM      7  C   UNL     1       1.598  -1.938   1.229  0.00  0.00    -0.001 A 
ATOM      8  C   UNL     1       1.504  -0.534   1.261  0.00  0.00    +0.052 A 
ATOM      9  N   UNL     1       1.124   0.098   2.426  0.00  0.00    -0.322 N 
ATOM     10  H   UNL     1       1.060   1.066   2.446  0.00  0.00    +0.169 HD
ATOM     11  C   UNL     1       0.841  -0.608   3.534  0.00  0.00    +0.251 A 
ATOM     12  O   UNL     1       0.508  -0.017   4.547  0.00  0.00    -0.268 OA
ATOM     13  C   UNL     1       0.919  -2.017   3.555  0.00  0.00    +0.011 A 
ATOM     14  C   UNL     1       1.287  -2.697   2.441  0.00  0.00    +0.017 A 
ENDBRANCH   1  13
BRANCH   1  15
ATOM     15  C   UNL     1      -0.864  -2.573   5.158  0.00  0.00    +0.143 A 
ATOM     16  N   UNL     1      -1.407  -1.506   5.691  0.00  0.00    -0.115 NA
ATOM     17  N   UNL     1      -2.670  -1.726   5.823  0.00  0.00    -0.023 NA
ATOM     18  N   UNL     1      -2.945  -2.909   5.394  0.00  0.00    -0.043 NA
ATOM     19  N   UNL     1      -1.857  -3.463   4.976  0.00  0.00    -0.225 N 
BRANCH  19  20
ATOM     20  C   UNL     1      -1.729  -4.808   4.410  0.00  0.00    +0.059 C 
ATOM     21  C   UNL     1      -0.848  -5.663   5.322  0.00  0.00    +0.036 C 
ATOM     22  C   UNL     1      -3.114  -5.447   4.293  0.00  0.00    +0.036 C 
ATOM     23  C   UNL     1      -1.090  -4.718   3.022  0.00  0.00    +0.036 C 
ENDBRANCH  19  20
ENDBRANCH   1  15
BRANCH   1  24
ATOM     24  N   UNL     1       1.414  -2.234   5.926  0.00  0.00    +0.395 N 
ATOM     25  H   UNL     1       1.101  -1.281   6.143  0.00  0.00    -0.079 HD
BRANCH  24  26
ATOM     26  C   UNL     1       1.252  -3.078   7.129  0.00  0.00    -0.041 C 
BRANCH  26  27
ATOM     27  C   UNL     1      -0.024  -2.682   7.827  0.00  0.00    -0.064 A 
ATOM     28  C   UNL     1      -0.093  -1.481   8.509  0.00  0.00    +0.005 A 
ATOM     29  C   UNL     1      -1.263  -1.113   9.144  0.00  0.00    +0.046 A 
ATOM     30  C   UNL     1      -2.366  -1.954   9.107  0.00  0.00    +0.120 A 
ATOM     31  C   UNL     1      -2.292  -3.161   8.427  0.00  0.00    +0.046 A 
ATOM     32  C   UNL     1      -1.121  -3.522   7.788  0.00  0.00    +0.005 A 
BRANCH  30  33
ATOM     33  O   UNL     1      -3.516  -1.597   9.736  0.00  0.00    -0.495 OA
ATOM     34  C   UNL     1      -3.520  -0.340  10.417  0.00  0.00    +0.277 C 
ENDBRANCH  30  33
ENDBRANCH  26  27
ENDBRANCH  24  26
BRANCH  24  35
ATOM     35  C   UNL     1       2.836  -2.195   5.525  0.00  0.00    -0.040 C 
BRANCH  35  36
ATOM     36  C   UNL     1       3.590  -1.328   6.500  0.00  0.00    -0.046 A 
ATOM     37  C   UNL     1       3.609   0.050   6.345  0.00  0.00    +0.005 A 
ATOM     38  C   UNL     1       4.312   0.808   7.269  0.00  0.00    +0.020 A 
ATOM     39  C   UNL     1       4.973   0.169   8.301  0.00  0.00    +0.111 A 
ATOM     40  N   UNL     1       4.937  -1.144   8.414  0.00  0.00    -0.263 NA
ATOM     41  C   UNL     1       4.275  -1.896   7.557  0.00  0.00    +0.112 A 
ENDBRANCH  35  36
ENDBRANCH  24  35
ENDBRANCH   1  24
TORSDOF 9
