REMARK  Name = ZINC40742581
REMARK  9 active torsions:
REMARK  status: ('A' for Active; 'I' for Inactive)
REMARK    1  A    between atoms: C_1  and  O_2
REMARK    2  A    between atoms: O_2  and  C_3
REMARK    3  A    between atoms: C_5  and  C_20
REMARK    4  A    between atoms: C_8  and  O_9
REMARK    5  A    between atoms: O_9  and  C_10
REMARK    6  A    between atoms: C_10  and  C_11
REMARK    7  A    between atoms: C_20  and  N_21
REMARK    8  A    between atoms: N_21  and  C_22
REMARK    9  A    between atoms: C_22  and  C_23
REMARK                            x       y       z     vdW  Elec       q    Type
REMARK                         _______ _______ _______ _____ _____    ______ ____
ROOT
ATOM      1  C   UNL     1       0.606  -0.608  -1.056  0.00  0.00    +0.163 A 
ATOM      2  C   UNL     1       1.173   0.159  -2.062  0.00  0.00    +0.051 A 
ATOM      3  C   UNL     1       1.787  -0.455  -3.138  0.00  0.00    -0.059 A 
ATOM      4  C   UNL     1       1.837  -1.835  -3.214  0.00  0.00    +0.025 A 
ATOM      5  C   UNL     1       1.273  -2.606  -2.213  0.00  0.00    +0.086 A 
ATOM      6  C   UNL     1       0.662  -1.996  -1.129  0.00  0.00    +0.181 A 
ATOM      7 CL   UNL     1       1.337  -4.338  -2.312  0.00  0.00    -0.080 Cl
ENDROOT
BRANCH   1   9
ATOM      8  C   UNL     1      -0.017   1.425   0.010  0.00  0.00    +0.277 C 
ATOM      9  O   UNL     1       0.002  -0.004   0.002  0.00  0.00    -0.491 OA
ENDBRANCH   1   9
BRANCH   6  10
ATOM     10  O   UNL     1       0.112  -2.752  -0.141  0.00  0.00    -0.482 OA
BRANCH  10  11
ATOM     11  C   UNL     1      -1.259  -3.125  -0.296  0.00  0.00    +0.266 C 
BRANCH  11  12
ATOM     12  C   UNL     1      -1.690  -3.954   0.886  0.00  0.00    +0.008 A 
ATOM     13  C   UNL     1      -0.793  -4.231   1.900  0.00  0.00    +0.011 A 
ATOM     14  C   UNL     1      -1.187  -4.992   2.985  0.00  0.00    +0.039 A 
ATOM     15  C   UNL     1      -2.482  -5.476   3.056  0.00  0.00    +0.125 A 
ATOM     16  C   UNL     1      -3.381  -5.198   2.041  0.00  0.00    +0.058 A 
ATOM     17  C   UNL     1      -2.986  -4.433   0.959  0.00  0.00    +0.050 A 
ATOM     18 CL   UNL     1      -4.115  -4.078  -0.312  0.00  0.00    -0.083 Cl
ATOM     19  F   UNL     1      -2.868  -6.220   4.116  0.00  0.00    -0.205 F 
ENDBRANCH  11  12
ENDBRANCH  10  11
ENDBRANCH   6  10
BRANCH   3  20
ATOM     20  C   UNL     1       2.402   0.381  -4.230  0.00  0.00    -0.046 C 
BRANCH  20  21
ATOM     21  N   UNL     1       3.807   0.659  -3.902  0.00  0.00    +0.384 N 
ATOM     22  H   UNL     1       3.854   1.160  -3.027  0.00  0.00    -0.085 HD
ATOM     23  H   UNL     1       4.311  -0.211  -3.819  0.00  0.00    -0.085 HD
BRANCH  21  24
ATOM     24  C   UNL     1       4.407   1.474  -4.967  0.00  0.00    -0.046 C 
BRANCH  24  25
ATOM     25  C   UNL     1       5.847   1.759  -4.629  0.00  0.00    -0.061 A 
ATOM     26  C   UNL     1       6.174   2.884  -3.895  0.00  0.00    +0.005 A 
ATOM     27  C   UNL     1       7.494   3.150  -3.582  0.00  0.00    +0.050 A 
ATOM     28  C   UNL     1       8.494   2.289  -4.006  0.00  0.00    +0.166 A 
ATOM     29  C   UNL     1       8.165   1.156  -4.746  0.00  0.00    +0.166 A 
ATOM     30  C   UNL     1       6.839   0.893  -5.051  0.00  0.00    +0.051 A 
ATOM     31  O   UNL     1       9.312   0.478  -5.040  0.00  0.00    -0.453 OA
ATOM     32  C   UNL     1      10.381   1.419  -4.824  0.00  0.00    +0.466 C 
ATOM     33  O   UNL     1       9.848   2.321  -3.836  0.00  0.00    -0.453 OA
ENDBRANCH  24  25
ENDBRANCH  21  24
ENDBRANCH  20  21
ENDBRANCH   3  20
TORSDOF 8
