REMARK  Name = ZINC01371212
REMARK  12 active torsions:
REMARK  status: ('A' for Active; 'I' for Inactive)
REMARK    1  A    between atoms: C_1  and  C_2
REMARK    2  A    between atoms: C_6  and  C_15
REMARK    3  A    between atoms: C_13  and  C_14
REMARK    4  A    between atoms: C_15  and  N_16
REMARK    5  A    between atoms: N_16  and  C_17
REMARK    6  A    between atoms: C_17  and  C_18
REMARK    7  A    between atoms: C_18  and  C_19
REMARK    8  A    between atoms: C_22  and  O_27
REMARK    9  A    between atoms: C_23  and  O_25
REMARK   10  A    between atoms: O_25  and  C_26
REMARK   11  A    between atoms: O_27  and  C_28
REMARK   12  A    between atoms: N_31  and  C_32
REMARK                            x       y       z     vdW  Elec       q    Type
REMARK                         _______ _______ _______ _____ _____    ______ ____
ROOT
ATOM      1  N   UNL     1      -5.826   4.050  -1.086  0.00  0.00    -0.281 N 
ATOM      2  C   UNL     1      -6.666   3.087  -1.514  0.00  0.00    +0.307 C 
ATOM      3  O   UNL     1      -7.363   3.279  -2.492  0.00  0.00    -0.252 OA
ATOM      4  N   UNL     1      -6.733   1.911  -0.859  0.00  0.00    -0.268 N 
ATOM      5  H   UNL     1      -6.140   1.738  -0.111  0.00  0.00    +0.156 HD
ENDROOT
BRANCH   4   6
ATOM      6  C   UNL     1      -7.657   0.938  -1.259  0.00  0.00    +0.053 A 
ATOM      7  C   UNL     1      -8.101   0.899  -2.574  0.00  0.00    +0.025 A 
ATOM      8  C   UNL     1      -9.010  -0.064  -2.966  0.00  0.00    +0.002 A 
ATOM      9  C   UNL     1      -9.486  -0.983  -2.049  0.00  0.00    +0.002 A 
ATOM     10  C   UNL     1      -9.050  -0.945  -0.738  0.00  0.00    +0.022 A 
ATOM     11  C   UNL     1      -8.137   0.014  -0.339  0.00  0.00    +0.062 A 
ATOM     12 CL   UNL     1      -7.591   0.062   1.308  0.00  0.00    -0.082 Cl
ENDBRANCH   4   6
BRANCH   1  13
ATOM     13  C   UNL     1      -4.874   3.766  -0.009  0.00  0.00    +0.150 C 
BRANCH  13  19
ATOM     14  C   UNL     1      -8.557   2.409   6.331  0.00  0.00    +0.044 C 
ATOM     15  C   UNL     1      -7.832   3.355   5.410  0.00  0.00    -0.047 A 
ATOM     16  C   UNL     1      -7.320   2.892   4.230  0.00  0.00    +0.013 A 
ATOM     17  C   UNL     1      -6.647   3.770   3.375  0.00  0.00    -0.001 A 
ATOM     18  C   UNL     1      -6.087   3.308   2.104  0.00  0.00    +0.020 A 
ATOM     19  C   UNL     1      -5.458   4.208   1.308  0.00  0.00    +0.035 A 
ATOM     20  C   UNL     1      -5.339   5.554   1.713  0.00  0.00    +0.254 A 
ATOM     21  O   UNL     1      -4.761   6.345   0.987  0.00  0.00    -0.268 OA
ATOM     22  N   UNL     1      -5.846   5.987   2.881  0.00  0.00    -0.322 N 
ATOM     23  H   UNL     1      -5.747   6.920   3.129  0.00  0.00    +0.169 HD
ATOM     24  C   UNL     1      -6.506   5.125   3.731  0.00  0.00    +0.049 A 
ATOM     25  C   UNL     1      -7.030   5.572   4.939  0.00  0.00    +0.030 A 
ATOM     26  C   UNL     1      -7.690   4.689   5.766  0.00  0.00    -0.046 A 
ATOM     27  C   UNL     1      -8.263   5.176   7.072  0.00  0.00    +0.044 C 
ENDBRANCH  13  19
ENDBRANCH   1  13
BRANCH   1  28
ATOM     28  C   UNL     1      -5.866   5.381  -1.696  0.00  0.00    +0.114 C 
BRANCH  28  29
ATOM     29  C   UNL     1      -4.903   5.426  -2.884  0.00  0.00    +0.054 C 
BRANCH  29  30
ATOM     30  C   UNL     1      -4.944   6.795  -3.512  0.00  0.00    -0.042 A 
ATOM     31  C   UNL     1      -5.839   7.060  -4.532  0.00  0.00    +0.007 A 
ATOM     32  C   UNL     1      -5.884   8.316  -5.108  0.00  0.00    +0.049 A 
ATOM     33  C   UNL     1      -5.023   9.310  -4.671  0.00  0.00    +0.161 A 
ATOM     34  C   UNL     1      -4.118   9.042  -3.648  0.00  0.00    +0.162 A 
ATOM     35  C   UNL     1      -4.082   7.782  -3.072  0.00  0.00    +0.053 A 
BRANCH  34  36
ATOM     36  O   UNL     1      -3.271  10.014  -3.216  0.00  0.00    -0.491 OA
ATOM     37  C   UNL     1      -2.369   9.667  -2.163  0.00  0.00    +0.277 C 
ENDBRANCH  34  36
BRANCH  33  38
ATOM     38  O   UNL     1      -5.063  10.545  -5.239  0.00  0.00    -0.491 OA
ATOM     39  C   UNL     1      -6.017  10.748  -6.283  0.00  0.00    +0.277 C 
ENDBRANCH  33  38
ENDBRANCH  29  30
ENDBRANCH  28  29
ENDBRANCH   1  28
TORSDOF 8
