REMARK  Name = ZINC48192218
REMARK  10 active torsions:
REMARK  status: ('A' for Active; 'I' for Inactive)
REMARK    1  A    between atoms: C_1  and  C_2
REMARK    2  A    between atoms: C_2  and  C_4
REMARK    3  A    between atoms: C_2  and  N_14
REMARK    4  A    between atoms: C_8  and  S_10
REMARK    5  A    between atoms: S_10  and  N_13
REMARK    6  A    between atoms: N_17  and  C_18
REMARK    7  A    between atoms: C_24  and  C_26
REMARK    8  A    between atoms: C_26  and  C_27
REMARK    9  A    between atoms: C_26  and  C_28
REMARK   10  A    between atoms: C_26  and  C_29
REMARK                            x       y       z     vdW  Elec       q    Type
REMARK                         _______ _______ _______ _____ _____    ______ ____
ROOT
ATOM      1  N   UNL     1      -2.092  -0.133   0.275  0.00  0.00    -0.293 N 
ATOM      2  C   UNL     1      -2.774  -0.304  -0.875  0.00  0.00    +0.300 C 
ATOM      3  O   UNL     1      -2.375   0.210  -1.901  0.00  0.00    -0.253 OA
ATOM      4  N   UNL     1      -3.899  -1.046  -0.886  0.00  0.00    -0.296 N 
ATOM      5  H   UNL     1      -2.410  -0.543   1.094  0.00  0.00    +0.151 HD
ATOM      6  H   UNL     1      -4.218  -1.457  -0.067  0.00  0.00    +0.151 HD
ENDROOT
BRANCH   4   7
ATOM      7  C   UNL     1      -4.641  -1.233  -2.135  0.00  0.00    +0.078 C 
ATOM      8  C   UNL     1      -5.684  -0.123  -2.280  0.00  0.00    +0.022 C 
ATOM      9  C   UNL     1      -6.654  -0.178  -1.098  0.00  0.00    +0.002 C 
ATOM     10  C   UNL     1      -7.356  -1.538  -1.077  0.00  0.00    +0.000 C 
ATOM     11  C   UNL     1      -6.312  -2.648  -0.932  0.00  0.00    +0.006 C 
ATOM     12  C   UNL     1      -5.342  -2.593  -2.114  0.00  0.00    +0.015 C 
BRANCH  12  13
ATOM     13  C   UNL     1      -4.299  -3.702  -1.970  0.00  0.00    -0.033 C 
ATOM     14  C   UNL     1      -3.630  -3.598  -0.598  0.00  0.00    +0.011 C 
ATOM     15  C   UNL     1      -4.982  -5.065  -2.103  0.00  0.00    +0.011 C 
ATOM     16  C   UNL     1      -3.241  -3.553  -3.065  0.00  0.00    +0.011 C 
ENDBRANCH  12  13
ENDBRANCH   4   7
BRANCH   1  18
ATOM     17  C   UNL     1      -1.234   2.151   0.455  0.00  0.00    +0.033 C 
ATOM     18  C   UNL     1      -0.869   0.674   0.287  0.00  0.00    +0.102 C 
BRANCH  18  19
ATOM     19  C   UNL     1       0.007   0.240   1.434  0.00  0.00    -0.026 A 
ATOM     20  C   UNL     1      -0.559  -0.079   2.654  0.00  0.00    +0.005 A 
ATOM     21  C   UNL     1       0.245  -0.477   3.706  0.00  0.00    +0.002 A 
ATOM     22  C   UNL     1       1.615  -0.557   3.537  0.00  0.00    +0.028 A 
ATOM     23  C   UNL     1       2.181  -0.238   2.317  0.00  0.00    +0.105 A 
ATOM     24  C   UNL     1       1.376   0.156   1.264  0.00  0.00    +0.034 A 
BRANCH  23  25
ATOM     25  S   UNL     1       3.927  -0.339   2.102  0.00  0.00    +0.056 S 
ATOM     26  O   UNL     1       4.255   0.534   1.031  0.00  0.00    -0.153 OA
ATOM     27  O   UNL     1       4.503  -0.210   3.395  0.00  0.00    -0.153 OA
BRANCH  25  28
ATOM     28  N   UNL     1       4.269  -1.874   1.583  0.00  0.00    -0.204 NA
ATOM     29  H   UNL     1       3.551  -2.514   1.457  0.00  0.00    +0.144 HD
ATOM     30  H   UNL     1       5.186  -2.133   1.405  0.00  0.00    +0.144 HD
ENDBRANCH  25  28
ENDBRANCH  23  25
ENDBRANCH  18  19
ENDBRANCH   1  18
TORSDOF 6
