REMARK  Name = ZINC39920007
REMARK  12 active torsions:
REMARK  status: ('A' for Active; 'I' for Inactive)
REMARK    1  A    between atoms: C_1  and  C_2
REMARK    2  A    between atoms: C_2  and  C_3
REMARK    3  A    between atoms: C_2  and  C_4
REMARK    4  A    between atoms: C_7  and  C_10
REMARK    5  A    between atoms: N_21  and  N_22
REMARK    6  A    between atoms: C_23  and  C_25
REMARK    7  A    between atoms: C_27  and  O_35
REMARK    8  A    between atoms: C_28  and  O_33
REMARK    9  A    between atoms: C_29  and  O_31
REMARK   10  A    between atoms: O_31  and  C_32
REMARK   11  A    between atoms: O_33  and  C_34
REMARK   12  A    between atoms: O_35  and  C_36
REMARK                            x       y       z     vdW  Elec       q    Type
REMARK                         _______ _______ _______ _____ _____    ______ ____
ROOT
ATOM      1  C   UNL     1       2.707  -1.868  -4.752  0.00  0.00    +0.212 C 
ATOM      2  N   UNL     1       2.510  -0.897  -5.836  0.00  0.00    -0.320 N 
ATOM      3  C   UNL     1       3.243   0.284  -5.810  0.00  0.00    +0.041 A 
ATOM      4  C   UNL     1       2.758   1.460  -6.357  0.00  0.00    +0.025 A 
ATOM      5  C   UNL     1       3.525   2.608  -6.301  0.00  0.00    +0.022 A 
ATOM      6  C   UNL     1       4.776   2.591  -5.702  0.00  0.00    +0.042 A 
ATOM      7  C   UNL     1       5.274   1.427  -5.153  0.00  0.00    +0.035 A 
ATOM      8  C   UNL     1       4.512   0.263  -5.204  0.00  0.00    +0.061 A 
ATOM      9  C   UNL     1       4.999  -1.009  -4.641  0.00  0.00    +0.267 C 
ATOM     10  O   UNL     1       6.169  -1.139  -4.336  0.00  0.00    -0.268 OA
ATOM     11  N   UNL     1       4.133  -2.025  -4.469  0.00  0.00    -0.191 N 
ATOM     12 CL   UNL     1       5.722   4.046  -5.642  0.00  0.00    -0.084 Cl
ATOM     13  H   UNL     1       1.883  -1.076  -6.554  0.00  0.00    +0.148 HD
ENDROOT
BRANCH   1  17
ATOM     14  C   UNL     1       0.707  -0.490  -1.238  0.00  0.00    -0.045 A 
ATOM     15  C   UNL     1       0.222  -0.151  -2.487  0.00  0.00    +0.004 A 
ATOM     16  C   UNL     1       0.869  -0.597  -3.624  0.00  0.00    +0.007 A 
ATOM     17  C   UNL     1       2.002  -1.381  -3.513  0.00  0.00    -0.008 A 
ATOM     18  C   UNL     1       2.488  -1.720  -2.263  0.00  0.00    +0.007 A 
ATOM     19  C   UNL     1       1.843  -1.270  -1.126  0.00  0.00    +0.004 A 
BRANCH  14  21
ATOM     20  C   UNL     1      -0.019   1.526   0.010  0.00  0.00    +0.012 C 
ATOM     21  C   UNL     1       0.002  -0.004   0.002  0.00  0.00    +0.013 C 
ATOM     22  C   UNL     1      -1.433  -0.534   0.013  0.00  0.00    +0.012 C 
ENDBRANCH  14  21
ENDBRANCH   1  17
BRANCH  11  23
ATOM     23  N   UNL     1       4.611  -3.258  -4.006  0.00  0.00    -0.226 N 
ATOM     24  C   UNL     1       5.295  -4.070  -4.836  0.00  0.00    +0.261 C 
ATOM     25  O   UNL     1       5.499  -3.732  -5.986  0.00  0.00    -0.269 OA
ATOM     26  H   UNL     1       4.448  -3.528  -3.089  0.00  0.00    +0.173 HD
BRANCH  24  27
ATOM     27  C   UNL     1       5.799  -5.369  -4.349  0.00  0.00    +0.045 A 
ATOM     28  C   UNL     1       5.561  -5.761  -3.029  0.00  0.00    +0.062 A 
ATOM     29  C   UNL     1       6.033  -6.979  -2.576  0.00  0.00    +0.166 A 
ATOM     30  C   UNL     1       6.746  -7.813  -3.432  0.00  0.00    +0.204 A 
ATOM     31  C   UNL     1       6.985  -7.425  -4.747  0.00  0.00    +0.166 A 
ATOM     32  C   UNL     1       6.509  -6.211  -5.208  0.00  0.00    +0.062 A 
BRANCH  31  33
ATOM     33  O   UNL     1       7.682  -8.242  -5.582  0.00  0.00    -0.491 OA
ATOM     34  C   UNL     1       7.890  -7.780  -6.918  0.00  0.00    +0.277 C 
ENDBRANCH  31  33
BRANCH  30  35
ATOM     35  O   UNL     1       7.209  -9.009  -2.983  0.00  0.00    -0.488 OA
ATOM     36  C   UNL     1       6.344 -10.137  -3.131  0.00  0.00    +0.277 C 
ENDBRANCH  30  35
BRANCH  29  37
ATOM     37  O   UNL     1       5.801  -7.361  -1.291  0.00  0.00    -0.491 OA
ATOM     38  C   UNL     1       5.064  -6.456  -0.468  0.00  0.00    +0.277 C 
ENDBRANCH  29  37
ENDBRANCH  24  27
ENDBRANCH  11  23
TORSDOF 7
