REMARK  Name = ZINC67280095
REMARK  9 active torsions:
REMARK  status: ('A' for Active; 'I' for Inactive)
REMARK    1  A    between atoms: C_1  and  C_2
REMARK    2  A    between atoms: C_4  and  O_22
REMARK    3  A    between atoms: C_7  and  N_8
REMARK    4  A    between atoms: N_11  and  C_12
REMARK    5  A    between atoms: C_12  and  C_13
REMARK    6  A    between atoms: C_12  and  C_14
REMARK    7  A    between atoms: C_12  and  C_15
REMARK    8  A    between atoms: O_22  and  C_23
REMARK    9  A    between atoms: C_23  and  C_24
REMARK                            x       y       z     vdW  Elec       q    Type
REMARK                         _______ _______ _______ _____ _____    ______ ____
ROOT
ATOM      1  N   UNL     1       0.704   0.002   2.538  0.00  0.00    -0.269 N 
ATOM      2  C   UNL     1       0.389  -0.680   3.657  0.00  0.00    +0.305 C 
ATOM      3  O   UNL     1       0.368  -1.896   3.642  0.00  0.00    -0.252 OA
ATOM      4  N   UNL     1       0.097  -0.015   4.792  0.00  0.00    -0.290 N 
ATOM      5  H   UNL     1       0.784   0.968   2.565  0.00  0.00    +0.156 HD
ATOM      6  H   UNL     1       0.114   0.955   4.804  0.00  0.00    +0.151 HD
ENDROOT
BRANCH   1  13
ATOM      7  C   UNL     1       0.122   1.350   0.102  0.00  0.00    +0.046 C 
ATOM      8  C   UNL     1       0.644  -0.064   0.123  0.00  0.00    -0.026 A 
ATOM      9  C   UNL     1       0.858  -0.739  -1.062  0.00  0.00    +0.050 A 
ATOM     10  C   UNL     1       1.338  -2.040  -1.043  0.00  0.00    +0.122 A 
ATOM     11  C   UNL     1       1.603  -2.664   0.168  0.00  0.00    +0.047 A 
ATOM     12  C   UNL     1       1.389  -1.990   1.354  0.00  0.00    +0.027 A 
ATOM     13  C   UNL     1       0.915  -0.685   1.335  0.00  0.00    +0.038 A 
BRANCH  10  14
ATOM     14  O   UNL     1       1.549  -2.705  -2.210  0.00  0.00    -0.483 OA
BRANCH  14  15
ATOM     15  C   UNL     1       2.044  -4.042  -2.115  0.00  0.00    +0.324 C 
BRANCH  15  16
ATOM     16  C   UNL     1       2.214  -4.613  -3.499  0.00  0.00    +0.248 C 
ATOM     17  O   UNL     1       1.938  -3.942  -4.471  0.00  0.00    -0.272 OA
ATOM     18  N   UNL     1       2.673  -5.871  -3.657  0.00  0.00    -0.327 N 
ATOM     19  H   UNL     1       2.894  -6.408  -2.880  0.00  0.00    +0.145 HD
ATOM     20  H   UNL     1       2.782  -6.239  -4.548  0.00  0.00    +0.145 HD
ENDBRANCH  15  16
ENDBRANCH  14  15
ENDBRANCH  10  14
ENDBRANCH   1  13
BRANCH   4  21
ATOM     21  C   UNL     1      -0.245  -0.756   6.008  0.00  0.00    +0.056 C 
ATOM     22  C   UNL     1      -1.520  -1.567   5.770  0.00  0.00    +0.036 C 
ATOM     23  C   UNL     1       0.902  -1.703   6.368  0.00  0.00    +0.036 C 
BRANCH  21  24
ATOM     24  C   UNL     1      -0.470   0.212   7.141  0.00  0.00    -0.025 A 
ATOM     25  C   UNL     1      -1.259  -0.153   8.216  0.00  0.00    +0.007 A 
ATOM     26  C   UNL     1      -1.466   0.735   9.254  0.00  0.00    +0.020 A 
ATOM     27  C   UNL     1      -0.883   1.990   9.218  0.00  0.00    +0.041 A 
ATOM     28  C   UNL     1      -0.094   2.354   8.142  0.00  0.00    +0.020 A 
ATOM     29  C   UNL     1       0.117   1.464   7.106  0.00  0.00    +0.007 A 
ATOM     30 CL   UNL     1      -1.143   3.106  10.522  0.00  0.00    -0.084 Cl
ENDBRANCH  21  24
ENDBRANCH   4  21
TORSDOF 6
