REMARK  Name = ZINC22701420
REMARK  8 active torsions:
REMARK  status: ('A' for Active; 'I' for Inactive)
REMARK    1  A    between atoms: C_1  and  C_2
REMARK    2  A    between atoms: C_2  and  C_4
REMARK    3  A    between atoms: C_2  and  N_12
REMARK    4  A    between atoms: C_13  and  C_15
REMARK    5  A    between atoms: C_15  and  O_16
REMARK    6  A    between atoms: O_16  and  C_17
REMARK    7  A    between atoms: C_17  and  C_19
REMARK    8  A    between atoms: C_23  and  N_25
REMARK                            x       y       z     vdW  Elec       q    Type
REMARK                         _______ _______ _______ _____ _____    ______ ____
ROOT
ATOM      1  N   UNL     1       4.806   1.562  -0.035  0.00  0.00    -0.306 N 
ATOM      2  C   UNL     1       3.554   2.060  -0.021  0.00  0.00    +0.251 C 
ATOM      3  O   UNL     1       3.379   3.260  -0.013  0.00  0.00    -0.272 OA
ATOM      4  H   UNL     1       4.965   0.473  -0.043  0.00  0.00    +0.149 HD
ENDROOT
BRANCH   1   6
ATOM      5  C   UNL     1       6.264   2.893  -1.479  0.00  0.00    +0.033 C 
ATOM      6  C   UNL     1       5.956   2.470  -0.042  0.00  0.00    +0.102 C 
BRANCH   6   7
ATOM      7  C   UNL     1       7.154   1.768   0.544  0.00  0.00    -0.009 A 
ATOM      8  C   UNL     1       7.231   0.388   0.510  0.00  0.00    +0.008 A 
ATOM      9  C   UNL     1       8.332  -0.257   1.042  0.00  0.00    +0.020 A 
ATOM     10  C   UNL     1       9.352   0.479   1.618  0.00  0.00    +0.042 A 
ATOM     11  C   UNL     1       9.274   1.859   1.657  0.00  0.00    +0.040 A 
ATOM     12  C   UNL     1       8.174   2.504   1.119  0.00  0.00    +0.047 A 
ATOM     13 CL   UNL     1       8.073   4.236   1.168  0.00  0.00    -0.083 Cl
ATOM     14 CL   UNL     1      10.732  -0.331   2.291  0.00  0.00    -0.083 Cl
ENDBRANCH   6   7
ENDBRANCH   1   6
BRANCH   2  15
ATOM     15  C   UNL     1       2.371   1.126  -0.015  0.00  0.00    +0.328 C 
BRANCH  15  16
ATOM     16  O   UNL     1       1.143   1.900   0.001  0.00  0.00    -0.452 OA
BRANCH  16  17
ATOM     17  C   UNL     1      -0.014   1.211   0.009  0.00  0.00    +0.340 C 
ATOM     18  O   UNL     1       0.002  -0.004   0.002  0.00  0.00    -0.245 OA
BRANCH  17  19
ATOM     19  C   UNL     1      -1.303   1.931   0.019  0.00  0.00    +0.061 A 
ATOM     20  C   UNL     1      -1.325   3.328   0.032  0.00  0.00    +0.016 A 
ATOM     21  C   UNL     1      -2.532   3.995   0.036  0.00  0.00    +0.018 A 
ATOM     22  C   UNL     1      -3.720   3.284   0.038  0.00  0.00    +0.048 A 
ATOM     23  C   UNL     1      -3.705   1.899   0.030  0.00  0.00    +0.141 A 
ATOM     24  C   UNL     1      -2.505   1.220   0.021  0.00  0.00    +0.048 A 
ATOM     25 BR   UNL     1      -5.371   4.207   0.051  0.00  0.00    -0.048 Br
BRANCH  23  26
ATOM     26  N   UNL     1      -4.979   1.146   0.032  0.00  0.00    +0.058 N 
ATOM     27  O   UNL     1      -4.967  -0.072   0.025  0.00  0.00    -0.126 OA
ATOM     28  O   UNL     1      -6.040   1.745   0.041  0.00  0.00    -0.126 OA
ENDBRANCH  23  26
ENDBRANCH  17  19
ENDBRANCH  16  17
ENDBRANCH  15  16
ENDBRANCH   2  15
TORSDOF 7
