REMARK  Name = ZINC08713337
REMARK  7 active torsions:
REMARK  status: ('A' for Active; 'I' for Inactive)
REMARK    1  A    between atoms: C_1  and  C_2
REMARK    2  A    between atoms: C_9  and  C_14
REMARK    3  A    between atoms: C_14  and  O_16
REMARK    4  A    between atoms: O_16  and  C_17
REMARK    5  A    between atoms: C_17  and  C_19
REMARK    6  A    between atoms: C_17  and  C_20
REMARK    7  A    between atoms: N_22  and  C_23
REMARK                            x       y       z     vdW  Elec       q    Type
REMARK                         _______ _______ _______ _____ _____    ______ ____
ROOT
ATOM      1  O   UNL     1      -1.360  -0.507  -0.009  0.00  0.00    -0.449 OA
ENDROOT
BRANCH   1   2
ATOM      2  C   UNL     1      -1.566  -1.704   0.575  0.00  0.00    +0.340 C 
ATOM      3  O   UNL     1      -0.634  -2.311   1.064  0.00  0.00    -0.245 OA
BRANCH   2  11
ATOM      4  C   UNL     1      -8.002  -6.603   1.166  0.00  0.00    +0.029 C 
ATOM      5  C   UNL     1      -6.753  -5.837   0.725  0.00  0.00    +0.134 C 
ATOM      6  C   UNL     1      -5.622  -6.127   1.674  0.00  0.00    +0.230 C 
ATOM      7  O   UNL     1      -5.640  -7.176   2.282  0.00  0.00    -0.274 OA
ATOM      8  N   UNL     1      -4.604  -5.297   1.883  0.00  0.00    -0.284 N 
ATOM      9  C   UNL     1      -4.409  -4.061   1.271  0.00  0.00    +0.048 A 
ATOM     10  C   UNL     1      -3.135  -3.520   1.222  0.00  0.00    +0.039 A 
ATOM     11  C   UNL     1      -2.923  -2.277   0.621  0.00  0.00    +0.061 A 
ATOM     12  C   UNL     1      -3.995  -1.578   0.058  0.00  0.00    +0.016 A 
ATOM     13  C   UNL     1      -5.262  -2.117   0.101  0.00  0.00    +0.017 A 
ATOM     14  C   UNL     1      -5.472  -3.352   0.701  0.00  0.00    +0.030 A 
ATOM     15  S   UNL     1      -7.093  -4.050   0.749  0.00  0.00    -0.111 S 
ATOM     16  H   UNL     1      -3.932  -5.580   2.523  0.00  0.00    +0.155 HD
ENDBRANCH   2  11
ENDBRANCH   1   2
BRANCH   1  17
ATOM     17  C   UNL     1       0.003  -0.004  -0.018  0.00  0.00    +0.259 C 
ATOM     18  C   UNL     1       0.716  -0.484  -1.284  0.00  0.00    +0.062 C 
BRANCH  17  19
ATOM     19  C   UNL     1      -0.018   1.502   0.006  0.00  0.00    +0.258 C 
ATOM     20  O   UNL     1      -1.077   2.094   0.023  0.00  0.00    -0.271 OA
ATOM     21  N   UNL     1       1.139   2.192   0.003  0.00  0.00    -0.281 N 
ATOM     22  H   UNL     1       1.985   1.722   0.069  0.00  0.00    +0.155 HD
BRANCH  21  23
ATOM     23  C   UNL     1       1.122   3.589  -0.095  0.00  0.00    +0.053 A 
ATOM     24  C   UNL     1       0.043   4.231  -0.687  0.00  0.00    +0.046 A 
ATOM     25  C   UNL     1       0.026   5.610  -0.779  0.00  0.00    +0.061 A 
ATOM     26  C   UNL     1       1.089   6.351  -0.289  0.00  0.00    +0.061 A 
ATOM     27  C   UNL     1       2.168   5.713   0.297  0.00  0.00    +0.043 A 
ATOM     28  C   UNL     1       2.187   4.335   0.395  0.00  0.00    +0.064 A 
ATOM     29 CL   UNL     1       3.541   3.535   1.131  0.00  0.00    -0.082 Cl
ATOM     30 CL   UNL     1       1.067   8.082  -0.411  0.00  0.00    -0.082 Cl
ATOM     31 CL   UNL     1      -1.326   6.414  -1.514  0.00  0.00    -0.082 Cl
ENDBRANCH  21  23
ENDBRANCH  17  19
ENDBRANCH   1  17
TORSDOF 5
