REMARK  Name = ZINC44174088
REMARK  8 active torsions:
REMARK  status: ('A' for Active; 'I' for Inactive)
REMARK    1  A    between atoms: C_1  and  C_2
REMARK    2  A    between atoms: C_5  and  N_9
REMARK    3  A    between atoms: C_14  and  C_29
REMARK    4  A    between atoms: C_17  and  C_22
REMARK    5  A    between atoms: C_17  and  C_26
REMARK    6  A    between atoms: C_22  and  C_24
REMARK    7  A    between atoms: C_22  and  O_25
REMARK    8  A    between atoms: C_30  and  C_31
REMARK                            x       y       z     vdW  Elec       q    Type
REMARK                         _______ _______ _______ _____ _____    ______ ____
ROOT
ATOM      1  N   UNL     1       0.039  -4.176  -0.032  0.00  0.00    -0.210 N 
ATOM      2  C   UNL     1       0.050  -4.933  -1.177  0.00  0.00    +0.229 C 
ATOM      3  O   UNL     1       0.259  -4.557  -2.310  0.00  0.00    -0.275 OA
ATOM      4  C   UNL     1      -0.240  -6.275  -0.734  0.00  0.00    +0.077 C 
ATOM      5  C   UNL     1      -0.091  -7.673  -1.171  0.00  0.00    -0.034 C 
ATOM      6  N   UNL     1      -0.464  -8.433   0.072  0.00  0.00    +0.397 N 
ATOM      7  C   UNL     1      -0.249  -7.529   1.242  0.00  0.00    +0.074 C 
ATOM      8  C   UNL     1       0.489  -6.310   0.668  0.00  0.00    +0.089 C 
ATOM      9  C   UNL     1       0.063  -4.936   1.104  0.00  0.00    +0.229 C 
ATOM     10  O   UNL     1      -0.206  -4.577   2.230  0.00  0.00    -0.275 OA
ATOM     11  H   UNL     1      -1.433  -8.708   0.026  0.00  0.00    -0.083 HD
ATOM     12  H   UNL     1       0.120  -9.251   0.161  0.00  0.00    -0.083 HD
ENDROOT
BRANCH   1  17
ATOM     13  C   UNL     1      -0.075   1.499  -0.019  0.00  0.00    +0.045 C 
ATOM     14  C   UNL     1      -0.045  -0.007  -0.022  0.00  0.00    -0.032 A 
ATOM     15  C   UNL     1      -0.040  -0.695  -1.222  0.00  0.00    +0.006 A 
ATOM     16  C   UNL     1      -0.012  -2.076  -1.228  0.00  0.00    +0.024 A 
ATOM     17  C   UNL     1       0.011  -2.774  -0.028  0.00  0.00    +0.045 A 
ATOM     18  C   UNL     1       0.007  -2.082   1.175  0.00  0.00    +0.044 A 
ATOM     19  C   UNL     1      -0.016  -0.700   1.176  0.00  0.00    +0.046 A 
ATOM     20 CL   UNL     1      -0.015   0.167   2.679  0.00  0.00    -0.083 Cl
ENDBRANCH   1  17
BRANCH   7  21
ATOM     21  C   UNL     1       0.613  -8.207   2.275  0.00  0.00    +0.349 C 
ATOM     22  O   UNL     1       1.001  -9.349   2.091  0.00  0.00    -0.248 OA
ATOM     23  O   UNL     1       0.922  -7.615   3.295  0.00  0.00    -0.248 OA
ENDBRANCH   7  21
BRANCH   7  24
ATOM     24  C   UNL     1      -1.593  -7.126   1.853  0.00  0.00    +0.112 C 
ATOM     25  C   UNL     1      -2.321  -8.376   2.352  0.00  0.00    +0.037 C 
BRANCH  24  26
ATOM     26  O   UNL     1      -1.370  -6.235   2.948  0.00  0.00    -0.393 OA
ATOM     27  H   UNL     1      -0.835  -6.613   3.659  0.00  0.00    +0.210 HD
ENDBRANCH  24  26
ENDBRANCH   7  24
BRANCH   5  28
ATOM     28  C   UNL     1       1.333  -7.963  -1.572  0.00  0.00    -0.041 C 
ATOM     29  C   UNL     1       1.596  -8.454  -2.775  0.00  0.00    +0.002 C 
BRANCH  29  30
ATOM     30  C   UNL     1       2.976  -8.849  -3.126  0.00  0.00    -0.025 A 
ATOM     31  C   UNL     1       4.004  -8.711  -2.192  0.00  0.00    +0.008 A 
ATOM     32  C   UNL     1       5.290  -9.082  -2.526  0.00  0.00    +0.001 A 
ATOM     33  C   UNL     1       5.562  -9.588  -3.784  0.00  0.00    +0.000 A 
ATOM     34  C   UNL     1       4.548  -9.727  -4.715  0.00  0.00    +0.001 A 
ATOM     35  C   UNL     1       3.257  -9.366  -4.391  0.00  0.00    +0.008 A 
ENDBRANCH  29  30
ENDBRANCH   5  28
TORSDOF 6
