REMARK  Name = ZINC14743946
REMARK  7 active torsions:
REMARK  status: ('A' for Active; 'I' for Inactive)
REMARK    1  A    between atoms: C_1  and  C_2
REMARK    2  A    between atoms: C_2  and  N_3
REMARK    3  A    between atoms: C_6  and  C_8
REMARK    4  A    between atoms: C_17  and  N_63
REMARK    5  A    between atoms: C_21  and  C_22
REMARK    6  A    between atoms: C_21  and  N_63
REMARK    7  A    between atoms: C_22  and  O_28
REMARK                            x       y       z     vdW  Elec       q    Type
REMARK                         _______ _______ _______ _____ _____    ______ ____
ROOT
ATOM      1  N   UNL     1       0.146   0.959   2.322  0.00  0.00    -0.268 N 
ATOM      2  C   UNL     1      -0.296  -0.046   3.097  0.00  0.00    +0.043 A 
ATOM      3  C   UNL     1       0.475  -0.061   4.212  0.00  0.00    +0.004 A 
ATOM      4  C   UNL     1       1.390   0.994   4.064  0.00  0.00    +0.151 A 
ATOM      5  N   UNL     1       1.128   1.561   2.899  0.00  0.00    -0.166 NA
ATOM      6  C   UNL     1       0.321  -1.040   5.343  0.00  0.00    +0.023 C 
ATOM      7  C   UNL     1      -0.528  -2.219   4.848  0.00  0.00    -0.067 C 
ATOM      8  C   UNL     1      -1.791  -1.688   4.166  0.00  0.00    -0.009 C 
ATOM      9  C   UNL     1      -1.417  -1.019   2.837  0.00  0.00    +0.054 C 
ENDROOT
BRANCH   4  10
ATOM     10  C   UNL     1       2.441   1.392   5.023  0.00  0.00    +0.267 C 
ATOM     11  O   UNL     1       2.651   0.714   6.010  0.00  0.00    -0.268 OA
ATOM     12  N   UNL     1       3.166   2.507   4.803  0.00  0.00    -0.296 N 
ATOM     13  C   UNL     1       2.829   3.414   3.697  0.00  0.00    +0.108 C 
ATOM     14  C   UNL     1       2.662   4.832   4.262  0.00  0.00    +0.019 C 
ATOM     15  C   UNL     1       3.927   5.221   5.030  0.00  0.00    +0.003 C 
ATOM     16  C   UNL     1       4.132   4.258   6.202  0.00  0.00    +0.019 C 
ATOM     17  C   UNL     1       4.312   2.836   5.662  0.00  0.00    +0.108 C 
ENDBRANCH   4  10
BRANCH   7  18
ATOM     18  N   UNL     1      -0.907  -3.060   5.999  0.00  0.00    +0.383 N 
ATOM     19  H   UNL     1      -1.751  -2.674   6.438  0.00  0.00    -0.085 HD
ATOM     20  H   UNL     1      -0.139  -3.067   6.681  0.00  0.00    -0.085 HD
BRANCH  18  21
ATOM     21  C   UNL     1      -1.177  -4.441   5.557  0.00  0.00    -0.047 C 
BRANCH  21  22
ATOM     22  C   UNL     1      -1.566  -5.289   6.770  0.00  0.00    +0.051 C 
ATOM     23  C   UNL     1      -0.473  -5.187   7.835  0.00  0.00    +0.033 C 
ATOM     24  C   UNL     1      -0.863  -6.035   9.048  0.00  0.00    +0.003 C 
ATOM     25  C   UNL     1      -1.023  -7.495   8.620  0.00  0.00    +0.000 C 
ATOM     26  C   UNL     1      -2.117  -7.596   7.555  0.00  0.00    +0.003 C 
ATOM     27  C   UNL     1      -1.727  -6.749   6.342  0.00  0.00    +0.033 C 
BRANCH  22  28
ATOM     28  O   UNL     1      -2.801  -4.811   7.308  0.00  0.00    -0.390 OA
ATOM     29  H   UNL     1      -2.773  -3.890   7.601  0.00  0.00    +0.210 HD
ENDBRANCH  22  28
ENDBRANCH  21  22
ENDBRANCH  18  21
ENDBRANCH   7  18
BRANCH   1  31
ATOM     30  C   UNL     1       0.322   0.548  -0.082  0.00  0.00    +0.029 C 
ATOM     31  C   UNL     1      -0.411   1.320   1.017  0.00  0.00    +0.140 C 
ENDBRANCH   1  31
TORSDOF 6
