REMARK  Name = ZINC65372287
REMARK  8 active torsions:
REMARK  status: ('A' for Active; 'I' for Inactive)
REMARK    1  A    between atoms: C_1  and  C_2
REMARK    2  A    between atoms: C_7  and  N_8
REMARK    3  A    between atoms: C_9  and  C_18
REMARK    4  A    between atoms: C_12  and  C_15
REMARK    5  A    between atoms: C_15  and  C_16
REMARK    6  A    between atoms: C_15  and  C_17
REMARK    7  A    between atoms: C_20  and  C_26
REMARK    8  A    between atoms: C_24  and  C_25
REMARK                            x       y       z     vdW  Elec       q    Type
REMARK                         _______ _______ _______ _____ _____    ______ ____
ROOT
ATOM      1  N   UNL     1       0.032   0.098   3.028  0.00  0.00    -0.244 N 
ATOM      2  C   UNL     1      -1.089  -0.199   3.934  0.00  0.00    +0.191 C 
ATOM      3  N   UNL     1      -0.891   0.658   5.129  0.00  0.00    -0.277 NA
ATOM      4  C   UNL     1       0.564   0.969   5.067  0.00  0.00    +0.143 C 
ATOM      5  N   UNL     1       0.810   1.071   3.608  0.00  0.00    -0.221 NA
ATOM      6  H   UNL     1      -1.444   1.500   5.066  0.00  0.00    +0.126 HD
ATOM      7  H   UNL     1       1.786   0.928   3.395  0.00  0.00    +0.146 HD
ENDROOT
BRANCH   2   8
ATOM      8  C   UNL     1      -2.398   0.135   3.266  0.00  0.00    +0.009 A 
ATOM      9  C   UNL     1      -2.693   1.458   2.935  0.00  0.00    +0.032 A 
ATOM     10  C   UNL     1      -3.908   1.744   2.318  0.00  0.00    +0.116 A 
ATOM     11  C   UNL     1      -4.806   0.678   2.047  0.00  0.00    +0.266 A 
ATOM     12  O   UNL     1      -5.876   0.902   1.508  0.00  0.00    -0.267 OA
ATOM     13  N   UNL     1      -4.472  -0.581   2.388  0.00  0.00    -0.325 N 
ATOM     14  C   UNL     1      -3.285  -0.852   2.983  0.00  0.00    +0.022 A 
ATOM     15  C   UNL     1      -2.946  -2.276   3.342  0.00  0.00    +0.064 C 
ATOM     16  H   UNL     1      -5.089  -1.306   2.201  0.00  0.00    +0.169 HD
BRANCH  10  17
ATOM     17  C   UNL     1      -4.247   3.090   1.964  0.00  0.00    +0.105 C 
ATOM     18  N   UNL     1      -4.515   4.157   1.682  0.00  0.00    -0.191 NA
ENDBRANCH  10  17
ENDBRANCH   2   8
BRANCH   1  25
ATOM     19  C   UNL     1       0.324   1.760   0.701  0.00  0.00    +0.047 C 
ATOM     20  C   UNL     1       0.416   0.257   0.640  0.00  0.00    -0.012 A 
ATOM     21  C   UNL     1       0.654  -0.381  -0.559  0.00  0.00    +0.087 A 
ATOM     22  N   UNL     1       0.736  -1.697  -0.621  0.00  0.00    -0.367 N 
ATOM     23  C   UNL     1       0.596  -2.456   0.451  0.00  0.00    +0.084 A 
ATOM     24  C   UNL     1       0.356  -1.895   1.687  0.00  0.00    +0.042 A 
ATOM     25  C   UNL     1       0.267  -0.508   1.797  0.00  0.00    +0.052 A 
ATOM     26  H   UNL     1       0.903  -2.119  -1.478  0.00  0.00    +0.165 HD
ENDBRANCH   1  25
BRANCH   4  27
ATOM     27  C   UNL     1       0.867   2.294   5.769  0.00  0.00    +0.016 C 
ATOM     28  C   UNL     1       0.444   2.202   7.237  0.00  0.00    +0.010 C 
ATOM     29  C   UNL     1       2.367   2.583   5.688  0.00  0.00    +0.010 C 
ENDBRANCH   4  27
TORSDOF 4
