REMARK  Name = ZINC13685106
REMARK  4 active torsions:
REMARK  status: ('A' for Active; 'I' for Inactive)
REMARK    1  A    between atoms: C_1  and  C_2
REMARK    2  A    between atoms: C_2  and  C_3
REMARK    3  A    between atoms: C_2  and  C_4
REMARK    4  A    between atoms: N_12  and  C_15
REMARK                            x       y       z     vdW  Elec       q    Type
REMARK                         _______ _______ _______ _____ _____    ______ ____
ROOT
ATOM      1  C   UNL     1       0.695  -0.501  -1.164  0.00  0.00    +0.070 C 
ATOM      2  C   UNL     1       0.625  -2.032  -1.343  0.00  0.00    +0.107 C 
ATOM      3  C   UNL     1       0.440  -2.247  -2.871  0.00  0.00    +0.121 C 
ATOM      4  C   UNL     1      -0.931  -2.877  -2.970  0.00  0.00    +0.233 C 
ATOM      5  O   UNL     1      -1.470  -3.224  -3.999  0.00  0.00    -0.274 OA
ATOM      6  N   UNL     1      -1.458  -2.992  -1.746  0.00  0.00    -0.210 N 
ATOM      7  C   UNL     1      -0.664  -2.548  -0.745  0.00  0.00    +0.232 C 
ATOM      8  O   UNL     1      -0.933  -2.556   0.438  0.00  0.00    -0.274 OA
ATOM      9  C   UNL     1       0.414  -0.832  -3.460  0.00  0.00    +0.118 C 
ATOM     10  N   UNL     1      -0.005   0.057  -2.351  0.00  0.00    -0.296 NA
ATOM     11  C   UNL     1      -0.537  -0.734  -4.617  0.00  0.00    +0.005 A 
ATOM     12  C   UNL     1      -1.891  -0.956  -4.750  0.00  0.00    +0.008 A 
ATOM     13  C   UNL     1      -2.504  -0.780  -5.977  0.00  0.00    +0.000 A 
ATOM     14  C   UNL     1      -1.756  -0.380  -7.070  0.00  0.00    +0.002 A 
ATOM     15  C   UNL     1      -0.401  -0.156  -6.941  0.00  0.00    +0.026 A 
ATOM     16  C   UNL     1       0.223  -0.332  -5.708  0.00  0.00    +0.057 A 
ATOM     17  N   UNL     1       1.568  -0.166  -5.339  0.00  0.00    -0.262 N 
ATOM     18  C   UNL     1       1.761  -0.446  -4.019  0.00  0.00    +0.143 A 
ATOM     19  N   UNL     1       2.925  -0.367  -3.439  0.00  0.00    -0.231 NA
ATOM     20  C   UNL     1       4.041   0.003  -4.110  0.00  0.00    +0.078 A 
ATOM     21  C   UNL     1       5.285   0.083  -3.481  0.00  0.00    +0.028 A 
ATOM     22  C   UNL     1       6.392   0.464  -4.205  0.00  0.00    +0.002 A 
ATOM     23  C   UNL     1       6.288   0.770  -5.556  0.00  0.00    +0.001 A 
ATOM     24  C   UNL     1       5.072   0.698  -6.199  0.00  0.00    +0.015 A 
ATOM     25  C   UNL     1       3.939   0.314  -5.484  0.00  0.00    +0.065 A 
ATOM     26  C   UNL     1       2.616   0.218  -6.114  0.00  0.00    +0.266 A 
ATOM     27  O   UNL     1       2.464   0.474  -7.294  0.00  0.00    -0.267 OA
ATOM     28  H   UNL     1      -1.006   0.042  -2.222  0.00  0.00    +0.123 HD
ENDROOT
BRANCH   6  29
ATOM     29  C   UNL     1      -2.730  -3.535  -1.515  0.00  0.00    +0.044 A 
ATOM     30  C   UNL     1      -2.964  -4.883  -1.753  0.00  0.00    +0.025 A 
ATOM     31  C   UNL     1      -4.217  -5.416  -1.525  0.00  0.00    +0.022 A 
ATOM     32  C   UNL     1      -5.240  -4.607  -1.059  0.00  0.00    +0.041 A 
ATOM     33  C   UNL     1      -5.009  -3.264  -0.822  0.00  0.00    +0.022 A 
ATOM     34  C   UNL     1      -3.755  -2.728  -1.042  0.00  0.00    +0.025 A 
ATOM     35 CL   UNL     1      -6.814  -5.280  -0.773  0.00  0.00    -0.084 Cl
ENDBRANCH   6  29
BRANCH   1  37
ATOM     36  C   UNL     1       0.780  -0.564   1.332  0.00  0.00    +0.009 C 
ATOM     37  C   UNL     1      -0.022  -0.082   0.122  0.00  0.00    +0.001 C 
ATOM     38  C   UNL     1      -0.144   1.442   0.164  0.00  0.00    +0.009 C 
ENDBRANCH   1  37
TORSDOF 2
