REMARK  Name = ZINC20764309
REMARK  10 active torsions:
REMARK  status: ('A' for Active; 'I' for Inactive)
REMARK    1  A    between atoms: C_1  and  C_2
REMARK    2  A    between atoms: C_2  and  C_3
REMARK    3  A    between atoms: C_6  and  C_9
REMARK    4  A    between atoms: C_11  and  C_27
REMARK    5  A    between atoms: C_14  and  C_17
REMARK    6  A    between atoms: C_21  and  O_24
REMARK    7  A    between atoms: C_22  and  O_23
REMARK    8  A    between atoms: O_24  and  C_25
REMARK    9  A    between atoms: C_25  and  C_26
REMARK   10  A    between atoms: C_30  and  C_33
REMARK                            x       y       z     vdW  Elec       q    Type
REMARK                         _______ _______ _______ _____ _____    ______ ____
ROOT
ATOM      1  C   UNL     1      -2.950   3.273   1.499  0.00  0.00    +0.040 C 
ATOM      2  N   UNL     1      -3.207   4.074   0.536  0.00  0.00    -0.299 NA
ATOM      3  C   UNL     1      -2.456   4.121  -0.713  0.00  0.00    +0.081 C 
ATOM      4  N   UNL     1      -1.155   3.459  -0.560  0.00  0.00    +0.401 N 
ATOM      5  C   UNL     1      -1.332   2.117   0.020  0.00  0.00    -0.028 C 
ATOM      6  C   UNL     1      -1.822   2.279   1.462  0.00  0.00    +0.044 C 
ATOM      7  H   UNL     1      -0.673   3.366  -1.544  0.00  0.00    -0.081 HD
ATOM      8  H   UNL     1      -0.515   4.057   0.106  0.00  0.00    -0.081 HD
ENDROOT
BRANCH   1  12
ATOM      9  C   UNL     1      -5.396   3.427   4.966  0.00  0.00    -0.048 A 
ATOM     10  C   UNL     1      -5.648   4.280   3.907  0.00  0.00    +0.004 A 
ATOM     11  C   UNL     1      -4.857   4.236   2.778  0.00  0.00    +0.010 A 
ATOM     12  C   UNL     1      -3.800   3.326   2.705  0.00  0.00    -0.004 A 
ATOM     13  C   UNL     1      -3.554   2.464   3.775  0.00  0.00    +0.010 A 
ATOM     14  C   UNL     1      -4.350   2.523   4.901  0.00  0.00    +0.004 A 
BRANCH   9  16
ATOM     15  C   UNL     1      -7.442   2.518   6.033  0.00  0.00    +0.009 C 
ATOM     16  C   UNL     1      -6.264   3.481   6.197  0.00  0.00    +0.032 C 
ENDBRANCH   9  16
ENDBRANCH   1  12
BRANCH   5  17
ATOM     17  C   UNL     1      -0.017   1.381   0.010  0.00  0.00    -0.016 A 
ATOM     18  C   UNL     1       1.171   2.089   0.002  0.00  0.00    +0.006 A 
ATOM     19  C   UNL     1       2.379   1.417  -0.013  0.00  0.00    +0.004 A 
ATOM     20  C   UNL     1       2.405   0.035  -0.021  0.00  0.00    +0.049 A 
ATOM     21  C   UNL     1       1.218  -0.680  -0.013  0.00  0.00    +0.162 A 
ATOM     22  C   UNL     1       0.002  -0.004   0.002  0.00  0.00    +0.160 A 
BRANCH  22  23
ATOM     23  O   UNL     1      -1.165  -0.702   0.009  0.00  0.00    -0.503 OA
ATOM     24  H   UNL     1      -1.149  -1.801   0.003  0.00  0.00    +0.292 HD
ENDBRANCH  22  23
BRANCH  21  25
ATOM     25  O   UNL     1       1.242  -2.040  -0.020  0.00  0.00    -0.489 OA
BRANCH  25  26
ATOM     26  C   UNL     1       2.526  -2.667  -0.036  0.00  0.00    +0.226 C 
ATOM     27  C   UNL     1       2.352  -4.187  -0.042  0.00  0.00    +0.048 C 
ENDBRANCH  25  26
ENDBRANCH  21  25
ENDBRANCH   5  17
BRANCH   3  28
ATOM     28  C   UNL     1      -3.244   3.424  -1.792  0.00  0.00    -0.040 A 
ATOM     29  C   UNL     1      -2.586   2.815  -2.844  0.00  0.00    +0.004 A 
ATOM     30  C   UNL     1      -3.308   2.172  -3.832  0.00  0.00    +0.012 A 
ATOM     31  C   UNL     1      -4.689   2.146  -3.772  0.00  0.00    +0.055 A 
ATOM     32  C   UNL     1      -5.347   2.760  -2.723  0.00  0.00    +0.012 A 
ATOM     33  C   UNL     1      -4.625   3.398  -1.733  0.00  0.00    +0.004 A 
BRANCH  31  34
ATOM     34  C   UNL     1      -5.476   1.449  -4.852  0.00  0.00    +0.417 C 
ATOM     35  F   UNL     1      -5.770   2.357  -5.875  0.00  0.00    -0.166 F 
ATOM     36  F   UNL     1      -4.722   0.391  -5.370  0.00  0.00    -0.166 F 
ATOM     37  F   UNL     1      -6.668   0.952  -4.313  0.00  0.00    -0.166 F 
ENDBRANCH  31  34
ENDBRANCH   3  28
TORSDOF 8
