REMARK  Name = ZINC39738100
REMARK  6 active torsions:
REMARK  status: ('A' for Active; 'I' for Inactive)
REMARK    1  A    between atoms: C_7  and  S_31
REMARK    2  A    between atoms: C_9  and  N_12
REMARK    3  A    between atoms: C_10  and  O_11
REMARK    4  A    between atoms: N_13  and  C_14
REMARK    5  A    between atoms: C_17  and  C_20
REMARK    6  A    between atoms: C_21  and  C_22
REMARK                            x       y       z     vdW  Elec       q    Type
REMARK                         _______ _______ _______ _____ _____    ______ ____
ROOT
ATOM      1  C   UNL     1       6.448  -6.197  -0.350  0.00  0.00    +0.086 A 
ATOM      2  C   UNL     1       7.552  -5.438   0.052  0.00  0.00    +0.030 A 
ATOM      3  C   UNL     1       8.752  -6.047   0.282  0.00  0.00    +0.010 A 
ATOM      4  C   UNL     1       8.879  -7.429   0.114  0.00  0.00    -0.025 A 
ATOM      5  C   UNL     1       7.777  -8.188  -0.289  0.00  0.00    +0.010 A 
ATOM      6  C   UNL     1       6.574  -7.581  -0.513  0.00  0.00    +0.030 A 
ENDROOT
BRANCH   1   8
ATOM      7  N   UNL     1       5.132  -4.313  -0.429  0.00  0.00    -0.146 NA
ATOM      8  N   UNL     1       5.247  -5.589  -0.579  0.00  0.00    -0.149 NA
BRANCH   7  17
ATOM      9  C   UNL     1       0.103  -0.537  -1.214  0.00  0.00    +0.001 A 
ATOM     10  C   UNL     1       1.189   0.241  -0.819  0.00  0.00    +0.001 A 
ATOM     11  C   UNL     1       2.405  -0.324  -0.581  0.00  0.00    +0.012 A 
ATOM     12  C   UNL     1       2.569  -1.710  -0.734  0.00  0.00    +0.028 A 
ATOM     13  C   UNL     1       1.464  -2.502  -1.135  0.00  0.00    +0.013 A 
ATOM     14  C   UNL     1       0.226  -1.884  -1.372  0.00  0.00    +0.010 A 
ATOM     15  C   UNL     1       1.621  -3.893  -1.290  0.00  0.00    +0.130 A 
ATOM     16  C   UNL     1       2.824  -4.475  -1.058  0.00  0.00    +0.063 A 
ATOM     17  C   UNL     1       3.934  -3.706  -0.658  0.00  0.00    +0.130 A 
ATOM     18  C   UNL     1       3.813  -2.326  -0.494  0.00  0.00    +0.152 A 
BRANCH  15  19
ATOM     19  S   UNL     1       0.250  -4.881  -1.789  0.00  0.00    +0.140 S 
ATOM     20  O   UNL     1       0.170  -4.792  -3.239  0.00  0.00    -0.140 OA
ATOM     21  O   UNL     1       0.523  -6.239  -1.343  0.00  0.00    -0.140 OA
ATOM     22  O   UNL     1      -0.928  -4.324  -1.145  0.00  0.00    -0.043 OA
ENDBRANCH  15  19
BRANCH  18  23
ATOM     23  O   UNL     1       4.882  -1.585  -0.111  0.00  0.00    -0.504 OA
ATOM     24  H   UNL     1       4.970  -1.489   0.848  0.00  0.00    +0.292 HD
ENDBRANCH  18  23
ENDBRANCH   7  17
ENDBRANCH   1   8
BRANCH   4  25
ATOM     25  C   UNL     1      10.177  -8.087   0.362  0.00  0.00    +0.007 C 
ATOM     26  C   UNL     1      10.216  -9.278   0.946  0.00  0.00    +0.020 C 
BRANCH  26  27
ATOM     27  C   UNL     1       8.958  -9.878   1.519  0.00  0.00    +0.198 C 
ATOM     28  N   UNL     1       9.195 -10.323   2.898  0.00  0.00    -0.360 N 
ATOM     29  C   UNL     1       8.982 -11.607   2.936  0.00  0.00    +0.060 A 
ATOM     30  C   UNL     1       9.056 -12.600   4.016  0.00  0.00    +0.027 A 
ATOM     31  C   UNL     1       8.774 -13.892   3.753  0.00  0.00    +0.002 A 
ATOM     32  C   UNL     1       8.405 -14.341   2.473  0.00  0.00    +0.002 A 
ATOM     33  C   UNL     1       8.308 -13.514   1.412  0.00  0.00    +0.027 A 
ATOM     34  C   UNL     1       8.592 -12.083   1.581  0.00  0.00    +0.060 A 
ATOM     35  N   UNL     1       8.579 -11.075   0.757  0.00  0.00    -0.360 N 
ATOM     36  H   UNL     1       9.461  -9.763   3.644  0.00  0.00    +0.162 HD
ATOM     37  H   UNL     1       8.358 -11.108  -0.187  0.00  0.00    +0.162 HD
ENDBRANCH  26  27
ENDBRANCH   4  25
TORSDOF 6
