REMARK  Name = ZINC65178454
REMARK  9 active torsions:
REMARK  status: ('A' for Active; 'I' for Inactive)
REMARK    1  A    between atoms: C_1  and  C_2
REMARK    2  A    between atoms: C_2  and  C_3
REMARK    3  A    between atoms: C_2  and  C_4
REMARK    4  A    between atoms: C_4  and  N_5
REMARK    5  A    between atoms: N_8  and  N_9
REMARK    6  A    between atoms: C_10  and  C_12
REMARK    7  A    between atoms: C_12  and  N_13
REMARK    8  A    between atoms: N_13  and  C_14
REMARK    9  A    between atoms: C_15  and  C_17
REMARK                            x       y       z     vdW  Elec       q    Type
REMARK                         _______ _______ _______ _____ _____    ______ ____
ROOT
ATOM      1  N   UNL     1      -1.091   0.631   5.199  0.00  0.00    -0.232 N 
ATOM      2  C   UNL     1      -1.995   0.884   6.166  0.00  0.00    +0.246 C 
ATOM      3  O   UNL     1      -1.837   0.428   7.279  0.00  0.00    -0.273 OA
ATOM      4  H   UNL     1      -1.217   0.996   4.310  0.00  0.00    +0.173 HD
ENDROOT
BRANCH   1   8
ATOM      5  N   UNL     1       0.760   0.095   3.276  0.00  0.00    -0.298 N 
ATOM      6  C   UNL     1       0.936  -0.412   4.513  0.00  0.00    +0.316 C 
ATOM      7  O   UNL     1       1.910  -1.098   4.756  0.00  0.00    -0.251 OA
ATOM      8  N   UNL     1       0.031  -0.159   5.479  0.00  0.00    -0.218 N 
ATOM      9  H   UNL     1      -0.017   0.642   3.083  0.00  0.00    +0.150 HD
ATOM     10  H   UNL     1       0.158  -0.524   6.369  0.00  0.00    +0.174 HD
BRANCH   5  11
ATOM     11  C   UNL     1       1.743  -0.180   2.225  0.00  0.00    +0.108 C 
BRANCH  11  13
ATOM     12  C   UNL     1       1.338   2.025   1.123  0.00  0.00    +0.009 C 
ATOM     13  C   UNL     1       1.310   0.508   0.929  0.00  0.00    -0.000 C 
ATOM     14  C   UNL     1       2.268   0.119  -0.199  0.00  0.00    +0.009 C 
ENDBRANCH  11  13
ENDBRANCH   5  11
ENDBRANCH   1   8
BRANCH   2  15
ATOM     15  C   UNL     1      -3.203   1.734   5.865  0.00  0.00    +0.205 C 
BRANCH  15  16
ATOM     16  N   UNL     1      -4.025   1.859   7.071  0.00  0.00    -0.289 N 
ATOM     17  C   UNL     1      -3.788   2.960   8.008  0.00  0.00    +0.133 C 
ATOM     18  C   UNL     1      -4.999   0.962   7.318  0.00  0.00    +0.282 C 
ATOM     19  O   UNL     1      -5.133  -0.006   6.592  0.00  0.00    -0.267 OA
BRANCH  18  20
ATOM     20  C   UNL     1      -5.897   1.151   8.460  0.00  0.00    +0.191 A 
ATOM     21  C   UNL     1      -6.842   0.264   8.895  0.00  0.00    +0.056 A 
ATOM     22  C   UNL     1      -7.464   0.849  10.007  0.00  0.00    +0.058 A 
ATOM     23  C   UNL     1      -6.879   2.054  10.203  0.00  0.00    +0.171 A 
ATOM     24  O   UNL     1      -5.932   2.229   9.272  0.00  0.00    -0.444 OA
ATOM     25 BR   UNL     1      -7.321   3.284  11.569  0.00  0.00    -0.008 Br
ENDBRANCH  18  20
ENDBRANCH  15  16
ENDBRANCH   2  15
TORSDOF 6
