REMARK  Name = ZINC54238085
REMARK  5 active torsions:
REMARK  status: ('A' for Active; 'I' for Inactive)
REMARK    1  A    between atoms: C_1  and  C_2
REMARK    2  A    between atoms: C_2  and  C_4
REMARK    3  A    between atoms: C_2  and  N_11
REMARK    4  A    between atoms: N_9  and  C_10
REMARK    5  A    between atoms: C_16  and  C_18
REMARK                            x       y       z     vdW  Elec       q    Type
REMARK                         _______ _______ _______ _____ _____    ______ ____
ROOT
ATOM      1  C   UNL     1       0.685  -1.046   0.840  0.00  0.00    +0.034 C 
ATOM      2  C   UNL     1      -0.079  -0.014   0.007  0.00  0.00    +0.141 C 
ENDROOT
BRANCH   2   3
ATOM      3  C   UNL     1      -1.524  -0.427  -0.102  0.00  0.00    +0.237 C 
ATOM      4  O   UNL     1      -1.902  -1.063  -1.062  0.00  0.00    -0.274 OA
ATOM      5  N   UNL     1      -2.397  -0.088   0.868  0.00  0.00    -0.239 N 
ATOM      6  C   UNL     1      -3.689  -0.457   0.771  0.00  0.00    +0.306 C 
ATOM      7  O   UNL     1      -4.068  -1.095  -0.192  0.00  0.00    -0.252 OA
ATOM      8  N   UNL     1      -4.562  -0.118   1.741  0.00  0.00    -0.302 N 
ATOM      9  C   UNL     1      -5.967  -0.519   1.635  0.00  0.00    +0.129 C 
ATOM     10  H   UNL     1      -2.094   0.421   1.637  0.00  0.00    +0.159 HD
ATOM     11  H   UNL     1      -4.259   0.391   2.509  0.00  0.00    +0.150 HD
ENDBRANCH   2   3
BRANCH   2  12
ATOM     12  N   UNL     1       0.510   0.064  -1.336  0.00  0.00    -0.282 NA
ATOM     13  C   UNL     1       0.624  -1.270  -1.939  0.00  0.00    +0.086 C 
ATOM     14  C   UNL     1       1.372  -1.167  -3.271  0.00  0.00    +0.015 C 
ATOM     15  C   UNL     1       0.609  -0.226  -4.207  0.00  0.00    +0.003 C 
ATOM     16  C   UNL     1       0.462   1.142  -3.535  0.00  0.00    +0.026 C 
ATOM     17  C   UNL     1      -0.259   0.972  -2.196  0.00  0.00    +0.120 C 
BRANCH  17  18
ATOM     18  C   UNL     1      -0.389   2.313  -1.522  0.00  0.00    +0.242 C 
ATOM     19  O   UNL     1      -1.482   2.781  -1.312  0.00  0.00    -0.299 OA
ENDBRANCH  17  18
ENDBRANCH   2  12
TORSDOF 3
