REMARK  Name = ZINC20993619
REMARK  5 active torsions:
REMARK  status: ('A' for Active; 'I' for Inactive)
REMARK    1  A    between atoms: C_1  and  C_2
REMARK    2  A    between atoms: C_3  and  C_12
REMARK    3  A    between atoms: C_5  and  C_7
REMARK    4  A    between atoms: C_12  and  N_13
REMARK    5  A    between atoms: N_13  and  C_14
REMARK                            x       y       z     vdW  Elec       q    Type
REMARK                         _______ _______ _______ _____ _____    ______ ____
ROOT
ATOM      1  N   UNL     1      -1.608  -1.194  -1.375  0.00  0.00    +0.387 N 
ATOM      2  H   UNL     1      -1.858  -0.252  -1.886  0.00  0.00    -0.084 HD
ATOM      3  H   UNL     1      -0.781  -1.690  -1.904  0.00  0.00    -0.084 HD
ENDROOT
BRANCH   1   4
ATOM      4  C   UNL     1      -2.784  -2.074  -1.409  0.00  0.00    -0.037 C 
ATOM      5  C   UNL     1      -3.547  -1.867  -2.723  0.00  0.00    -0.011 C 
ATOM      6  C   UNL     1      -4.614  -2.954  -2.871  0.00  0.00    +0.005 C 
ATOM      7  C   UNL     1      -3.936  -4.304  -3.140  0.00  0.00    +0.056 C 
ATOM      8  C   UNL     1      -2.855  -4.506  -2.108  0.00  0.00    +0.048 A 
ATOM      9  C   UNL     1      -2.342  -3.514  -1.337  0.00  0.00    -0.020 A 
ATOM     10  C   UNL     1      -1.372  -4.072  -0.506  0.00  0.00    +0.137 A 
ATOM     11  N   UNL     1      -1.298  -5.355  -0.765  0.00  0.00    -0.173 NA
ATOM     12  N   UNL     1      -2.224  -5.655  -1.775  0.00  0.00    -0.218 N 
ATOM     13  C   UNL     1      -2.454  -6.915  -2.336  0.00  0.00    +0.154 A 
ATOM     14  C   UNL     1      -1.446  -7.871  -2.316  0.00  0.00    +0.048 A 
ATOM     15  C   UNL     1      -1.689  -9.116  -2.870  0.00  0.00    +0.005 A 
ATOM     16  C   UNL     1      -2.933  -9.358  -3.436  0.00  0.00    +0.020 A 
ATOM     17  C   UNL     1      -3.886  -8.359  -3.425  0.00  0.00    +0.113 A 
ATOM     18  N   UNL     1      -3.628  -7.183  -2.885  0.00  0.00    -0.236 NA
ENDBRANCH   1   4
BRANCH   1  19
ATOM     19  C   UNL     1      -1.204  -0.907   0.008  0.00  0.00    -0.022 C 
BRANCH  19  22
ATOM     20  C   UNL     1      -1.242   2.217   0.020  0.00  0.00    +0.088 C 
ATOM     21  C   UNL     1      -0.016   1.341   0.009  0.00  0.00    +0.124 A 
ATOM     22  C   UNL     1       0.002  -0.004   0.002  0.00  0.00    +0.066 A 
ATOM     23  N   UNL     1       1.285  -0.399  -0.012  0.00  0.00    -0.215 NA
ATOM     24  C   UNL     1       2.053   0.669  -0.014  0.00  0.00    +0.234 A 
ATOM     25  O   UNL     1       1.266   1.760  -0.001  0.00  0.00    -0.440 OA
BRANCH  24  26
ATOM     26  C   UNL     1       3.523   0.669  -0.028  0.00  0.00    +0.074 A 
ATOM     27  C   UNL     1       4.394   1.743  -0.036  0.00  0.00    +0.021 A 
ATOM     28  C   UNL     1       5.746   1.489  -0.043  0.00  0.00    +0.008 A 
ATOM     29  C   UNL     1       6.180   0.202  -0.055  0.00  0.00    +0.046 A 
ATOM     30  S   UNL     1       4.649  -0.716  -0.046  0.00  0.00    -0.092 S 
ENDBRANCH  24  26
ENDBRANCH  19  22
ENDBRANCH   1  19
TORSDOF 4
