REMARK  Name = ZINC09396281
REMARK  9 active torsions:
REMARK  status: ('A' for Active; 'I' for Inactive)
REMARK    1  A    between atoms: C_1  and  C_2
REMARK    2  A    between atoms: C_6  and  C_14
REMARK    3  A    between atoms: C_12  and  C_13
REMARK    4  A    between atoms: C_14  and  S_15
REMARK    5  A    between atoms: S_15  and  C_16
REMARK    6  A    between atoms: C_19  and  C_28
REMARK    7  A    between atoms: N_20  and  C_21
REMARK    8  A    between atoms: C_28  and  C_30
REMARK    9  A    between atoms: C_28  and  N_64
REMARK                            x       y       z     vdW  Elec       q    Type
REMARK                         _______ _______ _______ _____ _____    ______ ____
ROOT
ATOM      1  C   UNL     1      -1.118   2.211   0.019  0.00  0.00    +0.196 A 
ATOM      2  N   UNL     1      -0.682   3.449   0.027  0.00  0.00    -0.122 NA
ATOM      3  N   UNL     1       0.603   3.461   0.015  0.00  0.00    -0.135 NA
ATOM      4  C   UNL     1       1.063   2.241   0.004  0.00  0.00    +0.125 A 
ATOM      5  N   UNL     1      -0.017   1.399   0.010  0.00  0.00    -0.275 N 
ENDROOT
BRANCH   5   6
ATOM      6  C   UNL     1       0.002  -0.004   0.002  0.00  0.00    +0.050 A 
ATOM      7  C   UNL     1       0.504  -0.686  -1.098  0.00  0.00    +0.029 A 
ATOM      8  C   UNL     1       0.525  -2.067  -1.102  0.00  0.00    +0.040 A 
ATOM      9  C   UNL     1       0.038  -2.771  -0.014  0.00  0.00    +0.124 A 
ATOM     10  C   UNL     1      -0.467  -2.093   1.082  0.00  0.00    +0.040 A 
ATOM     11  C   UNL     1      -0.486  -0.712   1.092  0.00  0.00    +0.029 A 
ATOM     12  F   UNL     1       0.056  -4.122  -0.021  0.00  0.00    -0.205 F 
ENDBRANCH   5   6
BRANCH   4  13
ATOM     13  C   UNL     1       2.514   1.834  -0.012  0.00  0.00    -0.002 C 
ATOM     14  C   UNL     1       3.119   2.048   1.377  0.00  0.00    -0.005 C 
BRANCH  13  20
ATOM     15  C   UNL     1       2.624   2.547  -2.323  0.00  0.00    -0.078 C 
ATOM     16  C   UNL     1       3.315   3.517  -3.284  0.00  0.00    -0.019 C 
ATOM     17  C   UNL     1       4.805   3.175  -3.364  0.00  0.00    -0.004 C 
ATOM     18  C   UNL     1       5.413   3.242  -1.960  0.00  0.00    -0.019 C 
ATOM     19  C   UNL     1       4.661   2.279  -1.037  0.00  0.00    -0.078 C 
ATOM     20  N   UNL     1       3.238   2.678  -0.984  0.00  0.00    +0.386 N 
ATOM     21  H   UNL     1       3.178   3.658  -0.685  0.00  0.00    -0.081 HD
ENDBRANCH  13  20
ENDBRANCH   4  13
BRANCH   1  22
ATOM     22  S   UNL     1      -2.802   1.692   0.023  0.00  0.00    -0.081 S 
BRANCH  22  23
ATOM     23  C   UNL     1      -3.627   3.304   0.035  0.00  0.00    +0.113 C 
BRANCH  23  29
ATOM     24  C   UNL     1      -8.114   2.758  -4.842  0.00  0.00    +0.044 C 
ATOM     25  C   UNL     1      -7.330   2.848  -3.558  0.00  0.00    -0.044 A 
ATOM     26  C   UNL     1      -5.955   3.032  -3.605  0.00  0.00    +0.004 A 
ATOM     27  C   UNL     1      -5.227   3.117  -2.452  0.00  0.00    +0.012 A 
ATOM     28  C   UNL     1      -5.873   3.016  -1.216  0.00  0.00    +0.022 A 
ATOM     29  C   UNL     1      -5.120   3.103   0.040  0.00  0.00    -0.020 A 
ATOM     30  C   UNL     1      -5.806   3.005   1.206  0.00  0.00    +0.097 A 
ATOM     31  C   UNL     1      -7.206   2.817   1.183  0.00  0.00    +0.338 A 
ATOM     32  O   UNL     1      -7.810   2.730   2.237  0.00  0.00    -0.245 OA
ATOM     33  O   UNL     1      -7.887   2.733   0.030  0.00  0.00    -0.422 OA
ATOM     34  C   UNL     1      -7.264   2.823  -1.164  0.00  0.00    +0.142 A 
ATOM     35  C   UNL     1      -7.984   2.735  -2.349  0.00  0.00    -0.005 A 
ATOM     36  C   UNL     1      -9.477   2.534  -2.314  0.00  0.00    +0.048 C 
ENDBRANCH  23  29
ENDBRANCH  22  23
ENDBRANCH   1  22
TORSDOF 6
