REMARK  Name = ZINC00639313
REMARK  11 active torsions:
REMARK  status: ('A' for Active; 'I' for Inactive)
REMARK    1  A    between atoms: C_1  and  O_2
REMARK    2  A    between atoms: O_2  and  C_3
REMARK    3  A    between atoms: C_5  and  C_18
REMARK    4  A    between atoms: C_8  and  O_9
REMARK    5  A    between atoms: O_9  and  C_10
REMARK    6  A    between atoms: C_10  and  C_11
REMARK    7  A    between atoms: C_23  and  O_34
REMARK    8  A    between atoms: C_27  and  N_33
REMARK    9  A    between atoms: C_28  and  C_29
REMARK   10  A    between atoms: C_29  and  O_31
REMARK   11  A    between atoms: O_31  and  C_32
REMARK                            x       y       z     vdW  Elec       q    Type
REMARK                         _______ _______ _______ _____ _____    ______ ____
ROOT
ATOM      1  C   UNL     1       0.204   6.026  -0.367  0.00  0.00    +0.094 C 
ATOM      2  C   UNL     1      -0.898   6.832  -1.002  0.00  0.00    +0.007 A 
ATOM      3  C   UNL     1      -1.770   6.210  -1.882  0.00  0.00    +0.012 A 
ATOM      4  C   UNL     1      -2.788   6.930  -2.477  0.00  0.00    +0.046 A 
ATOM      5  C   UNL     1      -2.938   8.281  -2.194  0.00  0.00    +0.120 A 
ATOM      6  C   UNL     1      -2.067   8.904  -1.316  0.00  0.00    +0.092 A 
ATOM      7  C   UNL     1      -1.044   8.178  -0.719  0.00  0.00    +0.138 A 
ATOM      8  O   UNL     1      -0.199   8.803   0.138  0.00  0.00    -0.441 OA
ATOM      9  C   UNL     1       0.994   8.257   0.420  0.00  0.00    +0.195 C 
ATOM     10  C   UNL     1       1.251   6.942   0.203  0.00  0.00    +0.105 C 
ENDROOT
BRANCH   1  13
ATOM     11  C   UNL     1      -0.794   3.017   1.688  0.00  0.00    +0.162 A 
ATOM     12  C   UNL     1      -0.260   3.800   0.677  0.00  0.00    +0.054 A 
ATOM     13  C   UNL     1      -0.371   5.177   0.737  0.00  0.00    -0.031 A 
ATOM     14  C   UNL     1      -1.005   5.776   1.810  0.00  0.00    +0.008 A 
ATOM     15  C   UNL     1      -1.534   5.001   2.824  0.00  0.00    +0.050 A 
ATOM     16  C   UNL     1      -1.431   3.620   2.768  0.00  0.00    +0.162 A 
BRANCH  11  18
ATOM     17  C   UNL     1      -0.022   1.113   0.490  0.00  0.00    +0.277 C 
ATOM     18  O   UNL     1      -0.690   1.663   1.627  0.00  0.00    -0.491 OA
ENDBRANCH  11  18
BRANCH  16  19
ATOM     19  O   UNL     1      -1.952   2.857   3.765  0.00  0.00    -0.484 OA
BRANCH  19  20
ATOM     20  C   UNL     1      -2.592   3.544   4.842  0.00  0.00    +0.264 C 
BRANCH  20  21
ATOM     21  C   UNL     1      -3.103   2.542   5.845  0.00  0.00    -0.010 A 
ATOM     22  C   UNL     1      -4.382   2.032   5.722  0.00  0.00    +0.008 A 
ATOM     23  C   UNL     1      -4.849   1.109   6.638  0.00  0.00    +0.020 A 
ATOM     24  C   UNL     1      -4.041   0.703   7.684  0.00  0.00    +0.041 A 
ATOM     25  C   UNL     1      -2.763   1.217   7.810  0.00  0.00    +0.020 A 
ATOM     26  C   UNL     1      -2.294   2.137   6.890  0.00  0.00    +0.008 A 
ATOM     27 CL   UNL     1      -4.629  -0.452   8.839  0.00  0.00    -0.084 Cl
ENDBRANCH  20  21
ENDBRANCH  19  20
ENDBRANCH  16  19
ENDBRANCH   1  13
BRANCH   9  28
ATOM     28  N   UNL     1       1.981   9.050   0.942  0.00  0.00    -0.329 N 
ATOM     29  H   UNL     1       2.874   8.693   1.066  0.00  0.00    +0.145 HD
ATOM     30  H   UNL     1       1.786   9.967   1.189  0.00  0.00    +0.145 HD
ENDBRANCH   9  28
BRANCH  10  31
ATOM     31  C   UNL     1       2.517   6.427   0.518  0.00  0.00    +0.341 C 
ATOM     32  O   UNL     1       3.331   6.231  -0.367  0.00  0.00    -0.245 OA
BRANCH  31  33
ATOM     33  O   UNL     1       2.834   6.150   1.801  0.00  0.00    -0.465 OA
ATOM     34  C   UNL     1       4.141   5.628   2.048  0.00  0.00    +0.280 C 
ENDBRANCH  31  33
ENDBRANCH  10  31
BRANCH   5  35
ATOM     35  O   UNL     1      -3.939   8.991  -2.778  0.00  0.00    -0.507 OA
ATOM     36  H   UNL     1      -3.693   9.397  -3.621  0.00  0.00    +0.292 HD
ENDBRANCH   5  35
TORSDOF 9
