REMARK  Name = ZINC38180251
REMARK  14 active torsions:
REMARK  status: ('A' for Active; 'I' for Inactive)
REMARK    1  A    between atoms: C_1  and  C_2
REMARK    2  A    between atoms: N_9  and  N_10
REMARK    3  A    between atoms: C_11  and  C_13
REMARK    4  A    between atoms: C_13  and  C_14
REMARK    5  A    between atoms: N_16  and  N_17
REMARK    6  A    between atoms: C_21  and  C_32
REMARK    7  A    between atoms: N_25  and  C_28
REMARK    8  A    between atoms: C_28  and  C_29
REMARK    9  A    between atoms: C_29  and  C_30
REMARK   10  A    between atoms: C_29  and  C_31
REMARK   11  A    between atoms: N_35  and  C_36
REMARK   12  A    between atoms: C_36  and  C_37
REMARK   13  A    between atoms: C_37  and  C_38
REMARK   14  A    between atoms: C_37  and  C_39
REMARK                            x       y       z     vdW  Elec       q    Type
REMARK                         _______ _______ _______ _____ _____    ______ ____
ROOT
ATOM      1  C   UNL     1       0.351  -0.014   5.931  0.00  0.00    +0.194 C 
ENDROOT
BRANCH   1   3
ATOM      2  N   UNL     1       0.148  -1.614   4.055  0.00  0.00    -0.206 N 
ATOM      3  C   UNL     1       0.253  -1.415   5.384  0.00  0.00    +0.241 C 
ATOM      4  O   UNL     1       0.270  -2.363   6.139  0.00  0.00    -0.274 OA
ATOM      5  H   UNL     1       0.135  -0.855   3.451  0.00  0.00    +0.177 HD
BRANCH   2  14
ATOM      6  C   UNL     1       1.040   1.409   0.030  0.00  0.00    +0.044 C 
ATOM      7  C   UNL     1       0.754  -0.070   0.016  0.00  0.00    -0.050 A 
ATOM      8  C   UNL     1       0.673  -0.748  -1.189  0.00  0.00    +0.005 A 
ATOM      9  C   UNL     1       0.412  -2.103  -1.218  0.00  0.00    +0.024 A 
ATOM     10  C   UNL     1       0.227  -2.803  -0.031  0.00  0.00    +0.046 A 
ATOM     11  C   UNL     1       0.310  -2.114   1.186  0.00  0.00    +0.029 A 
ATOM     12  C   UNL     1       0.580  -0.750   1.205  0.00  0.00    +0.015 A 
ATOM     13  C   UNL     1       0.072  -3.116   2.251  0.00  0.00    +0.153 C 
ATOM     14  N   UNL     1       0.058  -2.916   3.547  0.00  0.00    -0.175 NA
ATOM     15  C   UNL     1      -0.145  -4.390   1.535  0.00  0.00    +0.271 C 
ATOM     16  O   UNL     1      -0.375  -5.469   2.047  0.00  0.00    -0.268 OA
ATOM     17  N   UNL     1      -0.043  -4.145   0.218  0.00  0.00    -0.265 N 
BRANCH  17  18
ATOM     18  C   UNL     1      -0.198  -5.162  -0.825  0.00  0.00    +0.117 C 
BRANCH  18  19
ATOM     19  C   UNL     1       1.164  -5.790  -1.130  0.00  0.00    +0.001 C 
ATOM     20  C   UNL     1       1.664  -6.546   0.102  0.00  0.00    +0.009 C 
ATOM     21  C   UNL     1       1.025  -6.762  -2.304  0.00  0.00    +0.009 C 
ENDBRANCH  18  19
ENDBRANCH  17  18
ENDBRANCH   2  14
ENDBRANCH   1   3
BRANCH   1  22
ATOM     22  C   UNL     1       0.458  -0.068   7.433  0.00  0.00    +0.241 C 
ATOM     23  O   UNL     1       0.456  -1.138   8.003  0.00  0.00    -0.274 OA
ATOM     24  N   UNL     1       0.557   1.073   8.143  0.00  0.00    -0.206 N 
ATOM     25  H   UNL     1       0.559   1.929   7.687  0.00  0.00    +0.177 HD
BRANCH  24  26
ATOM     26  N   UNL     1       0.657   1.023   9.540  0.00  0.00    -0.175 NA
ATOM     27  C   UNL     1       0.752   2.134  10.230  0.00  0.00    +0.153 C 
ATOM     28  C   UNL     1       0.872   2.275  11.700  0.00  0.00    +0.029 A 
ATOM     29  C   UNL     1       0.916   1.357  12.744  0.00  0.00    +0.015 A 
ATOM     30  C   UNL     1       1.033   1.805  14.045  0.00  0.00    -0.050 A 
ATOM     31  C   UNL     1       1.106   3.163  14.307  0.00  0.00    +0.005 A 
ATOM     32  C   UNL     1       1.062   4.081  13.278  0.00  0.00    +0.024 A 
ATOM     33  C   UNL     1       0.944   3.649  11.961  0.00  0.00    +0.046 A 
ATOM     34  N   UNL     1       0.878   4.349  10.761  0.00  0.00    -0.265 N 
ATOM     35  C   UNL     1       0.772   3.517   9.712  0.00  0.00    +0.271 C 
ATOM     36  O   UNL     1       0.701   3.844   8.542  0.00  0.00    -0.268 OA
ATOM     37  C   UNL     1       1.082   0.815  15.180  0.00  0.00    +0.044 C 
BRANCH  34  38
ATOM     38  C   UNL     1       0.926   5.809  10.655  0.00  0.00    +0.117 C 
BRANCH  38  39
ATOM     39  C   UNL     1       2.380   6.263  10.507  0.00  0.00    +0.001 C 
ATOM     40  C   UNL     1       2.944   5.742   9.183  0.00  0.00    +0.009 C 
ATOM     41  C   UNL     1       2.441   7.791  10.520  0.00  0.00    +0.009 C 
ENDBRANCH  38  39
ENDBRANCH  34  38
ENDBRANCH  24  26
ENDBRANCH   1  22
TORSDOF 8
