REMARK  Name = ZINC38687429
REMARK  9 active torsions:
REMARK  status: ('A' for Active; 'I' for Inactive)
REMARK    1  A    between atoms: C_1  and  C_2
REMARK    2  A    between atoms: C_2  and  O_3
REMARK    3  A    between atoms: O_3  and  C_4
REMARK    4  A    between atoms: C_9  and  C_10
REMARK    5  A    between atoms: C_15  and  O_24
REMARK    6  A    between atoms: C_19  and  N_23
REMARK    7  A    between atoms: C_20  and  C_21
REMARK    8  A    between atoms: O_24  and  C_25
REMARK    9  A    between atoms: C_25  and  C_27
REMARK                            x       y       z     vdW  Elec       q    Type
REMARK                         _______ _______ _______ _____ _____    ______ ____
ROOT
ATOM      1  C   UNL     1      -4.034  -1.506  -0.004  0.00  0.00    +0.101 C 
ATOM      2  C   UNL     1      -4.829  -1.776   1.246  0.00  0.00    +0.008 A 
ATOM      3  C   UNL     1      -4.335  -1.360   2.470  0.00  0.00    +0.012 A 
ATOM      4  C   UNL     1      -5.050  -1.599   3.627  0.00  0.00    +0.047 A 
ATOM      5  C   UNL     1      -6.270  -2.258   3.564  0.00  0.00    +0.135 A 
ATOM      6  C   UNL     1      -6.768  -2.675   2.341  0.00  0.00    +0.093 A 
ATOM      7  C   UNL     1      -6.047  -2.434   1.178  0.00  0.00    +0.138 A 
ATOM      8  O   UNL     1      -6.548  -2.848  -0.012  0.00  0.00    -0.441 OA
ATOM      9  C   UNL     1      -6.093  -2.309  -1.155  0.00  0.00    +0.199 C 
ATOM     10  C   UNL     1      -4.909  -1.661  -1.216  0.00  0.00    +0.098 C 
ENDROOT
BRANCH   1  16
ATOM     11  C   UNL     1      -1.582  -2.017  -0.109  0.00  0.00    +0.125 A 
ATOM     12  C   UNL     1      -0.529  -2.918  -0.180  0.00  0.00    +0.046 A 
ATOM     13  C   UNL     1      -0.784  -4.274  -0.234  0.00  0.00    +0.004 A 
ATOM     14  C   UNL     1      -2.088  -4.734  -0.218  0.00  0.00    +0.001 A 
ATOM     15  C   UNL     1      -3.139  -3.839  -0.147  0.00  0.00    +0.008 A 
ATOM     16  C   UNL     1      -2.889  -2.481  -0.087  0.00  0.00    +0.007 A 
BRANCH  11  17
ATOM     17  O   UNL     1      -1.333  -0.682  -0.055  0.00  0.00    -0.492 OA
BRANCH  17  19
ATOM     18  C   UNL     1       0.118   1.251  -0.013  0.00  0.00    +0.048 C 
ATOM     19  C   UNL     1       0.037  -0.276  -0.081  0.00  0.00    +0.225 C 
ENDBRANCH  17  19
ENDBRANCH  11  17
ENDBRANCH   1  16
BRANCH   9  20
ATOM     20  N   UNL     1      -6.852  -2.421  -2.293  0.00  0.00    -0.328 N 
ATOM     21  H   UNL     1      -7.704  -2.884  -2.264  0.00  0.00    +0.145 HD
ATOM     22  H   UNL     1      -6.537  -2.037  -3.126  0.00  0.00    +0.145 HD
ENDBRANCH   9  20
BRANCH  10  23
ATOM     23  C   UNL     1      -4.481  -1.109  -2.466  0.00  0.00    +0.101 C 
ATOM     24  N   UNL     1      -4.141  -0.671  -3.458  0.00  0.00    -0.191 NA
ENDBRANCH  10  23
BRANCH   5  25
ATOM     25  O   UNL     1      -6.975  -2.494   4.702  0.00  0.00    -0.423 OA
BRANCH  25  26
ATOM     26  C   UNL     1      -7.084  -3.764   5.124  0.00  0.00    +0.357 C 
ATOM     27  O   UNL     1      -6.479  -4.643   4.557  0.00  0.00    -0.246 OA
BRANCH  26  28
ATOM     28  C   UNL     1      -7.962  -4.093   6.304  0.00  0.00    +0.319 C 
ATOM     29  C   UNL     1      -7.387  -3.447   7.572  0.00  0.00    +0.285 C 
ATOM     30  O   UNL     1      -8.234  -3.791   8.674  0.00  0.00    -0.484 OA
ATOM     31  C   UNL     1      -8.609  -5.095   8.774  0.00  0.00    +0.162 A 
ATOM     32  C   UNL     1      -9.111  -5.569   9.976  0.00  0.00    +0.049 A 
ATOM     33  C   UNL     1      -9.499  -6.891  10.092  0.00  0.00    +0.004 A 
ATOM     34  C   UNL     1      -9.388  -7.744   9.009  0.00  0.00    +0.004 A 
ATOM     35  C   UNL     1      -8.888  -7.278   7.808  0.00  0.00    +0.049 A 
ATOM     36  C   UNL     1      -8.495  -5.953   7.686  0.00  0.00    +0.163 A 
ATOM     37  O   UNL     1      -7.998  -5.511   6.499  0.00  0.00    -0.470 OA
ENDBRANCH  26  28
ENDBRANCH  25  26
ENDBRANCH   5  25
TORSDOF 8
