REMARK  Name = ZINC02466559
REMARK  2 active torsions:
REMARK  status: ('A' for Active; 'I' for Inactive)
REMARK    1  A    between atoms: C_12  and  C_22
REMARK    2  A    between atoms: N_24  and  C_25
REMARK                            x       y       z     vdW  Elec       q    Type
REMARK                         _______ _______ _______ _____ _____    ______ ____
ROOT
ATOM      1  C   UNL     1      -3.292   4.265  -3.508  0.00  0.00    +0.000 A 
ATOM      2  C   UNL     1      -3.437   2.890  -3.534  0.00  0.00    +0.000 A 
ATOM      3  C   UNL     1      -3.533   2.188  -2.351  0.00  0.00    +0.006 A 
ATOM      4  C   UNL     1      -3.484   2.850  -1.131  0.00  0.00    -0.023 A 
ATOM      5  C   UNL     1      -3.331   4.217  -1.105  0.00  0.00    -0.041 A 
ATOM      6  C   UNL     1      -3.239   4.924  -2.297  0.00  0.00    +0.004 A 
ATOM      7  C   UNL     1      -3.248   4.985   0.182  0.00  0.00    +0.054 C 
ATOM      8  C   UNL     1      -3.911   4.250   1.328  0.00  0.00    +0.113 C 
ATOM      9  N   UNL     1      -3.601   2.824   1.332  0.00  0.00    -0.289 N 
ATOM     10  C   UNL     1      -3.604   2.025   0.120  0.00  0.00    +0.123 C 
ATOM     11  C   UNL     1      -2.482   0.985   0.131  0.00  0.00    +0.131 C 
ATOM     12  C   UNL     1      -2.522   0.194   1.410  0.00  0.00    -0.021 A 
ATOM     13  C   UNL     1      -2.157  -1.135   1.435  0.00  0.00    +0.005 A 
ATOM     14  C   UNL     1      -2.191  -1.838   2.627  0.00  0.00    +0.000 A 
ATOM     15  C   UNL     1      -2.589  -1.215   3.796  0.00  0.00    +0.001 A 
ATOM     16  C   UNL     1      -2.961   0.114   3.783  0.00  0.00    +0.013 A 
ATOM     17  C   UNL     1      -2.934   0.825   2.585  0.00  0.00    +0.041 A 
ATOM     18  C   UNL     1      -3.340   2.243   2.531  0.00  0.00    +0.247 C 
ATOM     19  O   UNL     1      -3.440   2.888   3.556  0.00  0.00    -0.270 OA
ENDROOT
BRANCH  11  20
ATOM     20  C   UNL     1      -1.151   1.684   0.018  0.00  0.00    +0.227 C 
ATOM     21  O   UNL     1      -1.107   2.894  -0.063  0.00  0.00    -0.275 OA
ATOM     22  N   UNL     1      -0.011   0.966   0.007  0.00  0.00    -0.283 N 
ATOM     23  H   UNL     1      -0.049  -0.003  -0.011  0.00  0.00    +0.155 HD
BRANCH  22  24
ATOM     24  C   UNL     1       1.228   1.619   0.017  0.00  0.00    +0.069 A 
ATOM     25  C   UNL     1       1.335   2.900   0.540  0.00  0.00    +0.026 A 
ATOM     26  C   UNL     1       2.559   3.539   0.553  0.00  0.00    +0.002 A 
ATOM     27  C   UNL     1       3.677   2.909   0.036  0.00  0.00    +0.003 A 
ATOM     28  C   UNL     1       3.574   1.635  -0.490  0.00  0.00    +0.040 A 
ATOM     29  C   UNL     1       2.353   0.987  -0.502  0.00  0.00    +0.144 A 
ATOM     30  F   UNL     1       2.252  -0.259  -1.016  0.00  0.00    -0.204 F 
ENDBRANCH  22  24
ENDBRANCH  11  20
TORSDOF 2
