REMARK  Name = ZINC63557093
REMARK  10 active torsions:
REMARK  status: ('A' for Active; 'I' for Inactive)
REMARK    1  A    between atoms: C_1  and  C_2
REMARK    2  A    between atoms: C_2  and  C_3
REMARK    3  A    between atoms: C_3  and  C_4
REMARK    4  A    between atoms: C_3  and  C_6
REMARK    5  A    between atoms: C_4  and  C_5
REMARK    6  A    between atoms: C_10  and  N_13
REMARK    7  A    between atoms: C_14  and  C_16
REMARK    8  A    between atoms: N_21  and  C_23
REMARK    9  A    between atoms: C_23  and  C_24
REMARK   10  A    between atoms: C_24  and  C_25
REMARK                            x       y       z     vdW  Elec       q    Type
REMARK                         _______ _______ _______ _____ _____    ______ ____
ROOT
ATOM      1  C   UNL     1       5.387  -5.271  -0.927  0.00  0.00    +0.101 C 
ATOM      2  C   UNL     1       6.142  -4.117  -1.627  0.00  0.00    +0.110 C 
ATOM      3  C   UNL     1       7.456  -4.736  -2.050  0.00  0.00    +0.216 C 
ATOM      4  O   UNL     1       8.443  -4.113  -2.379  0.00  0.00    -0.276 OA
ATOM      5  N   UNL     1       7.370  -6.077  -2.009  0.00  0.00    -0.300 N 
ATOM      6  C   UNL     1       6.036  -6.513  -1.577  0.00  0.00    +0.121 C 
ENDROOT
BRANCH   1   8
ATOM      7  N   UNL     1       3.177  -4.167  -0.802  0.00  0.00    -0.290 N 
ATOM      8  C   UNL     1       3.912  -5.213  -1.230  0.00  0.00    +0.220 C 
ATOM      9  O   UNL     1       3.386  -6.107  -1.858  0.00  0.00    -0.275 OA
ATOM     10  H   UNL     1       3.598  -3.452  -0.299  0.00  0.00    +0.151 HD
BRANCH   7  14
ATOM     11  C   UNL     1       0.460  -1.708  -1.659  0.00  0.00    +0.133 C 
ATOM     12  N   UNL     1       1.413  -2.271  -2.666  0.00  0.00    -0.241 NA
ATOM     13  N   UNL     1       1.503  -3.718  -2.513  0.00  0.00    -0.227 NA
ATOM     14  C   UNL     1       1.743  -4.110  -1.096  0.00  0.00    +0.216 C 
ATOM     15  S   UNL     1       0.934  -2.721  -0.192  0.00  0.00    -0.102 S 
ATOM     16  H   UNL     1       1.136  -2.023  -3.604  0.00  0.00    +0.142 HD
ATOM     17  H   UNL     1       2.211  -4.103  -3.119  0.00  0.00    +0.143 HD
BRANCH  11  18
ATOM     18  C   UNL     1       0.718  -0.219  -1.417  0.00  0.00    +0.017 C 
BRANCH  18  20
ATOM     19  C   UNL     1      -0.125   1.831  -0.265  0.00  0.00    +0.004 C 
ATOM     20  C   UNL     1      -0.304   0.319  -0.413  0.00  0.00    +0.002 C 
ENDBRANCH  18  20
BRANCH  18  21
ATOM     21  C   UNL     1       2.130  -0.031  -0.859  0.00  0.00    +0.002 C 
ATOM     22  C   UNL     1       3.155  -0.480  -1.902  0.00  0.00    +0.004 C 
ENDBRANCH  18  21
ENDBRANCH  11  18
ENDBRANCH   7  14
ENDBRANCH   1   8
BRANCH   5  23
ATOM     23  C   UNL     1       8.467  -6.986  -2.349  0.00  0.00    +0.112 C 
BRANCH  23  24
ATOM     24  C   UNL     1       9.287  -7.289  -1.093  0.00  0.00    +0.052 C 
BRANCH  24  25
ATOM     25  C   UNL     1      10.415  -8.224  -1.443  0.00  0.00    -0.040 C 
ATOM     26  C   UNL     1      11.688  -7.885  -1.747  0.00  0.00    +0.000 A 
ATOM     27  C   UNL     1      12.377  -6.592  -1.841  0.00  0.00    +0.030 A 
ATOM     28  C   UNL     1      13.688  -6.569  -2.177  0.00  0.00    +0.042 A 
ATOM     29  C   UNL     1      14.402  -7.748  -2.437  0.00  0.00    +0.022 A 
ATOM     30  C   UNL     1      13.838  -8.972  -2.370  0.00  0.00    +0.027 A 
ATOM     31  C   UNL     1      12.465  -9.113  -2.026  0.00  0.00    +0.043 A 
ATOM     32  N   UNL     1      11.702 -10.172  -1.899  0.00  0.00    -0.380 N 
ATOM     33  C   UNL     1      10.355  -9.734  -1.518  0.00  0.00    +0.144 C 
ATOM     34 CL   UNL     1      14.506  -5.042  -2.289  0.00  0.00    -0.084 Cl
ATOM     35  H   UNL     1      11.983 -11.091  -2.030  0.00  0.00    +0.160 HD
ENDBRANCH  24  25
ENDBRANCH  23  24
ENDBRANCH   5  23
TORSDOF 8
