REMARK  Name = ZINC38074013
REMARK  5 active torsions:
REMARK  status: ('A' for Active; 'I' for Inactive)
REMARK    1  A    between atoms: C_1  and  O_2
REMARK    2  A    between atoms: O_2  and  C_3
REMARK    3  A    between atoms: C_6  and  C_10
REMARK    4  A    between atoms: C_10  and  C_12
REMARK    5  A    between atoms: C_10  and  N_24
REMARK                            x       y       z     vdW  Elec       q    Type
REMARK                         _______ _______ _______ _____ _____    ______ ____
ROOT
ATOM      1  C   UNL     1      -4.982  -2.629   0.036  0.00  0.00    -0.013 C 
ENDROOT
BRANCH   1   2
ATOM      2  C   UNL     1      -5.301  -3.083   1.437  0.00  0.00    -0.056 A 
ATOM      3  C   UNL     1      -4.722  -4.237   1.937  0.00  0.00    +0.004 A 
ATOM      4  C   UNL     1      -5.008  -4.661   3.220  0.00  0.00    +0.028 A 
ATOM      5  C   UNL     1      -5.879  -3.927   4.011  0.00  0.00    +0.067 A 
ATOM      6  C   UNL     1      -6.463  -2.763   3.507  0.00  0.00    +0.067 A 
ATOM      7  C   UNL     1      -6.165  -2.342   2.220  0.00  0.00    +0.030 A 
ATOM      8  N   UNL     1      -7.277  -2.252   4.516  0.00  0.00    -0.306 N 
ATOM      9  H   UNL     1      -7.813  -1.446   4.458  0.00  0.00    +0.170 HD
ATOM     10  C   UNL     1      -7.191  -3.068   5.584  0.00  0.00    +0.325 A 
ATOM     11  O   UNL     1      -7.780  -2.908   6.636  0.00  0.00    -0.247 OA
ATOM     12  N   UNL     1      -6.355  -4.087   5.310  0.00  0.00    -0.306 N 
ATOM     13  H   UNL     1      -6.125  -4.810   5.914  0.00  0.00    +0.170 HD
ENDBRANCH   1   2
BRANCH   1  17
ATOM     14  C   UNL     1      -1.200  -0.637   0.010  0.00  0.00    +0.134 A 
ATOM     15  C   UNL     1      -2.375   0.101   0.019  0.00  0.00    +0.047 A 
ATOM     16  C   UNL     1      -3.596  -0.545   0.028  0.00  0.00    +0.006 A 
ATOM     17  C   UNL     1      -3.648  -1.927   0.027  0.00  0.00    -0.056 A 
ATOM     18  C   UNL     1      -2.480  -2.666   0.017  0.00  0.00    +0.021 A 
ATOM     19  C   UNL     1      -1.256  -2.024   0.003  0.00  0.00    +0.060 A 
ATOM     20 BR   UNL     1       0.342  -3.035  -0.018  0.00  0.00    -0.047 Br
BRANCH  14  22
ATOM     21  C   UNL     1      -0.017   1.425   0.010  0.00  0.00    +0.277 C 
ATOM     22  O   UNL     1       0.002  -0.004   0.002  0.00  0.00    -0.494 OA
ENDBRANCH  14  22
ENDBRANCH   1  17
BRANCH   1  23
ATOM     23  N   UNL     1      -4.928  -3.795  -0.856  0.00  0.00    +0.385 N 
ATOM     24  H   UNL     1      -4.212  -4.429  -0.537  0.00  0.00    -0.089 HD
ATOM     25  H   UNL     1      -5.821  -4.264  -0.850  0.00  0.00    -0.089 HD
ATOM     26  H   UNL     1      -4.715  -3.491  -1.794  0.00  0.00    -0.089 HD
ENDBRANCH   1  23
TORSDOF 4
