REMARK  Name = ZINC39634428
REMARK  10 active torsions:
REMARK  status: ('A' for Active; 'I' for Inactive)
REMARK    1  A    between atoms: C_1  and  C_2
REMARK    2  A    between atoms: C_5  and  C_8
REMARK    3  A    between atoms: C_8  and  N_9
REMARK    4  A    between atoms: C_10  and  C_12
REMARK    5  A    between atoms: C_23  and  C_25
REMARK    6  A    between atoms: C_25  and  C_27
REMARK    7  A    between atoms: C_25  and  O_30
REMARK    8  A    between atoms: C_27  and  C_28
REMARK    9  A    between atoms: C_27  and  C_29
REMARK   10  A    between atoms: O_30  and  C_31
REMARK                            x       y       z     vdW  Elec       q    Type
REMARK                         _______ _______ _______ _____ _____    ______ ____
ROOT
ATOM      1  C   UNL     1       3.933  -5.579  -0.073  0.00  0.00    +0.100 C 
ATOM      2  C   UNL     1       4.395  -5.305   1.376  0.00  0.00    +0.121 C 
ATOM      3  N   UNL     1       4.209  -6.596   2.079  0.00  0.00    -0.297 N 
ATOM      4  C   UNL     1       4.629  -7.618   1.091  0.00  0.00    +0.115 C 
ATOM      5  C   UNL     1       4.091  -7.097  -0.257  0.00  0.00    -0.004 C 
ATOM      6  C   UNL     1       2.741  -7.735  -0.567  0.00  0.00    -0.010 C 
ATOM      7  C   UNL     1       2.932  -9.236  -0.803  0.00  0.00    -0.082 C 
ATOM      8  N   UNL     1       3.862  -9.443  -1.920  0.00  0.00    +0.379 N 
ATOM      9  C   UNL     1       5.185  -8.909  -1.576  0.00  0.00    -0.082 C 
ATOM     10  C   UNL     1       5.088  -7.394  -1.373  0.00  0.00    -0.010 C 
ATOM     11  C   UNL     1       3.758  -6.796   3.333  0.00  0.00    +0.257 C 
ATOM     12  O   UNL     1       3.742  -7.915   3.801  0.00  0.00    -0.272 OA
ATOM     13  H   UNL     1       3.940 -10.431  -2.112  0.00  0.00    -0.086 HD
ATOM     14  H   UNL     1       3.512  -8.970  -2.739  0.00  0.00    -0.086 HD
ENDROOT
BRANCH   1  16
ATOM     15  N   UNL     1       2.105  -4.527  -1.365  0.00  0.00    -0.311 N 
ATOM     16  C   UNL     1       2.492  -5.176  -0.249  0.00  0.00    +0.218 C 
ATOM     17  O   UNL     1       1.680  -5.436   0.613  0.00  0.00    -0.275 OA
ATOM     18  H   UNL     1       2.755  -4.319  -2.055  0.00  0.00    +0.149 HD
BRANCH  15  19
ATOM     19  C   UNL     1       0.704  -4.135  -1.537  0.00  0.00    +0.139 C 
BRANCH  19  24
ATOM     20  C   UNL     1       0.062  -1.432  -6.603  0.00  0.00    +0.044 C 
ATOM     21  C   UNL     1       0.230  -2.137  -5.282  0.00  0.00    -0.050 A 
ATOM     22  C   UNL     1       0.079  -3.509  -5.207  0.00  0.00    +0.003 A 
ATOM     23  C   UNL     1       0.233  -4.156  -3.995  0.00  0.00    +0.005 A 
ATOM     24  C   UNL     1       0.537  -3.430  -2.858  0.00  0.00    -0.030 A 
ATOM     25  C   UNL     1       0.689  -2.058  -2.933  0.00  0.00    +0.005 A 
ATOM     26  C   UNL     1       0.539  -1.412  -4.146  0.00  0.00    +0.003 A 
ENDBRANCH  19  24
ENDBRANCH  15  19
ENDBRANCH   1  16
BRANCH  11  27
ATOM     27  C   UNL     1       3.275  -5.629   4.156  0.00  0.00    +0.261 C 
BRANCH  27  28
ATOM     28  C   UNL     1       1.786  -5.801   4.460  0.00  0.00    +0.033 C 
ATOM     29  C   UNL     1       1.313  -4.656   5.357  0.00  0.00    +0.011 C 
ATOM     30  C   UNL     1       0.993  -5.785   3.152  0.00  0.00    +0.011 C 
ENDBRANCH  27  28
BRANCH  27  31
ATOM     31  O   UNL     1       4.009  -5.574   5.381  0.00  0.00    -0.479 OA
BRANCH  31  32
ATOM     32  C   UNL     1       4.323  -4.340   5.857  0.00  0.00    +0.122 A 
ATOM     33  C   UNL     1       5.016  -4.213   7.052  0.00  0.00    +0.045 A 
ATOM     34  C   UNL     1       5.335  -2.957   7.533  0.00  0.00    +0.004 A 
ATOM     35  C   UNL     1       4.963  -1.829   6.825  0.00  0.00    +0.000 A 
ATOM     36  C   UNL     1       4.271  -1.954   5.635  0.00  0.00    +0.004 A 
ATOM     37  C   UNL     1       3.956  -3.207   5.146  0.00  0.00    +0.045 A 
ENDBRANCH  31  32
ENDBRANCH  27  31
ENDBRANCH  11  27
TORSDOF 7
