REMARK  Name = ZINC41584892
REMARK  6 active torsions:
REMARK  status: ('A' for Active; 'I' for Inactive)
REMARK    1  A    between atoms: C_4  and  C_7
REMARK    2  A    between atoms: C_7  and  N_8
REMARK    3  A    between atoms: N_11  and  C_14
REMARK    4  A    between atoms: C_14  and  C_15
REMARK    5  A    between atoms: C_16  and  O_34
REMARK    6  A    between atoms: C_23  and  C_24
REMARK                            x       y       z     vdW  Elec       q    Type
REMARK                         _______ _______ _______ _____ _____    ______ ____
ROOT
ATOM      1  C   UNL     1       6.716  -3.804   4.761  0.00  0.00    +0.051 A 
ATOM      2  C   UNL     1       6.647  -5.187   4.722  0.00  0.00    +0.125 A 
ATOM      3  C   UNL     1       7.809  -5.952   4.675  0.00  0.00    +0.046 A 
ATOM      4  C   UNL     1       9.033  -5.343   4.666  0.00  0.00    +0.019 A 
ATOM      5  C   UNL     1       9.117  -3.951   4.704  0.00  0.00    +0.068 A 
ATOM      6  C   UNL     1       7.951  -3.168   4.747  0.00  0.00    +0.147 A 
ATOM      7  O   UNL     1       8.283  -1.859   4.771  0.00  0.00    -0.451 OA
ATOM      8  C   UNL     1       9.624  -1.679   4.742  0.00  0.00    +0.176 C 
ATOM      9  C   UNL     1      10.273  -0.487   4.755  0.00  0.00    +0.061 C 
ATOM     10  C   UNL     1      10.250  -3.009   4.707  0.00  0.00    +0.231 C 
ATOM     11  O   UNL     1      11.440  -3.273   4.674  0.00  0.00    -0.283 OA
ENDROOT
BRANCH   9  12
ATOM     12  C   UNL     1       9.508   0.765   4.805  0.00  0.00    +0.015 A 
ATOM     13  C   UNL     1       8.450   0.981   3.912  0.00  0.00    +0.050 A 
ATOM     14  C   UNL     1       7.737   2.161   3.966  0.00  0.00    +0.021 A 
ATOM     15  C   UNL     1       8.063   3.130   4.898  0.00  0.00    +0.003 A 
ATOM     16  C   UNL     1       9.107   2.926   5.785  0.00  0.00    +0.021 A 
ATOM     17  C   UNL     1       9.828   1.750   5.749  0.00  0.00    +0.050 A 
ATOM     18 CL   UNL     1      11.131   1.493   6.867  0.00  0.00    -0.083 Cl
ATOM     19 CL   UNL     1       8.040  -0.232   2.740  0.00  0.00    -0.083 Cl
ENDBRANCH   9  12
BRANCH   2  20
ATOM     20  O   UNL     1       5.437  -5.801   4.731  0.00  0.00    -0.506 OA
ATOM     21  H   UNL     1       5.067  -5.954   3.851  0.00  0.00    +0.292 HD
ENDBRANCH   2  20
BRANCH   1  22
ATOM     22  C   UNL     1       5.450  -2.988   4.812  0.00  0.00    +0.126 C 
BRANCH  22  26
ATOM     23  N   UNL     1       4.153  -0.953   1.342  0.00  0.00    +0.384 N 
ATOM     24  C   UNL     1       3.207  -1.861   2.004  0.00  0.00    -0.063 C 
ATOM     25  C   UNL     1       3.657  -2.102   3.447  0.00  0.00    +0.066 C 
ATOM     26  N   UNL     1       5.005  -2.688   3.445  0.00  0.00    -0.301 NA
ATOM     27  C   UNL     1       5.958  -1.801   2.763  0.00  0.00    +0.066 C 
ATOM     28  C   UNL     1       5.489  -1.562   1.326  0.00  0.00    -0.063 C 
ATOM     29  H   UNL     1       4.188  -0.079   1.844  0.00  0.00    -0.081 HD
BRANCH  23  30
ATOM     30  C   UNL     1       3.711  -0.707  -0.038  0.00  0.00    -0.043 C 
BRANCH  30  34
ATOM     31  C   UNL     1      -0.017   1.378   0.010  0.00  0.00    +0.000 A 
ATOM     32  C   UNL     1       1.171   2.086   0.002  0.00  0.00    +0.000 A 
ATOM     33  C   UNL     1       2.377   1.411  -0.013  0.00  0.00    +0.002 A 
ATOM     34  C   UNL     1       2.396   0.029  -0.020  0.00  0.00    -0.064 A 
ATOM     35  C   UNL     1       1.208  -0.679  -0.012  0.00  0.00    +0.002 A 
ATOM     36  C   UNL     1       0.002  -0.004   0.002  0.00  0.00    +0.000 A 
ENDBRANCH  30  34
ENDBRANCH  23  30
ENDBRANCH  22  26
ENDBRANCH   1  22
TORSDOF 6
