REMARK  Name = ZINC15071107
REMARK  8 active torsions:
REMARK  status: ('A' for Active; 'I' for Inactive)
REMARK    1  A    between atoms: C_1  and  C_2
REMARK    2  A    between atoms: C_6  and  C_27
REMARK    3  A    between atoms: C_16  and  C_19
REMARK    4  A    between atoms: N_29  and  C_30
REMARK    5  A    between atoms: C_30  and  C_32
REMARK    6  A    between atoms: C_30  and  C_33
REMARK    7  A    between atoms: C_33  and  O_34
REMARK    8  A    between atoms: O_34  and  C_35
REMARK                            x       y       z     vdW  Elec       q    Type
REMARK                         _______ _______ _______ _____ _____    ______ ____
ROOT
ATOM      1  C   UNL     1       5.686   1.107   6.661  0.00  0.00    +0.064 C 
ATOM      2  C   UNL     1       5.029   1.338   5.324  0.00  0.00    +0.025 A 
ATOM      3  C   UNL     1       5.561   0.763   4.228  0.00  0.00    +0.073 A 
ATOM      4  C   UNL     1       4.956   0.986   2.967  0.00  0.00    +0.194 A 
ATOM      5  O   UNL     1       5.373   0.435   1.960  0.00  0.00    -0.287 OA
ATOM      6  C   UNL     1       3.812   1.906   2.911  0.00  0.00    +0.103 A 
ATOM      7  C   UNL     1       3.353   2.460   4.094  0.00  0.00    +0.041 A 
ATOM      8  N   UNL     1       3.916   2.121   5.262  0.00  0.00    -0.315 N 
ATOM      9  C   UNL     1       3.341   2.553   6.470  0.00  0.00    +0.060 A 
ATOM     10  C   UNL     1       4.120   3.181   7.429  0.00  0.00    +0.029 A 
ATOM     11  C   UNL     1       3.543   3.602   8.613  0.00  0.00    +0.022 A 
ATOM     12  C   UNL     1       2.193   3.398   8.845  0.00  0.00    +0.042 A 
ATOM     13  C   UNL     1       1.409   2.771   7.892  0.00  0.00    +0.036 A 
ATOM     14  C   UNL     1       1.985   2.347   6.705  0.00  0.00    +0.034 A 
ATOM     15  S   UNL     1       1.011   1.541   5.473  0.00  0.00    -0.115 S 
ATOM     16  C   UNL     1       0.875   2.807   4.168  0.00  0.00    +0.090 C 
ATOM     17  C   UNL     1       2.250   3.479   4.034  0.00  0.00    +0.074 C 
ATOM     18 CL   UNL     1       1.481   3.932  10.336  0.00  0.00    -0.084 Cl
ENDROOT
BRANCH  16  19
ATOM     19  C   UNL     1      -0.162   3.831   4.553  0.00  0.00    +0.001 A 
ATOM     20  C   UNL     1      -0.585   3.926   5.865  0.00  0.00    +0.007 A 
ATOM     21  C   UNL     1      -1.531   4.869   6.220  0.00  0.00    +0.000 A 
ATOM     22  C   UNL     1      -2.064   5.710   5.261  0.00  0.00    +0.003 A 
ATOM     23  C   UNL     1      -1.647   5.613   3.947  0.00  0.00    +0.038 A 
ATOM     24  C   UNL     1      -0.694   4.673   3.591  0.00  0.00    +0.128 A 
ATOM     25  F   UNL     1      -0.285   4.577   2.307  0.00  0.00    -0.205 F 
ENDBRANCH  16  19
BRANCH   6  26
ATOM     26  C   UNL     1       3.165   2.228   1.628  0.00  0.00    +0.250 C 
ATOM     27  O   UNL     1       3.553   3.175   0.971  0.00  0.00    -0.270 OA
ATOM     28  N   UNL     1       2.142   1.472   1.181  0.00  0.00    -0.306 N 
ATOM     29  H   UNL     1       1.832   0.717   1.704  0.00  0.00    +0.149 HD
BRANCH  28  30
ATOM     30  C   UNL     1       1.498   1.792  -0.096  0.00  0.00    +0.096 C 
ATOM     31  C   UNL     1       2.283   1.145  -1.239  0.00  0.00    +0.030 C 
BRANCH  30  32
ATOM     32  C   UNL     1       0.065   1.256  -0.093  0.00  0.00    +0.181 C 
BRANCH  32  33
ATOM     33  O   UNL     1       0.091  -0.172  -0.030  0.00  0.00    -0.381 OA
ATOM     34  C   UNL     1      -1.203  -0.777  -0.022  0.00  0.00    +0.194 C 
ENDBRANCH  32  33
ENDBRANCH  30  32
ENDBRANCH  28  30
ENDBRANCH   6  26
TORSDOF 5
