REMARK  Name = ZINC41585382
REMARK  10 active torsions:
REMARK  status: ('A' for Active; 'I' for Inactive)
REMARK    1  A    between atoms: C_1  and  C_2
REMARK    2  A    between atoms: C_4  and  O_37
REMARK    3  A    between atoms: C_5  and  C_23
REMARK    4  A    between atoms: C_11  and  C_12
REMARK    5  A    between atoms: C_15  and  O_20
REMARK    6  A    between atoms: C_17  and  O_18
REMARK    7  A    between atoms: O_18  and  C_19
REMARK    8  A    between atoms: O_20  and  C_21
REMARK    9  A    between atoms: C_23  and  N_24
REMARK   10  A    between atoms: N_27  and  C_30
REMARK                            x       y       z     vdW  Elec       q    Type
REMARK                         _______ _______ _______ _____ _____    ______ ____
ROOT
ATOM      1  C   UNL     1      -0.660   1.599   0.133  0.00  0.00    +0.045 C 
ATOM      2  C   UNL     1      -0.763   0.096   0.112  0.00  0.00    -0.033 A 
ATOM      3  C   UNL     1      -1.041  -0.555  -1.057  0.00  0.00    +0.050 A 
ATOM      4  C   UNL     1      -1.136  -1.943  -1.079  0.00  0.00    +0.122 A 
ATOM      5  C   UNL     1      -0.952  -2.681   0.079  0.00  0.00    +0.020 A 
ATOM      6  C   UNL     1      -0.669  -2.035   1.276  0.00  0.00    +0.145 A 
ATOM      7  C   UNL     1      -0.570  -0.634   1.285  0.00  0.00    +0.071 A 
ATOM      8  C   UNL     1      -0.261  -0.248   2.674  0.00  0.00    +0.232 C 
ATOM      9  O   UNL     1      -0.097   0.876   3.117  0.00  0.00    -0.283 OA
ATOM     10  C   UNL     1      -0.194  -1.520   3.404  0.00  0.00    +0.176 C 
ATOM     11  C   UNL     1       0.067  -1.672   4.730  0.00  0.00    +0.061 C 
ATOM     12  O   UNL     1      -0.451  -2.514   2.520  0.00  0.00    -0.451 OA
ENDROOT
BRANCH  11  13
ATOM     13  C   UNL     1      -0.020  -2.998   5.346  0.00  0.00    +0.020 A 
ATOM     14  C   UNL     1      -0.011  -4.149   4.545  0.00  0.00    +0.015 A 
ATOM     15  C   UNL     1      -0.092  -5.383   5.122  0.00  0.00    +0.046 A 
ATOM     16  C   UNL     1      -0.184  -5.510   6.505  0.00  0.00    +0.124 A 
ATOM     17  C   UNL     1      -0.194  -4.382   7.314  0.00  0.00    +0.091 A 
ATOM     18  C   UNL     1      -0.107  -3.124   6.744  0.00  0.00    +0.131 A 
BRANCH  18  19
ATOM     19  O   UNL     1      -0.112  -2.017   7.530  0.00  0.00    -0.494 OA
ATOM     20  C   UNL     1      -0.203  -2.224   8.941  0.00  0.00    +0.277 C 
ENDBRANCH  18  19
BRANCH  16  21
ATOM     21  O   UNL     1      -0.264  -6.743   7.067  0.00  0.00    -0.495 OA
ATOM     22  C   UNL     1      -0.249  -7.863   6.178  0.00  0.00    +0.277 C 
ENDBRANCH  16  21
ENDBRANCH  11  13
BRANCH   4  23
ATOM     23  O   UNL     1      -1.413  -2.580  -2.245  0.00  0.00    -0.506 OA
ATOM     24  H   UNL     1      -0.629  -2.822  -2.757  0.00  0.00    +0.292 HD
ENDBRANCH   4  23
BRANCH   5  25
ATOM     25  C   UNL     1      -1.059  -4.184   0.041  0.00  0.00    -0.035 C 
BRANCH  25  26
ATOM     26  N   UNL     1       0.261  -4.761  -0.244  0.00  0.00    +0.385 N 
ATOM     27  C   UNL     1       0.690  -4.358  -1.589  0.00  0.00    -0.059 C 
ATOM     28  C   UNL     1       2.114  -4.864  -1.843  0.00  0.00    +0.086 C 
ATOM     29  N   UNL     1       2.142  -6.316  -1.607  0.00  0.00    -0.331 N 
ATOM     30  C   UNL     1       1.579  -6.824  -0.347  0.00  0.00    +0.086 C 
ATOM     31  C   UNL     1       0.181  -6.225  -0.163  0.00  0.00    -0.059 C 
ATOM     32  H   UNL     1       0.928  -4.424   0.434  0.00  0.00    -0.081 HD
BRANCH  29  33
ATOM     33  C   UNL     1       2.688  -7.188  -2.554  0.00  0.00    +0.065 A 
ATOM     34  C   UNL     1       4.035  -7.520  -2.499  0.00  0.00    +0.026 A 
ATOM     35  C   UNL     1       4.571  -8.382  -3.436  0.00  0.00    +0.002 A 
ATOM     36  C   UNL     1       3.769  -8.915  -4.428  0.00  0.00    +0.003 A 
ATOM     37  C   UNL     1       2.427  -8.586  -4.488  0.00  0.00    +0.040 A 
ATOM     38  C   UNL     1       1.882  -7.729  -3.550  0.00  0.00    +0.144 A 
ATOM     39  F   UNL     1       0.570  -7.412  -3.604  0.00  0.00    -0.204 F 
ENDBRANCH  29  33
ENDBRANCH  25  26
ENDBRANCH   5  25
TORSDOF 7
