REMARK  Name = ZINC20207882
REMARK  9 active torsions:
REMARK  status: ('A' for Active; 'I' for Inactive)
REMARK    1  A    between atoms: C_1  and  S_2
REMARK    2  A    between atoms: S_2  and  C_5
REMARK    3  A    between atoms: C_11  and  C_12
REMARK    4  A    between atoms: C_15  and  O_18
REMARK    5  A    between atoms: O_18  and  C_19
REMARK    6  A    between atoms: C_19  and  C_20
REMARK    7  A    between atoms: C_20  and  C_21
REMARK    8  A    between atoms: C_21  and  O_22
REMARK    9  A    between atoms: O_22  and  C_23
REMARK                            x       y       z     vdW  Elec       q    Type
REMARK                         _______ _______ _______ _____ _____    ______ ____
ROOT
ATOM      1  C   UNL     1       6.579  -0.705  -3.866  0.00  0.00    -0.024 A 
ATOM      2  C   UNL     1       6.238  -1.023  -2.544  0.00  0.00    +0.011 A 
ATOM      3  C   UNL     1       7.144  -0.822  -1.541  0.00  0.00    +0.046 A 
ATOM      4  C   UNL     1       8.402  -0.304  -1.830  0.00  0.00    +0.121 A 
ATOM      5  C   UNL     1       8.746   0.013  -3.140  0.00  0.00    +0.046 A 
ATOM      6  C   UNL     1       7.851  -0.189  -4.152  0.00  0.00    +0.011 A 
ENDROOT
BRANCH   1  13
ATOM      7  C   UNL     1       8.117   2.804  -8.800  0.00  0.00    +0.235 C 
ATOM      8  N   UNL     1       7.841   2.443  -7.580  0.00  0.00    -0.145 NA
ATOM      9  N   UNL     1       6.782   1.605  -7.304  0.00  0.00    -0.150 N 
ATOM     10  C   UNL     1       6.344   1.226  -6.017  0.00  0.00    +0.153 C 
ATOM     11  N   UNL     1       6.596   1.920  -4.939  0.00  0.00    -0.283 NA
ATOM     12  C   UNL     1       5.564  -0.044  -6.009  0.00  0.00    +0.081 C 
ATOM     13  C   UNL     1       5.613  -0.918  -4.946  0.00  0.00    +0.024 C 
ATOM     14  C   UNL     1       4.733  -0.316  -7.208  0.00  0.00    +0.273 C 
ATOM     15  O   UNL     1       3.749  -1.036  -7.140  0.00  0.00    -0.268 OA
ATOM     16  N   UNL     1       5.095   0.255  -8.373  0.00  0.00    -0.152 NA
ATOM     17  C   UNL     1       6.076   1.122  -8.384  0.00  0.00    +0.182 C 
ATOM     18  S   UNL     1       6.852   1.960  -9.740  0.00  0.00    -0.015 S 
ATOM     19  H   UNL     1       7.169   2.701  -4.988  0.00  0.00    +0.188 HD
BRANCH   7  21
ATOM     20  C   UNL     1      10.750   2.740  -9.851  0.00  0.00    +0.202 C 
ATOM     21  S   UNL     1       9.404   3.861  -9.377  0.00  0.00    +0.019 S 
ATOM     22  O   UNL     1       9.782   4.626  -8.241  0.00  0.00    -0.168 OA
ATOM     23  O   UNL     1       8.865   4.493 -10.530  0.00  0.00    -0.168 OA
ENDBRANCH   7  21
ENDBRANCH   1  13
BRANCH   4  24
ATOM     24  O   UNL     1       9.297  -0.106  -0.829  0.00  0.00    -0.492 OA
BRANCH  24  25
ATOM     25  C   UNL     1      10.571   0.429  -1.195  0.00  0.00    +0.232 C 
BRANCH  25  26
ATOM     26  C   UNL     1      11.438   0.580   0.056  0.00  0.00    +0.082 C 
BRANCH  26  27
ATOM     27  C   UNL     1      12.802   1.153  -0.335  0.00  0.00    +0.232 C 
BRANCH  27  28
ATOM     28  O   UNL     1      13.612   1.295   0.834  0.00  0.00    -0.490 OA
BRANCH  28  29
ATOM     29  C   UNL     1      14.864   1.794   0.660  0.00  0.00    +0.139 A 
ATOM     30  C   UNL     1      15.302   2.147  -0.609  0.00  0.00    +0.047 A 
ATOM     31  C   UNL     1      16.575   2.655  -0.783  0.00  0.00    +0.004 A 
ATOM     32  C   UNL     1      17.413   2.812   0.305  0.00  0.00    +0.002 A 
ATOM     33  C   UNL     1      16.980   2.462   1.571  0.00  0.00    +0.023 A 
ATOM     34  C   UNL     1      15.705   1.958   1.752  0.00  0.00    +0.083 A 
ATOM     35 CL   UNL     1      15.160   1.525   3.342  0.00  0.00    -0.080 Cl
ENDBRANCH  28  29
ENDBRANCH  27  28
ENDBRANCH  26  27
ENDBRANCH  25  26
ENDBRANCH  24  25
ENDBRANCH   4  24
TORSDOF 8
