REMARK  Name = ZINC00059243
REMARK  5 active torsions:
REMARK  status: ('A' for Active; 'I' for Inactive)
REMARK    1  A    between atoms: C_1  and  C_2
REMARK    2  A    between atoms: C_2  and  C_3
REMARK    3  A    between atoms: C_6  and  C_9
REMARK    4  A    between atoms: C_11  and  C_22
REMARK    5  A    between atoms: C_12  and  N_21
REMARK                            x       y       z     vdW  Elec       q    Type
REMARK                         _______ _______ _______ _____ _____    ______ ____
ROOT
ATOM      1  C   UNL     1       2.707  -1.868  -4.752  0.00  0.00    +0.101 C 
ATOM      2  C   UNL     1       3.741  -0.859  -5.165  0.00  0.00    +0.098 C 
ATOM      3  C   UNL     1       5.053  -1.070  -4.896  0.00  0.00    +0.198 C 
ATOM      4  O   UNL     1       5.461  -2.178  -4.255  0.00  0.00    -0.445 OA
ATOM      5  C   UNL     1       4.682  -3.277  -4.232  0.00  0.00    +0.115 C 
ATOM      6  C   UNL     1       3.363  -3.197  -4.465  0.00  0.00    +0.046 C 
ATOM      7  C   UNL     1       2.551  -4.348  -4.449  0.00  0.00    +0.163 C 
ATOM      8  O   UNL     1       1.358  -4.239  -4.650  0.00  0.00    -0.292 OA
ATOM      9  C   UNL     1       3.136  -5.710  -4.189  0.00  0.00    +0.080 C 
ATOM     10  C   UNL     1       4.596  -5.720  -4.654  0.00  0.00    +0.016 C 
ATOM     11  C   UNL     1       5.336  -4.605  -3.931  0.00  0.00    +0.075 C 
ENDROOT
BRANCH   1  15
ATOM     12  C   UNL     1       0.707  -0.490  -1.238  0.00  0.00    -0.048 A 
ATOM     13  C   UNL     1      -0.011  -0.719  -2.397  0.00  0.00    +0.004 A 
ATOM     14  C   UNL     1       0.636  -1.164  -3.534  0.00  0.00    +0.005 A 
ATOM     15  C   UNL     1       2.002  -1.381  -3.513  0.00  0.00    -0.035 A 
ATOM     16  C   UNL     1       2.720  -1.152  -2.354  0.00  0.00    +0.005 A 
ATOM     17  C   UNL     1       2.073  -0.702  -1.218  0.00  0.00    +0.004 A 
BRANCH  12  19
ATOM     18  C   UNL     1      -0.019   1.526   0.010  0.00  0.00    +0.009 C 
ATOM     19  C   UNL     1       0.002  -0.004   0.002  0.00  0.00    +0.032 C 
ENDBRANCH  12  19
ENDBRANCH   1  15
BRANCH   3  20
ATOM     20  N   UNL     1       5.981  -0.136  -5.286  0.00  0.00    -0.328 N 
ATOM     21  H   UNL     1       5.695   0.667  -5.750  0.00  0.00    +0.145 HD
ATOM     22  H   UNL     1       6.921  -0.279  -5.098  0.00  0.00    +0.145 HD
ENDBRANCH   3  20
BRANCH   2  23
ATOM     23  C   UNL     1       3.338   0.333  -5.848  0.00  0.00    +0.101 C 
ATOM     24  N   UNL     1       3.019   1.279  -6.389  0.00  0.00    -0.191 NA
ENDBRANCH   2  23
TORSDOF 4
