REMARK  Name = ZINC39678522
REMARK  9 active torsions:
REMARK  status: ('A' for Active; 'I' for Inactive)
REMARK    1  A    between atoms: C_1  and  C_2
REMARK    2  A    between atoms: C_2  and  C_3
REMARK    3  A    between atoms: C_3  and  C_5
REMARK    4  A    between atoms: C_3  and  C_11
REMARK    5  A    between atoms: C_15  and  C_24
REMARK    6  A    between atoms: N_26  and  C_27
REMARK    7  A    between atoms: C_27  and  C_28
REMARK    8  A    between atoms: C_32  and  O_34
REMARK    9  A    between atoms: O_34  and  C_35
REMARK                            x       y       z     vdW  Elec       q    Type
REMARK                         _______ _______ _______ _____ _____    ______ ____
ROOT
ATOM      1  C   UNL     1       0.657  -2.161  -1.300  0.00  0.00    +0.223 C 
ATOM      2  O   UNL     1       1.654  -2.849  -1.365  0.00  0.00    -0.275 OA
ATOM      3  N   UNL     1      -0.562  -2.730  -1.386  0.00  0.00    -0.300 N 
ATOM      4  C   UNL     1      -1.883  -2.061  -1.333  0.00  0.00    +0.121 C 
ATOM      5  C   UNL     1      -2.737  -2.801  -2.386  0.00  0.00    +0.100 C 
ATOM      6  C   UNL     1      -2.078  -4.184  -2.525  0.00  0.00    -0.004 C 
ATOM      7  C   UNL     1      -0.883  -4.167  -1.561  0.00  0.00    +0.115 C 
ATOM      8  C   UNL     1      -3.062  -5.280  -2.130  0.00  0.00    -0.010 C 
ATOM      9  C   UNL     1      -2.403  -6.648  -2.332  0.00  0.00    -0.082 C 
ATOM     10  N   UNL     1      -2.008  -6.800  -3.738  0.00  0.00    +0.379 N 
ATOM     11  C   UNL     1      -0.992  -5.798  -4.083  0.00  0.00    -0.082 C 
ATOM     12  C   UNL     1      -1.591  -4.395  -3.956  0.00  0.00    -0.010 C 
ATOM     13  H   UNL     1      -1.629  -7.724  -3.881  0.00  0.00    -0.086 HD
ATOM     14  H   UNL     1      -2.816  -6.675  -4.328  0.00  0.00    -0.086 HD
ENDROOT
BRANCH   5  15
ATOM     15  C   UNL     1      -4.158  -2.941  -1.904  0.00  0.00    +0.218 C 
ATOM     16  O   UNL     1      -4.389  -3.034  -0.717  0.00  0.00    -0.275 OA
ATOM     17  N   UNL     1      -5.172  -2.963  -2.792  0.00  0.00    -0.311 N 
ATOM     18  H   UNL     1      -4.987  -2.889  -3.741  0.00  0.00    +0.149 HD
BRANCH  17  19
ATOM     19  C   UNL     1      -6.553  -3.099  -2.323  0.00  0.00    +0.139 C 
BRANCH  19  20
ATOM     20  C   UNL     1      -7.488  -3.097  -3.505  0.00  0.00    -0.027 A 
ATOM     21  C   UNL     1      -8.004  -1.903  -3.975  0.00  0.00    +0.005 A 
ATOM     22  C   UNL     1      -8.861  -1.897  -5.060  0.00  0.00    +0.004 A 
ATOM     23  C   UNL     1      -9.205  -3.085  -5.676  0.00  0.00    +0.046 A 
ATOM     24  C   UNL     1      -8.689  -4.284  -5.206  0.00  0.00    +0.127 A 
ATOM     25  C   UNL     1      -7.824  -4.286  -4.122  0.00  0.00    +0.051 A 
BRANCH  24  26
ATOM     26  O   UNL     1      -9.026  -5.453  -5.811  0.00  0.00    -0.434 OA
BRANCH  26  27
ATOM     27  C   UNL     1      -9.917  -5.374  -6.926  0.00  0.00    +0.541 C 
ATOM     28  F   UNL     1     -11.125  -4.800  -6.517  0.00  0.00    -0.166 F 
ATOM     29  F   UNL     1      -9.341  -4.585  -7.928  0.00  0.00    -0.166 F 
ENDBRANCH  26  27
ENDBRANCH  24  26
ENDBRANCH  19  20
ENDBRANCH  17  19
ENDBRANCH   5  15
BRANCH   1  30
ATOM     30  C   UNL     1       0.781  -0.670  -1.121  0.00  0.00    +0.105 C 
BRANCH  30  31
ATOM     31  C   UNL     1       2.238  -0.292  -1.054  0.00  0.00    -0.036 A 
ATOM     32  C   UNL     1       3.045  -0.819  -0.063  0.00  0.00    +0.004 A 
ATOM     33  C   UNL     1       4.381  -0.472  -0.001  0.00  0.00    +0.000 A 
ATOM     34  C   UNL     1       4.912   0.402  -0.931  0.00  0.00    +0.000 A 
ATOM     35  C   UNL     1       4.106   0.929  -1.923  0.00  0.00    +0.000 A 
ATOM     36  C   UNL     1       2.770   0.579  -1.987  0.00  0.00    +0.004 A 
ENDBRANCH  30  31
BRANCH  30  38
ATOM     37  C   UNL     1       0.103   1.274   0.295  0.00  0.00    +0.005 C 
ATOM     38  C   UNL     1       0.085  -0.252   0.176  0.00  0.00    +0.014 C 
ENDBRANCH  30  38
ENDBRANCH   1  30
TORSDOF 8
