REMARK  Name = ZINC64504916
REMARK  6 active torsions:
REMARK  status: ('A' for Active; 'I' for Inactive)
REMARK    1  A    between atoms: C_6  and  C_7
REMARK    2  A    between atoms: C_7  and  N_8
REMARK    3  A    between atoms: C_15  and  C_17
REMARK    4  A    between atoms: N_19  and  C_20
REMARK    5  A    between atoms: C_20  and  C_21
REMARK    6  A    between atoms: C_21  and  C_22
REMARK                            x       y       z     vdW  Elec       q    Type
REMARK                         _______ _______ _______ _____ _____    ______ ____
ROOT
ATOM      1  N   UNL     1      -1.726  -1.017  -1.368  0.00  0.00    -0.292 N 
ATOM      2  C   UNL     1      -2.580  -0.059  -2.050  0.00  0.00    +0.110 C 
ATOM      3  C   UNL     1      -1.809   0.943  -2.909  0.00  0.00    +0.042 C 
ATOM      4  C   UNL     1      -0.730   0.212  -3.716  0.00  0.00    +0.146 C 
ATOM      5  N   UNL     1      -1.269  -1.037  -4.259  0.00  0.00    -0.258 N 
ATOM      6  C   UNL     1      -1.560  -2.130  -3.485  0.00  0.00    +0.124 A 
ATOM      7  C   UNL     1      -2.046  -3.099  -4.297  0.00  0.00    +0.067 A 
ATOM      8  C   UNL     1      -2.026  -2.533  -5.592  0.00  0.00    +0.148 A 
ATOM      9  N   UNL     1      -1.549  -1.306  -5.482  0.00  0.00    -0.166 NA
ATOM     10  C   UNL     1      -1.331  -2.135  -2.025  0.00  0.00    +0.265 C 
ATOM     11  O   UNL     1      -0.826  -3.082  -1.451  0.00  0.00    -0.268 OA
ENDROOT
BRANCH   8  12
ATOM     12  C   UNL     1      -2.460  -3.193  -6.841  0.00  0.00    +0.264 C 
ATOM     13  O   UNL     1      -2.884  -4.332  -6.810  0.00  0.00    -0.268 OA
ATOM     14  N   UNL     1      -2.386  -2.533  -8.013  0.00  0.00    -0.310 N 
ATOM     15  H   UNL     1      -2.048  -1.624  -8.037  0.00  0.00    +0.149 HD
BRANCH  14  16
ATOM     16  C   UNL     1      -2.817  -3.188  -9.251  0.00  0.00    +0.109 C 
BRANCH  16  17
ATOM     17  C   UNL     1      -2.630  -2.227 -10.427  0.00  0.00    +0.052 C 
BRANCH  17  18
ATOM     18  C   UNL     1      -3.073  -2.900 -11.701  0.00  0.00    -0.040 C 
ATOM     19  C   UNL     1      -4.286  -2.806 -12.291  0.00  0.00    +0.000 A 
ATOM     20  C   UNL     1      -5.510  -2.078 -11.937  0.00  0.00    +0.030 A 
ATOM     21  C   UNL     1      -6.592  -2.182 -12.743  0.00  0.00    +0.042 A 
ATOM     22  C   UNL     1      -6.573  -2.967 -13.905  0.00  0.00    +0.022 A 
ATOM     23  C   UNL     1      -5.486  -3.665 -14.295  0.00  0.00    +0.027 A 
ATOM     24  C   UNL     1      -4.292  -3.628 -13.522  0.00  0.00    +0.043 A 
ATOM     25  N   UNL     1      -3.128  -4.207 -13.687  0.00  0.00    -0.380 N 
ATOM     26  C   UNL     1      -2.248  -3.812 -12.581  0.00  0.00    +0.144 C 
ATOM     27 CL   UNL     1      -8.042  -1.321 -12.327  0.00  0.00    -0.084 Cl
ATOM     28  H   UNL     1      -2.886  -4.794 -14.420  0.00  0.00    +0.160 HD
ENDBRANCH  17  18
ENDBRANCH  16  17
ENDBRANCH  14  16
ENDBRANCH   8  12
BRANCH   1  29
ATOM     29  C   UNL     1      -1.293  -0.775   0.011  0.00  0.00    +0.143 C 
BRANCH  29  35
ATOM     30  C   UNL     1      -0.017   1.378   0.010  0.00  0.00    +0.006 A 
ATOM     31  C   UNL     1       1.171   2.086   0.002  0.00  0.00    +0.020 A 
ATOM     32  C   UNL     1       2.378   1.410  -0.013  0.00  0.00    +0.041 A 
ATOM     33  C   UNL     1       2.396   0.027  -0.021  0.00  0.00    +0.020 A 
ATOM     34  C   UNL     1       1.208  -0.679  -0.013  0.00  0.00    +0.006 A 
ATOM     35  C   UNL     1       0.002  -0.004   0.002  0.00  0.00    -0.030 A 
ATOM     36 CL   UNL     1       3.870   2.298  -0.023  0.00  0.00    -0.084 Cl
ENDBRANCH  29  35
ENDBRANCH   1  29
TORSDOF 6
