REMARK  Name = ZINC40825243
REMARK  7 active torsions:
REMARK  status: ('A' for Active; 'I' for Inactive)
REMARK    1  A    between atoms: C_1  and  C_2
REMARK    2  A    between atoms: C_6  and  C_7
REMARK    3  A    between atoms: N_9  and  C_10
REMARK    4  A    between atoms: N_21  and  N_22
REMARK    5  A    between atoms: N_22  and  C_23
REMARK    6  A    between atoms: C_23  and  N_25
REMARK    7  A    between atoms: N_25  and  C_26
REMARK                            x       y       z     vdW  Elec       q    Type
REMARK                         _______ _______ _______ _____ _____    ______ ____
ROOT
ATOM      1  C   UNL     1       0.989   1.543   0.559  0.00  0.00    +0.048 C 
ATOM      2  C   UNL     1       0.768   0.053   0.573  0.00  0.00    +0.009 A 
ATOM      3  C   UNL     1       0.423  -0.756  -0.517  0.00  0.00    +0.042 A 
ATOM      4  C   UNL     1       0.323  -2.048  -0.058  0.00  0.00    +0.115 A 
ATOM      5  O   UNL     1       0.594  -2.043   1.246  0.00  0.00    -0.454 OA
ATOM      6  C   UNL     1       0.870  -0.782   1.651  0.00  0.00    +0.193 A 
ATOM      7  C   UNL     1      -0.040  -3.209  -0.947  0.00  0.00    +0.075 C 
ATOM      8  C   UNL     1      -0.748  -2.688  -2.201  0.00  0.00    +0.014 C 
ATOM      9  C   UNL     1       0.089  -1.601  -2.882  0.00  0.00    +0.058 C 
ATOM     10  C   UNL     1       0.186  -0.412  -1.937  0.00  0.00    +0.070 C 
ATOM     11  N   UNL     1       0.070   0.813  -2.346  0.00  0.00    -0.185 NA
ENDROOT
BRANCH   6  12
ATOM     12  C   UNL     1       1.218  -0.378   3.017  0.00  0.00    +0.284 C 
ATOM     13  O   UNL     1       1.445   0.791   3.267  0.00  0.00    -0.266 OA
ATOM     14  N   UNL     1       1.286  -1.302   3.996  0.00  0.00    -0.278 N 
ATOM     15  H   UNL     1       1.023  -2.218   3.818  0.00  0.00    +0.155 HD
BRANCH  14  16
ATOM     16  C   UNL     1       1.736  -0.939   5.270  0.00  0.00    +0.048 A 
ATOM     17  C   UNL     1       2.532   0.188   5.432  0.00  0.00    +0.024 A 
ATOM     18  C   UNL     1       2.975   0.544   6.691  0.00  0.00    +0.002 A 
ATOM     19  C   UNL     1       2.628  -0.221   7.790  0.00  0.00    +0.001 A 
ATOM     20  C   UNL     1       1.836  -1.344   7.633  0.00  0.00    +0.017 A 
ATOM     21  C   UNL     1       1.384  -1.702   6.377  0.00  0.00    +0.039 A 
ATOM     22 BR   UNL     1       0.294  -3.232   6.163  0.00  0.00    -0.048 Br
ENDBRANCH  14  16
ENDBRANCH   6  12
BRANCH  11  23
ATOM     23  N   UNL     1      -0.154   1.081  -3.703  0.00  0.00    -0.218 N 
ATOM     24  H   UNL     1      -0.222   0.349  -4.337  0.00  0.00    +0.176 HD
BRANCH  23  25
ATOM     25  C   UNL     1      -0.275   2.354  -4.128  0.00  0.00    +0.154 C 
ATOM     26  S   UNL     1      -0.549   2.680  -5.787  0.00  0.00    -0.017 S 
BRANCH  25  27
ATOM     27  N   UNL     1      -0.181   3.370  -3.248  0.00  0.00    -0.296 N 
ATOM     28  H   UNL     1       0.054   3.191  -2.324  0.00  0.00    +0.154 HD
BRANCH  27  29
ATOM     29  C   UNL     1      -0.423   4.682  -3.667  0.00  0.00    +0.033 A 
ATOM     30  C   UNL     1      -1.472   4.953  -4.536  0.00  0.00    +0.023 A 
ATOM     31  C   UNL     1      -1.708   6.250  -4.948  0.00  0.00    +0.002 A 
ATOM     32  C   UNL     1      -0.902   7.279  -4.495  0.00  0.00    +0.000 A 
ATOM     33  C   UNL     1       0.142   7.012  -3.629  0.00  0.00    +0.002 A 
ATOM     34  C   UNL     1       0.381   5.718  -3.209  0.00  0.00    +0.023 A 
ENDBRANCH  27  29
ENDBRANCH  25  27
ENDBRANCH  23  25
ENDBRANCH  11  23
TORSDOF 6
