REMARK  Name = ZINC41097658
REMARK  5 active torsions:
REMARK  status: ('A' for Active; 'I' for Inactive)
REMARK    1  A    between atoms: C_1  and  C_2
REMARK    2  A    between atoms: C_7  and  N_12
REMARK    3  A    between atoms: C_9  and  C_11
REMARK    4  A    between atoms: C_13  and  C_15
REMARK    5  A    between atoms: C_15  and  N_16
REMARK                            x       y       z     vdW  Elec       q    Type
REMARK                         _______ _______ _______ _____ _____    ______ ____
ROOT
ATOM      1  N   UNL     1       3.327  -5.572   3.361  0.00  0.00    -0.215 N 
ATOM      2  C   UNL     1       2.668  -6.727   3.628  0.00  0.00    +0.247 C 
ATOM      3  O   UNL     1       1.692  -6.823   4.321  0.00  0.00    -0.273 OA
ATOM      4  C   UNL     1       3.441  -7.780   2.842  0.00  0.00    +0.113 C 
ATOM      5  C   UNL     1       2.756  -7.953   1.476  0.00  0.00    +0.035 C 
ATOM      6  C   UNL     1       2.072  -9.323   1.379  0.00  0.00    +0.003 C 
ATOM      7  C   UNL     1       0.584  -9.241   1.703  0.00  0.00    +0.000 C 
ATOM      8  C   UNL     1       0.409  -9.146   3.228  0.00  0.00    +0.000 C 
ATOM      9  C   UNL     1       1.352 -10.138   3.908  0.00  0.00    +0.000 C 
ATOM     10  C   UNL     1       2.511  -9.400   4.572  0.00  0.00    +0.003 C 
ATOM     11  C   UNL     1       3.636  -9.068   3.603  0.00  0.00    +0.035 C 
ATOM     12  N   UNL     1       4.744  -7.121   2.620  0.00  0.00    -0.285 N 
ATOM     13  C   UNL     1       4.541  -5.811   2.850  0.00  0.00    +0.310 C 
ATOM     14  O   UNL     1       5.364  -4.947   2.624  0.00  0.00    -0.252 OA
ATOM     15  H   UNL     1       5.571  -7.551   2.359  0.00  0.00    +0.151 HD
ENDROOT
BRANCH   1  16
ATOM     16  C   UNL     1       2.785  -4.239   3.627  0.00  0.00    +0.213 C 
BRANCH  16  18
ATOM     17  N   UNL     1       1.471  -2.526   2.420  0.00  0.00    -0.311 N 
ATOM     18  C   UNL     1       2.056  -3.740   2.406  0.00  0.00    +0.231 C 
ATOM     19  O   UNL     1       1.996  -4.431   1.411  0.00  0.00    -0.274 OA
ATOM     20  H   UNL     1       1.520  -1.974   3.216  0.00  0.00    +0.149 HD
BRANCH  17  26
ATOM     21  C   UNL     1      -0.019   1.526   0.010  0.00  0.00    +0.008 C 
ATOM     22  C   UNL     1       0.002  -0.004   0.002  0.00  0.00    -0.009 C 
ATOM     23  C   UNL     1      -1.433  -0.534   0.013  0.00  0.00    +0.003 C 
ATOM     24  C   UNL     1      -1.413  -2.063   0.004  0.00  0.00    +0.002 C 
ATOM     25  C   UNL     1      -0.673  -2.570   1.244  0.00  0.00    +0.022 C 
ATOM     26  C   UNL     1       0.763  -2.041   1.233  0.00  0.00    +0.076 C 
ATOM     27  C   UNL     1       0.742  -0.511   1.242  0.00  0.00    +0.009 C 
ATOM     28  C   UNL     1       0.026  -0.018   2.500  0.00  0.00    +0.009 C 
ENDBRANCH  17  26
ENDBRANCH  16  18
ENDBRANCH   1  16
TORSDOF 3
