REMARK  Name = ZINC41163731
REMARK  6 active torsions:
REMARK  status: ('A' for Active; 'I' for Inactive)
REMARK    1  A    between atoms: C_1  and  C_2
REMARK    2  A    between atoms: C_2  and  C_3
REMARK    3  A    between atoms: C_3  and  C_4
REMARK    4  A    between atoms: C_3  and  C_5
REMARK    5  A    between atoms: C_3  and  N_21
REMARK    6  A    between atoms: C_7  and  C_10
REMARK                            x       y       z     vdW  Elec       q    Type
REMARK                         _______ _______ _______ _____ _____    ______ ____
ROOT
ATOM      1  C   UNL     1       0.762  -2.018   1.233  0.00  0.00    +0.067 A 
ATOM      2  N   UNL     1       1.211  -2.827   2.158  0.00  0.00    -0.245 NA
ATOM      3  C   UNL     1       1.161  -4.142   2.006  0.00  0.00    +0.078 A 
ATOM      4  C   UNL     1       0.616  -4.603   0.838  0.00  0.00    +0.075 A 
ATOM      5  S   UNL     1       0.206  -3.061   0.036  0.00  0.00    -0.081 S 
ENDROOT
BRANCH   3   6
ATOM      6  C   UNL     1       1.668  -5.068   3.049  0.00  0.00    +0.005 A 
ATOM      7  C   UNL     1       2.114  -4.566   4.270  0.00  0.00    +0.014 A 
ATOM      8  C   UNL     1       2.587  -5.426   5.242  0.00  0.00    +0.050 A 
ATOM      9  C   UNL     1       2.616  -6.790   5.001  0.00  0.00    +0.162 A 
ATOM     10  C   UNL     1       2.172  -7.296   3.786  0.00  0.00    +0.163 A 
ATOM     11  C   UNL     1       1.693  -6.442   2.810  0.00  0.00    +0.059 A 
ATOM     12  O   UNL     1       2.206  -8.642   3.564  0.00  0.00    -0.488 OA
ATOM     13  C   UNL     1       3.506  -9.225   3.451  0.00  0.00    +0.232 C 
ATOM     14  C   UNL     1       4.072  -9.551   4.824  0.00  0.00    +0.082 C 
ATOM     15  C   UNL     1       4.314  -8.305   5.661  0.00  0.00    +0.232 C 
ATOM     16  O   UNL     1       3.081  -7.646   5.957  0.00  0.00    -0.488 OA
ENDBRANCH   3   6
BRANCH   1  17
ATOM     17  C   UNL     1       0.742  -0.511   1.242  0.00  0.00    -0.024 C 
ATOM     18  C   UNL     1       2.178   0.019   1.231  0.00  0.00    -0.004 C 
BRANCH  17  19
ATOM     19  N   UNL     1       0.054  -0.037   2.450  0.00  0.00    +0.386 N 
ATOM     20  H   UNL     1      -0.892  -0.386   2.457  0.00  0.00    -0.089 HD
ATOM     21  H   UNL     1       0.542  -0.371   3.268  0.00  0.00    -0.089 HD
ATOM     22  H   UNL     1       0.041   0.972   2.456  0.00  0.00    -0.089 HD
ENDBRANCH  17  19
BRANCH  17  24
ATOM     23  C   UNL     1      -0.019   1.526   0.010  0.00  0.00    +0.003 C 
ATOM     24  C   UNL     1       0.002  -0.004   0.002  0.00  0.00    -0.010 C 
ENDBRANCH  17  24
ENDBRANCH   1  17
TORSDOF 4
