REMARK  Name = ZINC49523488
REMARK  8 active torsions:
REMARK  status: ('A' for Active; 'I' for Inactive)
REMARK    1  A    between atoms: C_1  and  S_2
REMARK    2  A    between atoms: S_2  and  C_3
REMARK    3  A    between atoms: C_8  and  C_9
REMARK    4  A    between atoms: C_9  and  N_10
REMARK    5  A    between atoms: C_13  and  C_16
REMARK    6  A    between atoms: C_16  and  N_17
REMARK    7  A    between atoms: N_20  and  C_21
REMARK    8  A    between atoms: C_21  and  C_22
REMARK                            x       y       z     vdW  Elec       q    Type
REMARK                         _______ _______ _______ _____ _____    ______ ____
ROOT
ATOM      1  C   UNL     1       0.743  -4.710   5.099  0.00  0.00    +0.109 C 
ENDROOT
BRANCH   1   5
ATOM      2  N   UNL     1      -0.480  -3.053   1.353  0.00  0.00    +0.382 N 
ATOM      3  C   UNL     1      -1.546  -3.561   2.226  0.00  0.00    -0.078 C 
ATOM      4  C   UNL     1      -1.022  -3.680   3.659  0.00  0.00    -0.014 C 
ATOM      5  C   UNL     1       0.165  -4.647   3.684  0.00  0.00    +0.003 C 
ATOM      6  C   UNL     1       1.239  -4.146   2.714  0.00  0.00    -0.014 C 
ATOM      7  C   UNL     1       0.632  -4.009   1.316  0.00  0.00    -0.078 C 
ATOM      8  H   UNL     1      -0.150  -2.168   1.709  0.00  0.00    -0.081 HD
BRANCH   2   9
ATOM      9  C   UNL     1      -1.009  -2.866  -0.004  0.00  0.00    -0.042 C 
BRANCH   9  15
ATOM     10  C   UNL     1      -1.702  -0.454   0.016  0.00  0.00    +0.009 A 
ATOM     11  C   UNL     1      -2.682   0.532   0.025  0.00  0.00    +0.015 A 
ATOM     12  C   UNL     1      -4.016   0.176   0.036  0.00  0.00    +0.001 A 
ATOM     13  C   UNL     1      -4.377  -1.159   0.038  0.00  0.00    +0.000 A 
ATOM     14  C   UNL     1      -3.405  -2.142   0.029  0.00  0.00    +0.003 A 
ATOM     15  C   UNL     1      -2.068  -1.794   0.012  0.00  0.00    -0.051 A 
BRANCH  10  17
ATOM     16  C   UNL     1      -0.022   1.810   0.012  0.00  0.00    +0.090 C 
ATOM     17  S   UNL     1       0.002  -0.004   0.002  0.00  0.00    -0.128 S 
ENDBRANCH  10  17
ENDBRANCH   9  15
ENDBRANCH   2   9
ENDBRANCH   1   5
BRANCH   1  18
ATOM     18  N   UNL     1       1.801  -5.723   5.150  0.00  0.00    -0.299 N 
ATOM     19  C   UNL     1       2.457  -5.955   6.304  0.00  0.00    +0.300 C 
ATOM     20  O   UNL     1       2.172  -5.324   7.303  0.00  0.00    -0.253 OA
ATOM     21  N   UNL     1       3.430  -6.886   6.350  0.00  0.00    -0.295 N 
ATOM     22  H   UNL     1       2.029  -6.226   4.353  0.00  0.00    +0.150 HD
ATOM     23  H   UNL     1       3.658  -7.390   5.553  0.00  0.00    +0.151 HD
BRANCH  21  24
ATOM     24  C   UNL     1       4.144  -7.138   7.605  0.00  0.00    +0.141 C 
BRANCH  24  25
ATOM     25  C   UNL     1       5.173  -8.218   7.389  0.00  0.00    -0.023 A 
ATOM     26  C   UNL     1       4.911  -9.499   7.766  0.00  0.00    +0.006 A 
ATOM     27  C   UNL     1       5.850 -10.510   7.574  0.00  0.00    +0.001 A 
ATOM     28  C   UNL     1       7.058 -10.246   7.005  0.00  0.00    +0.008 A 
ATOM     29  C   UNL     1       7.365  -8.935   6.603  0.00  0.00    -0.018 A 
ATOM     30  C   UNL     1       6.407  -7.908   6.792  0.00  0.00    -0.013 A 
ATOM     31  C   UNL     1       6.712  -6.598   6.385  0.00  0.00    +0.009 A 
ATOM     32  C   UNL     1       7.917  -6.335   5.810  0.00  0.00    +0.001 A 
ATOM     33  C   UNL     1       8.857  -7.346   5.618  0.00  0.00    +0.001 A 
ATOM     34  C   UNL     1       8.602  -8.623   6.012  0.00  0.00    +0.008 A 
ENDBRANCH  24  25
ENDBRANCH  21  24
ENDBRANCH   1  18
TORSDOF 7
