REMARK  Name = ZINC15557164
REMARK  7 active torsions:
REMARK  status: ('A' for Active; 'I' for Inactive)
REMARK    1  A    between atoms: C_1  and  C_2
REMARK    2  A    between atoms: C_9  and  C_11
REMARK    3  A    between atoms: N_13  and  N_14
REMARK    4  A    between atoms: C_15  and  C_17
REMARK    5  A    between atoms: C_17  and  S_18
REMARK    6  A    between atoms: S_18  and  C_19
REMARK    7  A    between atoms: C_19  and  C_20
REMARK                            x       y       z     vdW  Elec       q    Type
REMARK                         _______ _______ _______ _____ _____    ______ ____
ROOT
ATOM      1  N   UNL     1      -2.605   4.245 -11.189  0.00  0.00    -0.233 N 
ATOM      2  C   UNL     1      -2.605   3.984  -9.867  0.00  0.00    +0.239 C 
ATOM      3  O   UNL     1      -3.594   4.215  -9.204  0.00  0.00    -0.273 OA
ATOM      4  H   UNL     1      -1.814   4.060 -11.720  0.00  0.00    +0.173 HD
ENDROOT
BRANCH   1   7
ATOM      5  C   UNL     1      -3.747   5.042 -13.120  0.00  0.00    +0.267 C 
ATOM      6  O   UNL     1      -2.754   4.811 -13.786  0.00  0.00    -0.268 OA
ATOM      7  N   UNL     1      -3.747   4.781 -11.798  0.00  0.00    -0.230 N 
ATOM      8  H   UNL     1      -4.538   4.966 -11.267  0.00  0.00    +0.173 HD
BRANCH   5  16
ATOM      9  C   UNL     1      -8.387   8.081 -18.279  0.00  0.00    +0.008 C 
ATOM     10  C   UNL     1      -7.927   7.804 -16.846  0.00  0.00    -0.009 C 
ATOM     11  C   UNL     1      -9.071   7.157 -16.061  0.00  0.00    +0.009 C 
ATOM     12  C   UNL     1      -8.696   7.134 -14.572  0.00  0.00    +0.043 C 
ATOM     13  C   UNL     1      -7.303   6.601 -14.444  0.00  0.00    -0.006 A 
ATOM     14  C   UNL     1      -6.380   6.460 -15.441  0.00  0.00    -0.036 A 
ATOM     15  C   UNL     1      -5.147   5.940 -15.082  0.00  0.00    +0.024 A 
ATOM     16  C   UNL     1      -4.942   5.604 -13.757  0.00  0.00    +0.076 A 
ATOM     17  S   UNL     1      -6.514   6.025 -13.025  0.00  0.00    -0.088 S 
ATOM     18  C   UNL     1      -6.718   6.868 -16.873  0.00  0.00    +0.039 C 
ENDBRANCH   5  16
ENDBRANCH   1   7
BRANCH   2  19
ATOM     19  C   UNL     1      -1.377   3.407  -9.213  0.00  0.00    +0.166 C 
BRANCH  19  20
ATOM     20  S   UNL     1      -1.689   3.172  -7.441  0.00  0.00    -0.144 S 
BRANCH  20  21
ATOM     21  C   UNL     1      -0.135   2.480  -6.809  0.00  0.00    +0.143 C 
BRANCH  21  22
ATOM     22  C   UNL     1      -0.261   2.234  -5.328  0.00  0.00    +0.121 A 
ATOM     23  N   UNL     1       0.793   1.715  -4.647  0.00  0.00    -0.310 N 
ATOM     24  H   UNL     1       1.613   1.509  -5.125  0.00  0.00    +0.170 HD
ATOM     25  C   UNL     1       0.724   1.479  -3.323  0.00  0.00    +0.260 A 
ATOM     26  O   UNL     1       1.678   1.012  -2.725  0.00  0.00    -0.267 OA
ATOM     27  C   UNL     1      -0.492   1.786  -2.631  0.00  0.00    +0.075 A 
ATOM     28  C   UNL     1      -0.791   1.612  -1.202  0.00  0.00    -0.023 A 
ATOM     29  C   UNL     1      -2.016   1.978  -0.788  0.00  0.00    -0.004 A 
ATOM     30  S   UNL     1      -2.837   2.567  -2.251  0.00  0.00    -0.073 S 
ATOM     31  C   UNL     1      -1.523   2.318  -3.416  0.00  0.00    +0.116 A 
ATOM     32  N   UNL     1      -1.381   2.524  -4.723  0.00  0.00    -0.226 NA
ATOM     33  C   UNL     1      -2.207   1.760   0.689  0.00  0.00    +0.043 C 
ATOM     34  C   UNL     1      -0.772   1.602   1.246  0.00  0.00    +0.010 C 
ATOM     35  C   UNL     1      -0.013   1.086   0.008  0.00  0.00    +0.037 C 
ENDBRANCH  21  22
ENDBRANCH  20  21
ENDBRANCH  19  20
ENDBRANCH   2  19
TORSDOF 6
