REMARK  Name = ZINC15913878
REMARK  6 active torsions:
REMARK  status: ('A' for Active; 'I' for Inactive)
REMARK    1  A    between atoms: C_1  and  C_2
REMARK    2  A    between atoms: C_5  and  N_9
REMARK    3  A    between atoms: C_6  and  C_8
REMARK    4  A    between atoms: C_15  and  C_16
REMARK    5  A    between atoms: C_15  and  C_18
REMARK    6  A    between atoms: N_20  and  C_21
REMARK                            x       y       z     vdW  Elec       q    Type
REMARK                         _______ _______ _______ _____ _____    ______ ____
ROOT
ATOM      1  N   UNL     1       2.538   0.009  -0.487  0.00  0.00    -0.232 N 
ATOM      2  C   UNL     1       3.724  -0.574  -0.443  0.00  0.00    +0.235 C 
ATOM      3  O   UNL     1       3.849  -1.780  -0.405  0.00  0.00    -0.274 OA
ATOM      4  C   UNL     1       4.921   0.363  -0.437  0.00  0.00    +0.172 C 
ATOM      5  S   UNL     1       4.065   1.987  -0.507  0.00  0.00    -0.099 S 
ATOM      6  C   UNL     1       2.388   1.373  -0.536  0.00  0.00    +0.098 C 
ATOM      7  C   UNL     1       1.202   2.108  -0.589  0.00  0.00    +0.142 C 
ENDROOT
BRANCH   1  12
ATOM      8  C   UNL     1      -2.108  -3.250  -0.494  0.00  0.00    +0.044 C 
ATOM      9  C   UNL     1      -0.874  -2.385  -0.492  0.00  0.00    -0.050 A 
ATOM     10  C   UNL     1      -0.363  -1.909  -1.686  0.00  0.00    +0.005 A 
ATOM     11  C   UNL     1       0.767  -1.116  -1.688  0.00  0.00    +0.024 A 
ATOM     12  C   UNL     1       1.391  -0.796  -0.489  0.00  0.00    +0.045 A 
ATOM     13  C   UNL     1       0.879  -1.281   0.707  0.00  0.00    -0.028 A 
ATOM     14  C   UNL     1      -0.255  -2.069   0.703  0.00  0.00    +0.008 A 
ATOM     15  C   UNL     1       1.557  -0.942   2.010  0.00  0.00    +0.046 C 
ENDBRANCH   1  12
BRANCH   7  16
ATOM     16  C   UNL     1      -0.084   1.433  -0.426  0.00  0.00    +0.261 C 
ATOM     17  O   UNL     1      -0.744   1.135  -1.405  0.00  0.00    -0.269 OA
ATOM     18  N   UNL     1      -0.543   1.145   0.808  0.00  0.00    -0.280 N 
ATOM     19  H   UNL     1      -0.036   1.417   1.589  0.00  0.00    +0.155 HD
BRANCH  18  20
ATOM     20  C   UNL     1      -1.750   0.454   0.963  0.00  0.00    +0.052 A 
ATOM     21  C   UNL     1      -2.377  -0.108  -0.141  0.00  0.00    +0.026 A 
ATOM     22  C   UNL     1      -3.566  -0.793   0.015  0.00  0.00    +0.022 A 
ATOM     23  C   UNL     1      -4.138  -0.913   1.269  0.00  0.00    +0.042 A 
ATOM     24  C   UNL     1      -3.518  -0.351   2.371  0.00  0.00    +0.041 A 
ATOM     25  C   UNL     1      -2.326   0.332   2.222  0.00  0.00    +0.064 A 
ATOM     26 CL   UNL     1      -1.550   1.039   3.605  0.00  0.00    -0.082 Cl
ATOM     27 CL   UNL     1      -5.635  -1.770   1.460  0.00  0.00    -0.083 Cl
ENDBRANCH  18  20
ENDBRANCH   7  16
BRANCH   7  28
ATOM     28  C   UNL     1       1.246   3.523  -0.804  0.00  0.00    +0.107 C 
ATOM     29  N   UNL     1       1.281   4.646  -0.974  0.00  0.00    -0.191 NA
ENDBRANCH   7  28
TORSDOF 4
