REMARK  Name = ZINC12653457
REMARK  8 active torsions:
REMARK  status: ('A' for Active; 'I' for Inactive)
REMARK    1  A    between atoms: C_1  and  C_2
REMARK    2  A    between atoms: C_2  and  C_3
REMARK    3  A    between atoms: C_2  and  N_65
REMARK    4  A    between atoms: C_4  and  C_5
REMARK    5  A    between atoms: C_4  and  N_65
REMARK    6  A    between atoms: C_5  and  O_28
REMARK    7  A    between atoms: C_10  and  C_27
REMARK    8  A    between atoms: C_21  and  C_26
REMARK                            x       y       z     vdW  Elec       q    Type
REMARK                         _______ _______ _______ _____ _____    ______ ____
ROOT
ATOM      1  C   UNL     1       1.615   6.715  -2.824  0.00  0.00    +0.057 C 
ATOM      2  C   UNL     1       2.859   6.713  -1.899  0.00  0.00    +0.034 C 
ATOM      3  C   UNL     1       2.329   6.520  -0.451  0.00  0.00    +0.007 C 
ATOM      4  C   UNL     1       0.989   5.807  -0.687  0.00  0.00    +0.001 C 
ATOM      5  C   UNL     1       0.416   6.608  -1.880  0.00  0.00    -0.002 C 
ATOM      6  C   UNL     1      -0.805   5.878  -2.384  0.00  0.00    +0.010 C 
ATOM      7  C   UNL     1      -1.851   5.796  -1.267  0.00  0.00    +0.005 C 
ATOM      8  C   UNL     1      -1.326   5.216   0.042  0.00  0.00    -0.001 C 
ATOM      9  C   UNL     1       0.008   5.820   0.456  0.00  0.00    -0.004 C 
ATOM     10  C   UNL     1       0.602   5.133   1.685  0.00  0.00    +0.004 C 
ATOM     11  C   UNL     1       0.686   3.626   1.435  0.00  0.00    +0.004 C 
ATOM     12  C   UNL     1      -0.746   3.106   1.287  0.00  0.00    -0.005 C 
ATOM     13  C   UNL     1      -1.388   3.692   0.035  0.00  0.00    -0.026 C 
ATOM     14  C   UNL     1      -0.769   3.123  -1.234  0.00  0.00    +0.007 C 
ATOM     15  C   UNL     1      -0.757   1.595  -1.226  0.00  0.00    +0.001 C 
ATOM     16  C   UNL     1      -0.013   1.086   0.008  0.00  0.00    +0.000 C 
ATOM     17  C   UNL     1      -0.734   1.580   1.262  0.00  0.00    +0.004 C 
ATOM     18  C   UNL     1      -2.882   3.294   0.064  0.00  0.00    +0.012 C 
ATOM     19  C   UNL     1       0.029   8.032  -1.461  0.00  0.00    +0.014 C 
ENDROOT
BRANCH   1  20
ATOM     20  O   UNL     1       1.550   7.948  -3.548  0.00  0.00    -0.390 OA
ATOM     21  H   UNL     1       2.281   8.080  -4.167  0.00  0.00    +0.210 HD
ENDBRANCH   1  20
BRANCH   1  22
ATOM     22  C   UNL     1       1.677   5.538  -3.794  0.00  0.00    -0.047 C 
BRANCH  22  23
ATOM     23  N   UNL     1       2.913   5.635  -4.593  0.00  0.00    +0.382 N 
ATOM     24  H   UNL     1       2.910   6.518  -5.116  0.00  0.00    -0.085 HD
ATOM     25  H   UNL     1       3.725   5.611  -3.964  0.00  0.00    -0.085 HD
BRANCH  23  27
ATOM     26  C   UNL     1       3.875   4.916  -6.727  0.00  0.00    -0.014 C 
ATOM     27  C   UNL     1       2.999   4.508  -5.541  0.00  0.00    -0.078 C 
ATOM     28  C   UNL     1       3.620   3.297  -4.840  0.00  0.00    -0.014 C 
ENDBRANCH  23  27
ENDBRANCH  22  23
ENDBRANCH   1  22
TORSDOF 4
