REMARK  Name = ZINC36202396
REMARK  13 active torsions:
REMARK  status: ('A' for Active; 'I' for Inactive)
REMARK    1  A    between atoms: C_1  and  O_2
REMARK    2  A    between atoms: O_2  and  C_3
REMARK    3  A    between atoms: C_7  and  C_11
REMARK    4  A    between atoms: C_8  and  O_9
REMARK    5  A    between atoms: O_9  and  C_10
REMARK    6  A    between atoms: C_11  and  N_12
REMARK    7  A    between atoms: N_12  and  C_13
REMARK    8  A    between atoms: N_12  and  C_31
REMARK    9  A    between atoms: C_13  and  C_14
REMARK   10  A    between atoms: C_17  and  C_19
REMARK   11  A    between atoms: C_19  and  C_20
REMARK   12  A    between atoms: C_19  and  C_25
REMARK   13  A    between atoms: C_19  and  O_30
REMARK                            x       y       z     vdW  Elec       q    Type
REMARK                         _______ _______ _______ _____ _____    ______ ____
ROOT
ATOM      1  C   UNL     1       1.759  -6.265  -0.434  0.00  0.00    +0.089 A 
ATOM      2  C   UNL     1       1.444  -6.433  -1.731  0.00  0.00    +0.043 A 
ATOM      3  C   UNL     1       0.217  -7.134  -1.767  0.00  0.00    +0.048 A 
ATOM      4  C   UNL     1      -0.145  -7.352  -0.490  0.00  0.00    +0.147 A 
ATOM      5  O   UNL     1       0.796  -6.829   0.313  0.00  0.00    -0.463 OA
ENDROOT
BRANCH   1   6
ATOM      6  C   UNL     1       2.987  -5.568   0.092  0.00  0.00    -0.002 C 
BRANCH   6   7
ATOM      7  N   UNL     1       2.677  -4.155   0.348  0.00  0.00    +0.389 N 
ATOM      8  H   UNL     1       2.317  -3.732  -0.494  0.00  0.00    -0.080 HD
BRANCH   7   9
ATOM      9  C   UNL     1       3.898  -3.454   0.766  0.00  0.00    -0.068 C 
ATOM     10  C   UNL     1       4.193  -2.101   0.115  0.00  0.00    -0.017 C 
ATOM     11  C   UNL     1       5.027  -3.328  -0.259  0.00  0.00    -0.017 C 
ENDBRANCH   7   9
BRANCH   7  12
ATOM     12  C   UNL     1       1.669  -4.061   1.413  0.00  0.00    -0.038 C 
BRANCH  12  17
ATOM     13  C   UNL     1      -0.151  -0.791   0.848  0.00  0.00    +0.162 A 
ATOM     14  C   UNL     1       0.413   0.007   1.831  0.00  0.00    +0.049 A 
ATOM     15  C   UNL     1       1.378  -0.513   2.673  0.00  0.00    +0.004 A 
ATOM     16  C   UNL     1       1.783  -1.828   2.537  0.00  0.00    +0.005 A 
ATOM     17  C   UNL     1       1.225  -2.628   1.558  0.00  0.00    -0.019 A 
ATOM     18  C   UNL     1       0.252  -2.116   0.715  0.00  0.00    +0.163 A 
BRANCH  13  20
ATOM     19  C   UNL     1      -1.467   1.087   0.214  0.00  0.00    +0.277 C 
ATOM     20  O   UNL     1      -1.102  -0.281   0.019  0.00  0.00    -0.491 OA
ENDBRANCH  13  20
BRANCH  18  21
ATOM     21  O   UNL     1      -0.303  -2.904  -0.244  0.00  0.00    -0.491 OA
ATOM     22  C   UNL     1       0.254  -2.817  -1.557  0.00  0.00    +0.277 C 
ENDBRANCH  18  21
ENDBRANCH  12  17
ENDBRANCH   7  12
ENDBRANCH   6   7
ENDBRANCH   1   6
BRANCH   4  23
ATOM     23  C   UNL     1      -1.391  -8.068  -0.037  0.00  0.00    +0.186 C 
BRANCH  23  24
ATOM     24  C   UNL     1      -1.129  -8.749   1.282  0.00  0.00    +0.034 A 
ATOM     25  C   UNL     1      -1.676  -9.885   1.780  0.00  0.00    +0.015 A 
ATOM     26  C   UNL     1      -1.279 -10.329   3.027  0.00  0.00    +0.008 A 
ATOM     27  C   UNL     1      -0.355  -9.615   3.716  0.00  0.00    +0.045 A 
ATOM     28  S   UNL     1      -0.010  -8.273   2.590  0.00  0.00    -0.098 S 
ENDBRANCH  23  24
BRANCH  23  29
ATOM     29  C   UNL     1      -2.511  -7.073   0.126  0.00  0.00    +0.034 A 
ATOM     30  C   UNL     1      -3.846  -7.257  -0.023  0.00  0.00    +0.015 A 
ATOM     31  C   UNL     1      -4.697  -6.187   0.180  0.00  0.00    +0.008 A 
ATOM     32  C   UNL     1      -4.172  -4.985   0.522  0.00  0.00    +0.045 A 
ATOM     33  S   UNL     1      -2.425  -5.346   0.573  0.00  0.00    -0.098 S 
ENDBRANCH  23  29
BRANCH  23  34
ATOM     34  O   UNL     1      -1.761  -9.045  -1.012  0.00  0.00    -0.371 OA
ATOM     35  H   UNL     1      -1.945  -8.677  -1.887  0.00  0.00    +0.212 HD
ENDBRANCH  23  34
ENDBRANCH   4  23
TORSDOF 11
