REMARK  Name = ZINC09435728
REMARK  10 active torsions:
REMARK  status: ('A' for Active; 'I' for Inactive)
REMARK    1  A    between atoms: C_1  and  C_2
REMARK    2  A    between atoms: C_6  and  O_21
REMARK    3  A    between atoms: C_7  and  C_20
REMARK    4  A    between atoms: C_12  and  C_13
REMARK    5  A    between atoms: C_13  and  C_14
REMARK    6  A    between atoms: O_21  and  C_22
REMARK    7  A    between atoms: C_22  and  C_23
REMARK    8  A    between atoms: N_25  and  C_26
REMARK    9  A    between atoms: C_29  and  S_32
REMARK   10  A    between atoms: S_32  and  N_35
REMARK                            x       y       z     vdW  Elec       q    Type
REMARK                         _______ _______ _______ _____ _____    ______ ____
ROOT
ATOM      1  C   UNL     1       2.781  -0.773   6.176  0.00  0.00    +0.045 C 
ATOM      2  C   UNL     1       1.534   0.070   6.096  0.00  0.00    -0.030 A 
ATOM      3  C   UNL     1       0.964   0.450   4.802  0.00  0.00    +0.021 A 
ATOM      4  C   UNL     1       1.562   0.041   3.604  0.00  0.00    +0.015 A 
ATOM      5  C   UNL     1       1.011   0.410   2.411  0.00  0.00    +0.047 A 
ATOM      6  C   UNL     1      -0.143   1.190   2.378  0.00  0.00    +0.128 A 
ATOM      7  C   UNL     1      -0.745   1.608   3.554  0.00  0.00    +0.034 A 
ATOM      8  C   UNL     1      -0.201   1.238   4.775  0.00  0.00    +0.146 A 
ATOM      9  O   UNL     1      -0.774   1.631   5.933  0.00  0.00    -0.422 OA
ATOM     10  C   UNL     1      -0.257   1.285   7.123  0.00  0.00    +0.341 A 
ATOM     11  O   UNL     1      -0.808   1.663   8.141  0.00  0.00    -0.245 OA
ATOM     12  C   UNL     1       0.908   0.498   7.224  0.00  0.00    +0.045 A 
ATOM     13  C   UNL     1      -1.989   2.457   3.507  0.00  0.00    +0.051 C 
ENDROOT
BRANCH  12  14
ATOM     14  C   UNL     1       1.458   0.132   8.578  0.00  0.00    +0.077 C 
BRANCH  14  15
ATOM     15  C   UNL     1       2.437   1.188   9.024  0.00  0.00    -0.043 A 
ATOM     16  C   UNL     1       3.777   1.065   8.709  0.00  0.00    +0.004 A 
ATOM     17  C   UNL     1       4.675   2.035   9.114  0.00  0.00    +0.000 A 
ATOM     18  C   UNL     1       4.233   3.124   9.843  0.00  0.00    +0.000 A 
ATOM     19  C   UNL     1       2.894   3.244  10.163  0.00  0.00    +0.000 A 
ATOM     20  C   UNL     1       1.996   2.276   9.754  0.00  0.00    +0.004 A 
ENDBRANCH  14  15
ENDBRANCH  12  14
BRANCH   6  21
ATOM     21  O   UNL     1      -0.679   1.549   1.184  0.00  0.00    -0.482 OA
BRANCH  21  22
ATOM     22  C   UNL     1      -0.009   1.091   0.008  0.00  0.00    +0.324 C 
BRANCH  22  23
ATOM     23  C   UNL     1      -0.743   1.583  -1.213  0.00  0.00    +0.255 C 
ATOM     24  O   UNL     1      -1.742   2.260  -1.088  0.00  0.00    -0.272 OA
ATOM     25  N   UNL     1      -0.288   1.272  -2.443  0.00  0.00    -0.283 N 
ATOM     26  H   UNL     1       0.546   0.789  -2.544  0.00  0.00    +0.155 HD
BRANCH  25  27
ATOM     27  C   UNL     1      -1.022   1.646  -3.575  0.00  0.00    +0.034 A 
ATOM     28  C   UNL     1      -1.045   0.822  -4.692  0.00  0.00    +0.025 A 
ATOM     29  C   UNL     1      -1.775   1.191  -5.805  0.00  0.00    +0.030 A 
ATOM     30  C   UNL     1      -2.472   2.386  -5.812  0.00  0.00    +0.105 A 
ATOM     31  C   UNL     1      -2.445   3.212  -4.703  0.00  0.00    +0.030 A 
ATOM     32  C   UNL     1      -1.722   2.845  -3.585  0.00  0.00    +0.025 A 
BRANCH  30  33
ATOM     33  S   UNL     1      -3.395   2.857  -7.237  0.00  0.00    +0.056 S 
ATOM     34  O   UNL     1      -3.703   1.658  -7.936  0.00  0.00    -0.153 OA
ATOM     35  O   UNL     1      -4.399   3.757  -6.790  0.00  0.00    -0.153 OA
BRANCH  33  36
ATOM     36  N   UNL     1      -2.380   3.727  -8.213  0.00  0.00    -0.204 NA
ATOM     37  H   UNL     1      -2.502   3.712  -9.176  0.00  0.00    +0.144 HD
ATOM     38  H   UNL     1      -1.662   4.250  -7.823  0.00  0.00    +0.144 HD
ENDBRANCH  33  36
ENDBRANCH  30  33
ENDBRANCH  25  27
ENDBRANCH  22  23
ENDBRANCH  21  22
ENDBRANCH   6  21
TORSDOF 8
