REMARK  Name = ZINC01327943
REMARK  3 active torsions:
REMARK  status: ('A' for Active; 'I' for Inactive)
REMARK    1  A    between atoms: C_10  and  N_11
REMARK    2  A    between atoms: N_11  and  S_18
REMARK    3  A    between atoms: S_18  and  C_21
REMARK                            x       y       z     vdW  Elec       q    Type
REMARK                         _______ _______ _______ _____ _____    ______ ____
ROOT
ATOM      1  N   UNL     1      -2.631   3.849   0.119  0.00  0.00    -0.148 N 
ATOM      2  C   UNL     1      -3.427   4.026   1.230  0.00  0.00    +0.176 C 
ATOM      3  N   UNL     1      -3.001   3.581   2.351  0.00  0.00    -0.262 NA
ATOM      4  C   UNL     1      -3.651   3.619   3.643  0.00  0.00    +0.145 C 
ATOM      5  C   UNL     1      -4.759   4.664   3.714  0.00  0.00    +0.034 C 
ATOM      6  C   UNL     1      -5.766   4.402   2.586  0.00  0.00    +0.079 C 
ATOM      7  S   UNL     1      -4.970   4.842   1.018  0.00  0.00    -0.089 S 
ENDROOT
BRANCH   1  17
ATOM      8  C   UNL     1       2.132   5.393   0.754  0.00  0.00    +0.001 A 
ATOM      9  C   UNL     1       0.911   6.054   0.636  0.00  0.00    +0.001 A 
ATOM     10  C   UNL     1      -0.248   5.361   0.468  0.00  0.00    +0.010 A 
ATOM     11  C   UNL     1      -0.217   3.958   0.413  0.00  0.00    +0.005 A 
ATOM     12  C   UNL     1       1.023   3.284   0.533  0.00  0.00    -0.016 A 
ATOM     13  C   UNL     1       2.200   4.034   0.705  0.00  0.00    +0.008 A 
ATOM     14  C   UNL     1       1.056   1.881   0.477  0.00  0.00    +0.008 A 
ATOM     15  C   UNL     1      -0.099   1.180   0.309  0.00  0.00    +0.002 A 
ATOM     16  C   UNL     1      -1.323   1.831   0.185  0.00  0.00    +0.026 A 
ATOM     17  C   UNL     1      -1.399   3.206   0.240  0.00  0.00    +0.067 A 
ENDBRANCH   1  17
BRANCH   1  18
ATOM     18  S   UNL     1      -3.138   4.399  -1.358  0.00  0.00    +0.082 S 
ATOM     19  O   UNL     1      -3.916   5.562  -1.113  0.00  0.00    -0.149 OA
ATOM     20  O   UNL     1      -1.993   4.411  -2.201  0.00  0.00    -0.149 OA
BRANCH  18  21
ATOM     21  C   UNL     1      -4.235   3.188  -2.017  0.00  0.00    +0.127 A 
ATOM     22  C   UNL     1      -4.748   2.200  -1.196  0.00  0.00    +0.030 A 
ATOM     23  C   UNL     1      -5.612   1.253  -1.712  0.00  0.00    +0.002 A 
ATOM     24  C   UNL     1      -5.958   1.287  -3.050  0.00  0.00    +0.002 A 
ATOM     25  C   UNL     1      -5.442   2.271  -3.873  0.00  0.00    +0.022 A 
ATOM     26  C   UNL     1      -4.580   3.222  -3.356  0.00  0.00    +0.068 A 
ATOM     27 CL   UNL     1      -3.931   4.458  -4.388  0.00  0.00    -0.082 Cl
ENDBRANCH  18  21
ENDBRANCH   1  18
TORSDOF 3
