REMARK  Name = ZINC04943455
REMARK  3 active torsions:
REMARK  status: ('A' for Active; 'I' for Inactive)
REMARK    1  A    between atoms: C_1  and  C_2
REMARK    2  A    between atoms: C_5  and  C_8
REMARK    3  A    between atoms: C_10  and  C_18
REMARK                            x       y       z     vdW  Elec       q    Type
REMARK                         _______ _______ _______ _____ _____    ______ ____
ROOT
ATOM      1  C   UNL     1      -0.916   5.735   0.041  0.00  0.00    +0.077 A 
ATOM      2  C   UNL     1       0.491   5.828   0.028  0.00  0.00    +0.061 A 
ATOM      3  C   UNL     1       1.228   4.690   0.015  0.00  0.00    +0.151 A 
ATOM      4  N   UNL     1       0.592   3.488   0.015  0.00  0.00    -0.190 N 
ATOM      5  C   UNL     1      -0.774   3.427   0.028  0.00  0.00    +0.255 A 
ATOM      6  N   UNL     1      -1.501   4.548   0.040  0.00  0.00    -0.211 NA
ATOM      7  N   UNL     1      -1.113   2.142   0.018  0.00  0.00    -0.176 NA
ATOM      8  C   UNL     1      -0.017   1.388   0.010  0.00  0.00    +0.234 A 
ATOM      9  N   UNL     1       1.048   2.163   0.004  0.00  0.00    -0.128 NA
ATOM     10  N   UNL     1       0.002  -0.004   0.002  0.00  0.00    -0.326 N 
ATOM     11  H   UNL     1       0.849  -0.478  -0.009  0.00  0.00    +0.145 HD
ATOM     12  H   UNL     1      -0.831  -0.500   0.007  0.00  0.00    +0.145 HD
ENDROOT
BRANCH   1  17
ATOM     13  C   UNL     1      -4.116  10.520   0.099  0.00  0.00    +0.044 C 
ATOM     14  C   UNL     1      -3.278   9.268   0.083  0.00  0.00    -0.050 A 
ATOM     15  C   UNL     1      -3.893   8.028   0.082  0.00  0.00    +0.004 A 
ATOM     16  C   UNL     1      -3.131   6.878   0.068  0.00  0.00    +0.010 A 
ATOM     17  C   UNL     1      -1.739   6.966   0.055  0.00  0.00    +0.001 A 
ATOM     18  C   UNL     1      -1.126   8.219   0.062  0.00  0.00    +0.010 A 
ATOM     19  C   UNL     1      -1.898   9.362   0.071  0.00  0.00    +0.004 A 
ENDBRANCH   1  17
BRANCH   3  20
ATOM     20  C   UNL     1       2.734   4.756   0.002  0.00  0.00    +0.434 C 
ATOM     21  F   UNL     1       3.188   4.783  -1.321  0.00  0.00    -0.164 F 
ATOM     22  F   UNL     1       3.156   5.915   0.663  0.00  0.00    -0.164 F 
ATOM     23  F   UNL     1       3.256   3.633   0.651  0.00  0.00    -0.164 F 
ENDBRANCH   3  20
TORSDOF 2
