REMARK  Name = ZINC21228985
REMARK  12 active torsions:
REMARK  status: ('A' for Active; 'I' for Inactive)
REMARK    1  A    between atoms: C_1  and  C_2
REMARK    2  A    between atoms: C_2  and  C_3
REMARK    3  A    between atoms: C_2  and  O_4
REMARK    4  A    between atoms: O_4  and  C_5
REMARK    5  A    between atoms: C_6  and  C_13
REMARK    6  A    between atoms: C_10  and  O_11
REMARK    7  A    between atoms: O_11  and  C_12
REMARK    8  A    between atoms: C_18  and  C_23
REMARK    9  A    between atoms: C_25  and  O_31
REMARK   10  A    between atoms: C_28  and  O_29
REMARK   11  A    between atoms: O_29  and  C_30
REMARK   12  A    between atoms: O_31  and  C_32
REMARK                            x       y       z     vdW  Elec       q    Type
REMARK                         _______ _______ _______ _____ _____    ______ ____
ROOT
ATOM      1  C   UNL     1      -4.168   0.443  -0.531  0.00  0.00    +0.140 C 
ATOM      2  C   UNL     1      -2.775   0.963  -0.796  0.00  0.00    +0.037 C 
ATOM      3  C   UNL     1      -1.892   1.362   0.136  0.00  0.00    +0.017 C 
ATOM      4  C   UNL     1      -0.517   1.870  -0.271  0.00  0.00    +0.060 C 
ATOM      5  C   UNL     1      -0.056   1.165  -1.545  0.00  0.00    +0.036 C 
ATOM      6  C   UNL     1      -1.085   1.461  -2.643  0.00  0.00    +0.088 C 
ATOM      7  C   UNL     1      -2.431   1.002  -2.168  0.00  0.00    +0.163 C 
ATOM      8  O   UNL     1      -3.255   0.652  -2.989  0.00  0.00    -0.292 OA
ATOM      9  N   UNL     1      -2.125   1.373   1.474  0.00  0.00    -0.316 N 
ATOM     10  C   UNL     1      -2.690   0.325   2.193  0.00  0.00    +0.052 A 
ATOM     11  C   UNL     1      -2.006  -0.341   3.195  0.00  0.00    +0.025 A 
ATOM     12  C   UNL     1      -2.659  -1.318   3.928  0.00  0.00    +0.002 A 
ATOM     13  C   UNL     1      -3.980  -1.623   3.658  0.00  0.00    +0.002 A 
ATOM     14  C   UNL     1      -4.657  -0.975   2.640  0.00  0.00    +0.025 A 
ATOM     15  C   UNL     1      -4.001  -0.009   1.892  0.00  0.00    +0.049 A 
ATOM     16  N   UNL     1      -4.629   0.632   0.827  0.00  0.00    -0.331 N 
ATOM     17  H   UNL     1      -1.861   2.259   2.070  0.00  0.00    +0.152 HD
ATOM     18  H   UNL     1      -5.487   1.290   1.030  0.00  0.00    +0.147 HD
ENDROOT
BRANCH   1  20
ATOM     19  C   UNL     1      -5.406  -1.680  -1.023  0.00  0.00    +0.168 A 
ATOM     20  C   UNL     1      -4.195  -1.031  -0.844  0.00  0.00    +0.023 A 
ATOM     21  C   UNL     1      -3.011  -1.738  -0.947  0.00  0.00    +0.009 A 
ATOM     22  C   UNL     1      -3.032  -3.090  -1.234  0.00  0.00    +0.004 A 
ATOM     23  C   UNL     1      -4.237  -3.742  -1.418  0.00  0.00    +0.049 A 
ATOM     24  C   UNL     1      -5.427  -3.040  -1.317  0.00  0.00    +0.162 A 
BRANCH  24  25
ATOM     25  O   UNL     1      -6.614  -3.679  -1.498  0.00  0.00    -0.491 OA
ATOM     26  C   UNL     1      -6.559  -5.077  -1.791  0.00  0.00    +0.277 C 
ENDBRANCH  24  25
BRANCH  19  27
ATOM     27  O   UNL     1      -6.572  -0.987  -0.917  0.00  0.00    -0.485 OA
BRANCH  27  29
ATOM     28  C   UNL     1      -7.973  -1.179  -2.876  0.00  0.00    +0.051 C 
ATOM     29  C   UNL     1      -7.019  -0.287  -2.079  0.00  0.00    +0.168 C 
ATOM     30  C   UNL     1      -7.748   0.990  -1.657  0.00  0.00    +0.051 C 
ENDBRANCH  27  29
ENDBRANCH  19  27
ENDBRANCH   1  20
BRANCH   5  31
ATOM     31  C   UNL     1       1.296   1.688  -1.957  0.00  0.00    +0.002 A 
ATOM     32  C   UNL     1       1.461   3.032  -2.235  0.00  0.00    +0.053 A 
ATOM     33  C   UNL     1       2.706   3.514  -2.610  0.00  0.00    +0.121 A 
ATOM     34  C   UNL     1       3.783   2.646  -2.717  0.00  0.00    +0.049 A 
ATOM     35  C   UNL     1       3.617   1.303  -2.443  0.00  0.00    +0.049 A 
ATOM     36  C   UNL     1       2.373   0.821  -2.063  0.00  0.00    +0.124 A 
BRANCH  36  37
ATOM     37  O   UNL     1       2.209  -0.502  -1.796  0.00  0.00    -0.495 OA
ATOM     38  C   UNL     1       3.361  -1.338  -1.925  0.00  0.00    +0.277 C 
ENDBRANCH  36  37
BRANCH  33  39
ATOM     39  O   UNL     1       2.870   4.837  -2.879  0.00  0.00    -0.495 OA
ATOM     40  C   UNL     1       4.178   5.264  -3.264  0.00  0.00    +0.277 C 
ENDBRANCH  33  39
ENDBRANCH   5  31
TORSDOF 7
