REMARK  Name = ZINC63362347
REMARK  5 active torsions:
REMARK  status: ('A' for Active; 'I' for Inactive)
REMARK    1  A    between atoms: C_1  and  C_2
REMARK    2  A    between atoms: C_2  and  C_4
REMARK    3  A    between atoms: C_2  and  N_18
REMARK    4  A    between atoms: N_6  and  C_7
REMARK    5  A    between atoms: C_21  and  C_37
REMARK                            x       y       z     vdW  Elec       q    Type
REMARK                         _______ _______ _______ _____ _____    ______ ____
ROOT
ATOM      1  N   UNL     1       0.688  -0.476  -1.203  0.00  0.00    -0.212 N 
ATOM      2  C   UNL     1       1.797  -1.245  -1.192  0.00  0.00    +0.249 C 
ATOM      3  O   UNL     1       2.412  -1.630  -0.221  0.00  0.00    -0.273 OA
ATOM      4  C   UNL     1       2.112  -1.526  -2.645  0.00  0.00    +0.136 C 
ATOM      5  C   UNL     1       3.506  -1.012  -3.003  0.00  0.00    +0.139 C 
ATOM      6  C   UNL     1       3.326   0.172  -3.942  0.00  0.00    -0.034 C 
ATOM      7  C   UNL     1       3.968   1.193  -3.379  0.00  0.00    -0.001 A 
ATOM      8  C   UNL     1       4.203   2.571  -3.837  0.00  0.00    +0.010 A 
ATOM      9  C   UNL     1       4.904   3.373  -2.992  0.00  0.00    +0.001 A 
ATOM     10  C   UNL     1       5.388   2.945  -1.752  0.00  0.00    +0.002 A 
ATOM     11  C   UNL     1       5.222   1.694  -1.253  0.00  0.00    +0.026 A 
ATOM     12  C   UNL     1       4.504   0.759  -2.053  0.00  0.00    +0.043 A 
ATOM     13  N   UNL     1       4.220  -0.505  -1.829  0.00  0.00    -0.375 N 
ATOM     14  C   UNL     1       2.501   0.121  -5.204  0.00  0.00    +0.052 C 
ATOM     15  C   UNL     1       1.125  -0.459  -4.819  0.00  0.00    +0.115 C 
ATOM     16  N   UNL     1       1.127  -0.701  -3.373  0.00  0.00    -0.269 N 
ATOM     17  C   UNL     1       0.288  -0.204  -2.453  0.00  0.00    +0.313 C 
ATOM     18  O   UNL     1      -0.718   0.424  -2.721  0.00  0.00    -0.252 OA
ATOM     19  C   UNL     1       1.949  -3.011  -2.973  0.00  0.00    +0.044 C 
ATOM     20  H   UNL     1       4.437  -1.015  -1.033  0.00  0.00    +0.160 HD
ENDROOT
BRANCH   1  22
ATOM     21  C   UNL     1      -0.019   1.526   0.010  0.00  0.00    +0.038 C 
ATOM     22  C   UNL     1       0.002  -0.004   0.002  0.00  0.00    +0.168 C 
BRANCH  22  23
ATOM     23  C   UNL     1      -1.412  -0.526   0.013  0.00  0.00    +0.234 C 
ATOM     24  O   UNL     1      -1.808  -1.223  -0.897  0.00  0.00    -0.274 OA
ATOM     25  N   UNL     1      -2.236  -0.217   1.033  0.00  0.00    -0.307 N 
ATOM     26  H   UNL     1      -1.920   0.341   1.761  0.00  0.00    +0.149 HD
BRANCH  25  27
ATOM     27  C   UNL     1      -3.611  -0.724   1.044  0.00  0.00    +0.103 C 
ATOM     28  C   UNL     1      -4.108  -0.801   2.486  0.00  0.00    +0.027 C 
ATOM     29  C   UNL     1      -5.607  -1.122   2.463  0.00  0.00    +0.007 C 
ATOM     30  C   UNL     1      -6.354   0.101   1.932  0.00  0.00    +0.035 C 
ATOM     31  C   UNL     1      -5.746   0.569   0.635  0.00  0.00    -0.042 A 
ATOM     32  C   UNL     1      -4.485   0.194   0.230  0.00  0.00    -0.024 A 
ATOM     33  C   UNL     1      -3.981   0.668  -0.974  0.00  0.00    +0.006 A 
ATOM     34  C   UNL     1      -4.735   1.509  -1.767  0.00  0.00    +0.000 A 
ATOM     35  C   UNL     1      -6.002   1.883  -1.361  0.00  0.00    +0.000 A 
ATOM     36  C   UNL     1      -6.504   1.413  -0.166  0.00  0.00    +0.004 A 
ENDBRANCH  25  27
ENDBRANCH  22  23
ENDBRANCH   1  22
TORSDOF 3
