REMARK  Name = ZINC66984786
REMARK  3 active torsions:
REMARK  status: ('A' for Active; 'I' for Inactive)
REMARK    1  A    between atoms: C_5  and  C_6
REMARK    2  A    between atoms: C_6  and  N_7
REMARK    3  A    between atoms: C_16  and  C_18
REMARK                            x       y       z     vdW  Elec       q    Type
REMARK                         _______ _______ _______ _____ _____    ______ ____
ROOT
ATOM      1  N   UNL     1      -1.890  -0.639  -1.616  0.00  0.00    -0.295 N 
ATOM      2  C   UNL     1      -2.904  -1.502  -1.824  0.00  0.00    +0.303 C 
ATOM      3  O   UNL     1      -3.522  -1.953  -0.879  0.00  0.00    -0.253 OA
ATOM      4  N   UNL     1      -3.234  -1.864  -3.079  0.00  0.00    -0.283 N 
ATOM      5  C   UNL     1      -2.424  -1.422  -4.223  0.00  0.00    +0.128 C 
ATOM      6  C   UNL     1      -1.980  -2.658  -5.016  0.00  0.00    +0.127 C 
ATOM      7  N   UNL     1      -3.156  -3.503  -5.266  0.00  0.00    -0.298 N 
ATOM      8  C   UNL     1      -3.966  -3.945  -4.122  0.00  0.00    +0.127 C 
ATOM      9  C   UNL     1      -4.407  -2.714  -3.329  0.00  0.00    +0.128 C 
ATOM     10  C   UNL     1      -3.486  -3.865  -6.521  0.00  0.00    +0.219 C 
ATOM     11  O   UNL     1      -2.755  -3.581  -7.447  0.00  0.00    -0.275 OA
ATOM     12  H   UNL     1      -1.351  -0.335  -2.363  0.00  0.00    +0.151 HD
ENDROOT
BRANCH  10  13
ATOM     13  C   UNL     1      -4.763  -4.623  -6.776  0.00  0.00    +0.075 C 
ATOM     14  C   UNL     1      -4.599  -6.071  -6.307  0.00  0.00    +0.013 C 
ATOM     15  C   UNL     1      -5.896  -6.840  -6.565  0.00  0.00    +0.001 C 
ATOM     16  C   UNL     1      -6.211  -6.822  -8.062  0.00  0.00    +0.000 C 
ATOM     17  C   UNL     1      -6.375  -5.375  -8.531  0.00  0.00    +0.001 C 
ATOM     18  C   UNL     1      -5.078  -4.605  -8.273  0.00  0.00    +0.013 C 
ENDBRANCH  10  13
BRANCH   1  19
ATOM     19  C   UNL     1      -1.601  -0.160  -0.262  0.00  0.00    +0.148 C 
BRANCH  19  24
ATOM     20  C   UNL     1      -0.423   2.131  -0.472  0.00  0.00    +0.014 A 
ATOM     21  C   UNL     1       0.786   2.801  -0.476  0.00  0.00    +0.028 A 
ATOM     22  C   UNL     1       1.931   2.092  -0.311  0.00  0.00    +0.078 A 
ATOM     23  S   UNL     1       1.313   0.426  -0.142  0.00  0.00    -0.080 S 
ATOM     24  C   UNL     1      -0.428   0.786  -0.303  0.00  0.00    +0.008 A 
ATOM     25 CL   UNL     1       3.572   2.658  -0.273  0.00  0.00    -0.076 Cl
ENDBRANCH  19  24
ENDBRANCH   1  19
TORSDOF 3
