REMARK  Name = ZINC06150635
REMARK  10 active torsions:
REMARK  status: ('A' for Active; 'I' for Inactive)
REMARK    1  A    between atoms: C_1  and  C_2
REMARK    2  A    between atoms: C_2  and  O_3
REMARK    3  A    between atoms: O_3  and  C_4
REMARK    4  A    between atoms: C_4  and  C_6
REMARK    5  A    between atoms: C_9  and  N_12
REMARK    6  A    between atoms: N_12  and  C_13
REMARK    7  A    between atoms: N_12  and  S_26
REMARK    8  A    between atoms: C_13  and  C_14
REMARK    9  A    between atoms: S_26  and  C_29
REMARK   10  A    between atoms: C_32  and  C_35
REMARK                            x       y       z     vdW  Elec       q    Type
REMARK                         _______ _______ _______ _____ _____    ______ ____
ROOT
ATOM      1  N   UNL     1       1.329   1.981   0.008  0.00  0.00    -0.197 N 
ENDROOT
BRANCH   1   5
ATOM      2  C   UNL     1       3.180   2.368  -3.694  0.00  0.00    +0.059 A 
ATOM      3  C   UNL     1       1.785   2.391  -3.602  0.00  0.00    +0.017 A 
ATOM      4  C   UNL     1       1.177   2.263  -2.380  0.00  0.00    +0.025 A 
ATOM      5  C   UNL     1       1.948   2.110  -1.230  0.00  0.00    +0.052 A 
ATOM      6  C   UNL     1       3.337   2.092  -1.317  0.00  0.00    +0.025 A 
ATOM      7  C   UNL     1       3.951   2.215  -2.537  0.00  0.00    +0.017 A 
BRANCH   2   8
ATOM      8  C   UNL     1       3.837   2.505  -5.006  0.00  0.00    +0.339 C 
ATOM      9  O   UNL     1       3.165   2.638  -6.010  0.00  0.00    -0.245 OA
BRANCH   8  10
ATOM     10  O   UNL     1       5.181   2.483  -5.093  0.00  0.00    -0.461 OA
BRANCH  10  12
ATOM     11  C   UNL     1       7.285   2.574  -6.316  0.00  0.00    +0.048 C 
ATOM     12  C   UNL     1       5.759   2.623  -6.417  0.00  0.00    +0.229 C 
ENDBRANCH  10  12
ENDBRANCH   8  10
ENDBRANCH   2   8
ENDBRANCH   1   5
BRANCH   1  13
ATOM     13  S   UNL     1       2.123   2.449   1.384  0.00  0.00    +0.075 S 
ATOM     14  O   UNL     1       1.264   2.142   2.473  0.00  0.00    -0.150 OA
ATOM     15  O   UNL     1       3.443   1.933   1.286  0.00  0.00    -0.150 OA
BRANCH  13  16
ATOM     16  C   UNL     1       2.264   4.205   1.333  0.00  0.00    +0.109 A 
ATOM     17  C   UNL     1       3.326   4.794   0.673  0.00  0.00    +0.029 A 
ATOM     18  C   UNL     1       3.435   6.171   0.630  0.00  0.00    +0.005 A 
ATOM     19  C   UNL     1       2.485   6.959   1.253  0.00  0.00    -0.050 A 
ATOM     20  C   UNL     1       1.425   6.370   1.917  0.00  0.00    +0.005 A 
ATOM     21  C   UNL     1       1.315   4.993   1.956  0.00  0.00    +0.029 A 
ATOM     22  C   UNL     1       2.606   8.461   1.210  0.00  0.00    +0.044 C 
ENDBRANCH  13  16
ENDBRANCH   1  13
BRANCH   1  23
ATOM     23  C   UNL     1      -0.026   1.432   0.095  0.00  0.00    +0.183 C 
BRANCH  23  24
ATOM     24  C   UNL     1       0.038  -0.073   0.053  0.00  0.00    +0.049 C 
ATOM     25  N   UNL     1       1.170  -0.622  -0.146  0.00  0.00    -0.248 NA
ATOM     26  C   UNL     1       1.409  -1.955  -0.242  0.00  0.00    +0.135 A 
ATOM     27  C   UNL     1       2.703  -2.462  -0.026  0.00  0.00    +0.148 A 
ATOM     28  N   UNL     1       2.902  -3.773  -0.120  0.00  0.00    -0.198 NA
ATOM     29  C   UNL     1       1.908  -4.600  -0.410  0.00  0.00    +0.215 A 
ATOM     30  N   UNL     1       0.673  -4.165  -0.624  0.00  0.00    -0.206 NA
ATOM     31  C   UNL     1       0.393  -2.870  -0.553  0.00  0.00    +0.130 A 
ATOM     32  S   UNL     1      -1.242  -2.283  -0.857  0.00  0.00    -0.098 S 
ATOM     33  C   UNL     1      -1.237  -0.846   0.255  0.00  0.00    +0.128 C 
ATOM     34  N   UNL     1       2.165  -5.957  -0.493  0.00  0.00    -0.327 N 
ATOM     35  N   UNL     1       3.752  -1.611   0.278  0.00  0.00    -0.341 N 
ATOM     36  H   UNL     1       1.351  -6.657  -0.733  0.00  0.00    +0.145 HD
ATOM     37  H   UNL     1       3.183  -6.335  -0.318  0.00  0.00    +0.145 HD
ATOM     38  H   UNL     1       4.760  -2.018   0.445  0.00  0.00    +0.144 HD
ATOM     39  H   UNL     1       3.577  -0.528   0.353  0.00  0.00    +0.144 HD
ENDBRANCH  23  24
ENDBRANCH   1  23
TORSDOF 8
