REMARK  Name = ZINC35578483
REMARK  8 active torsions:
REMARK  status: ('A' for Active; 'I' for Inactive)
REMARK    1  A    between atoms: C_1  and  N_2
REMARK    2  A    between atoms: N_2  and  C_3
REMARK    3  A    between atoms: N_2  and  C_4
REMARK    4  A    between atoms: C_4  and  C_5
REMARK    5  A    between atoms: C_5  and  N_6
REMARK    6  A    between atoms: C_9  and  C_24
REMARK    7  A    between atoms: C_11  and  N_23
REMARK    8  A    between atoms: N_12  and  C_16
REMARK                            x       y       z     vdW  Elec       q    Type
REMARK                         _______ _______ _______ _____ _____    ______ ____
ROOT
ATOM      1  N   UNL     1       2.748   0.579  -2.733  0.00  0.00    -0.315 N 
ATOM      2  C   UNL     1       4.124   0.671  -2.841  0.00  0.00    +0.218 A 
ATOM      3  N   UNL     1       4.687   0.349  -4.002  0.00  0.00    -0.214 NA
ATOM      4  C   UNL     1       5.999   0.409  -4.191  0.00  0.00    +0.089 A 
ATOM      5  C   UNL     1       6.812   0.830  -3.114  0.00  0.00    +0.086 A 
ATOM      6  C   UNL     1       8.173   1.021  -2.910  0.00  0.00    +0.131 A 
ATOM      7  N   UNL     1       8.337   1.444  -1.642  0.00  0.00    -0.215 N 
ATOM      8  N   UNL     1       7.094   1.535  -1.005  0.00  0.00    -0.144 NA
ATOM      9  C   UNL     1       6.147   1.178  -1.845  0.00  0.00    +0.189 A 
ATOM     10  N   UNL     1       4.805   1.078  -1.789  0.00  0.00    -0.193 NA
ATOM     11  H   UNL     1       2.221   0.282  -3.491  0.00  0.00    +0.149 HD
ENDROOT
BRANCH   4  12
ATOM     12  C   UNL     1       6.595   0.044  -5.495  0.00  0.00    +0.003 A 
ATOM     13  C   UNL     1       7.740  -0.754  -5.542  0.00  0.00    +0.013 A 
ATOM     14  C   UNL     1       8.292  -1.092  -6.760  0.00  0.00    +0.040 A 
ATOM     15  C   UNL     1       7.713  -0.641  -7.936  0.00  0.00    +0.142 A 
ATOM     16  C   UNL     1       6.576   0.152  -7.894  0.00  0.00    +0.077 A 
ATOM     17  C   UNL     1       6.012   0.491  -6.681  0.00  0.00    +0.033 A 
ATOM     18 CL   UNL     1       5.856   0.713  -9.371  0.00  0.00    -0.081 Cl
ATOM     19  F   UNL     1       8.258  -0.975  -9.126  0.00  0.00    -0.204 F 
ENDBRANCH   4  12
BRANCH   7  20
ATOM     20  C   UNL     1       9.569   1.748  -1.048  0.00  0.00    +0.086 A 
ATOM     21  C   UNL     1      10.722   1.789  -1.821  0.00  0.00    +0.029 A 
ATOM     22  C   UNL     1      11.935   2.090  -1.232  0.00  0.00    +0.002 A 
ATOM     23  C   UNL     1      12.002   2.349   0.124  0.00  0.00    +0.002 A 
ATOM     24  C   UNL     1      10.857   2.309   0.897  0.00  0.00    +0.022 A 
ATOM     25  C   UNL     1       9.638   2.014   0.314  0.00  0.00    +0.066 A 
ATOM     26 CL   UNL     1       8.199   1.971   1.283  0.00  0.00    -0.081 Cl
ENDBRANCH   7  20
BRANCH   6  27
ATOM     27  N   UNL     1       9.175   0.814  -3.839  0.00  0.00    -0.342 N 
ATOM     28  H   UNL     1       9.053   1.101  -4.757  0.00  0.00    +0.144 HD
ATOM     29  H   UNL     1      10.001   0.381  -3.572  0.00  0.00    +0.144 HD
ENDBRANCH   6  27
BRANCH   1  30
ATOM     30  C   UNL     1       2.087   0.929  -1.474  0.00  0.00    +0.086 C 
BRANCH  30  31
ATOM     31  C   UNL     1       0.576   0.741  -1.622  0.00  0.00    -0.061 C 
BRANCH  31  33
ATOM     32  C   UNL     1       0.101   2.524  -0.089  0.00  0.00    -0.097 C 
ATOM     33  N   UNL     1      -0.088   1.093  -0.359  0.00  0.00    +0.377 N 
ATOM     34  C   UNL     1      -1.523   0.799  -0.462  0.00  0.00    -0.097 C 
ATOM     35  H   UNL     1       0.313   0.553   0.393  0.00  0.00    -0.083 HD
ENDBRANCH  31  33
ENDBRANCH  30  31
ENDBRANCH   1  30
TORSDOF 6
