REMARK  Name = ZINC01060411
REMARK  12 active torsions:
REMARK  status: ('A' for Active; 'I' for Inactive)
REMARK    1  A    between atoms: C_1  and  C_2
REMARK    2  A    between atoms: C_3  and  C_20
REMARK    3  A    between atoms: C_4  and  C_10
REMARK    4  A    between atoms: C_13  and  O_18
REMARK    5  A    between atoms: C_15  and  O_16
REMARK    6  A    between atoms: O_16  and  C_17
REMARK    7  A    between atoms: O_18  and  C_19
REMARK    8  A    between atoms: N_22  and  C_23
REMARK    9  A    between atoms: C_25  and  O_32
REMARK   10  A    between atoms: C_28  and  O_29
REMARK   11  A    between atoms: O_29  and  C_30
REMARK   12  A    between atoms: O_32  and  C_33
REMARK                            x       y       z     vdW  Elec       q    Type
REMARK                         _______ _______ _______ _____ _____    ______ ____
ROOT
ATOM      1  C   UNL     1       3.782  -1.300   0.197  0.00  0.00    +0.061 C 
ATOM      2  C   UNL     1       2.598  -0.396  -0.031  0.00  0.00    +0.017 C 
ATOM      3  C   UNL     1       2.796   0.929  -0.198  0.00  0.00    +0.056 C 
ATOM      4  C   UNL     1       1.579   1.802  -0.425  0.00  0.00    +0.143 C 
ATOM      5  N   UNL     1       0.269   1.128  -0.445  0.00  0.00    -0.315 N 
ATOM      6  C   UNL     1       0.232  -0.207  -0.263  0.00  0.00    +0.135 C 
ATOM      7  S   UNL     1      -1.283  -1.003  -0.284  0.00  0.00    -0.019 S 
ATOM      8  N   UNL     1       1.341  -0.930  -0.066  0.00  0.00    -0.300 N 
ATOM      9  H   UNL     1      -0.546   1.633  -0.590  0.00  0.00    +0.149 HD
ATOM     10  H   UNL     1       1.248  -1.887   0.058  0.00  0.00    +0.154 HD
ENDROOT
BRANCH   4  11
ATOM     11  C   UNL     1       1.547   2.846   0.661  0.00  0.00    +0.019 A 
ATOM     12  C   UNL     1       0.766   2.651   1.784  0.00  0.00    +0.013 A 
ATOM     13  C   UNL     1       0.739   3.605   2.783  0.00  0.00    +0.046 A 
ATOM     14  C   UNL     1       1.488   4.766   2.657  0.00  0.00    +0.124 A 
ATOM     15  C   UNL     1       2.268   4.967   1.529  0.00  0.00    +0.091 A 
ATOM     16  C   UNL     1       2.298   4.006   0.530  0.00  0.00    +0.129 A 
BRANCH  16  17
ATOM     17  O   UNL     1       3.062   4.199  -0.578  0.00  0.00    -0.495 OA
ATOM     18  C   UNL     1       3.873   5.375  -0.609  0.00  0.00    +0.277 C 
ENDBRANCH  16  17
BRANCH  14  19
ATOM     19  O   UNL     1       1.457   5.706   3.638  0.00  0.00    -0.495 OA
ATOM     20  C   UNL     1       0.631   5.433   4.772  0.00  0.00    +0.277 C 
ENDBRANCH  14  19
ENDBRANCH   4  11
BRANCH   3  21
ATOM     21  C   UNL     1       4.099   1.484  -0.161  0.00  0.00    +0.248 C 
ATOM     22  O   UNL     1       4.682   1.738  -1.199  0.00  0.00    -0.270 OA
ATOM     23  N   UNL     1       4.692   1.732   1.024  0.00  0.00    -0.279 N 
ATOM     24  H   UNL     1       4.260   1.462   1.849  0.00  0.00    +0.155 HD
BRANCH  23  25
ATOM     25  C   UNL     1       5.933   2.381   1.063  0.00  0.00    +0.079 A 
ATOM     26  C   UNL     1       6.379   3.096  -0.040  0.00  0.00    +0.074 A 
ATOM     27  C   UNL     1       7.607   3.737   0.002  0.00  0.00    +0.140 A 
ATOM     28  C   UNL     1       8.390   3.666   1.145  0.00  0.00    +0.086 A 
ATOM     29  C   UNL     1       7.947   2.954   2.246  0.00  0.00    +0.071 A 
ATOM     30  C   UNL     1       6.719   2.316   2.211  0.00  0.00    +0.143 A 
ATOM     31 CL   UNL     1       9.928   4.470   1.194  0.00  0.00    -0.080 Cl
BRANCH  30  32
ATOM     32  O   UNL     1       6.282   1.621   3.296  0.00  0.00    -0.493 OA
ATOM     33  C   UNL     1       7.188   1.493   4.393  0.00  0.00    +0.277 C 
ENDBRANCH  30  32
BRANCH  27  34
ATOM     34  O   UNL     1       8.044   4.438  -1.079  0.00  0.00    -0.494 OA
ATOM     35  C   UNL     1       7.187   4.470  -2.222  0.00  0.00    +0.277 C 
ENDBRANCH  27  34
ENDBRANCH  23  25
ENDBRANCH   3  21
TORSDOF 7
