REMARK  Name = ZINC09123967
REMARK  19 active torsions:
REMARK  status: ('A' for Active; 'I' for Inactive)
REMARK    1  A    between atoms: C_1  and  C_2
REMARK    2  A    between atoms: C_4  and  O_32
REMARK    3  A    between atoms: C_7  and  C_8
REMARK    4  A    between atoms: C_8  and  C_10
REMARK    5  A    between atoms: C_11  and  O_31
REMARK    6  A    between atoms: N_14  and  C_26
REMARK    7  A    between atoms: C_15  and  C_17
REMARK    8  A    between atoms: C_20  and  O_25
REMARK    9  A    between atoms: C_21  and  O_23
REMARK   10  A    between atoms: O_23  and  C_24
REMARK   11  A    between atoms: C_26  and  C_27
REMARK   12  A    between atoms: C_27  and  C_28
REMARK   13  A    between atoms: C_28  and  N_72
REMARK   14  A    between atoms: C_29  and  N_72
REMARK   15  A    between atoms: C_30  and  N_72
REMARK   16  A    between atoms: O_32  and  C_33
REMARK   17  A    between atoms: C_33  and  C_34
REMARK   18  A    between atoms: C_34  and  C_35
REMARK   19  A    between atoms: C_34  and  C_36
REMARK                            x       y       z     vdW  Elec       q    Type
REMARK                         _______ _______ _______ _____ _____    ______ ____
ROOT
ATOM      1  C   UNL     1      -2.718   0.433  -1.346  0.00  0.00    +0.071 C 
ATOM      2  C   UNL     1      -2.776  -0.890  -1.069  0.00  0.00    +0.188 C 
ATOM      3  C   UNL     1      -2.439  -1.104   0.354  0.00  0.00    +0.282 C 
ATOM      4  O   UNL     1      -2.405  -2.185   0.908  0.00  0.00    -0.267 OA
ATOM      5  N   UNL     1      -2.178   0.076   0.946  0.00  0.00    -0.284 N 
ATOM      6  C   UNL     1      -2.329   1.130  -0.064  0.00  0.00    +0.145 C 
ENDROOT
BRANCH   6   7
ATOM      7  C   UNL     1      -1.025   1.863  -0.247  0.00  0.00    -0.019 A 
ATOM      8  C   UNL     1       0.152   1.152  -0.390  0.00  0.00    +0.009 A 
ATOM      9  C   UNL     1       1.350   1.820  -0.563  0.00  0.00    +0.049 A 
ATOM     10  C   UNL     1       1.373   3.205  -0.589  0.00  0.00    +0.158 A 
ATOM     11  C   UNL     1       0.190   3.921  -0.440  0.00  0.00    +0.162 A 
ATOM     12  C   UNL     1      -1.008   3.246  -0.267  0.00  0.00    +0.055 A 
BRANCH  11  13
ATOM     13  O   UNL     1       0.208   5.281  -0.464  0.00  0.00    -0.491 OA
ATOM     14  C   UNL     1      -1.056   5.947  -0.442  0.00  0.00    +0.277 C 
ENDBRANCH  11  13
BRANCH  10  15
ATOM     15  O   UNL     1       2.551   3.864  -0.760  0.00  0.00    -0.503 OA
ATOM     16  H   UNL     1       2.772   4.040  -1.685  0.00  0.00    +0.292 HD
ENDBRANCH  10  15
ENDBRANCH   6   7
BRANCH   1  17
ATOM     17  C   UNL     1      -2.981   1.068  -2.642  0.00  0.00    +0.195 C 
ATOM     18  O   UNL     1      -2.902   2.277  -2.754  0.00  0.00    -0.287 OA
BRANCH  17  25
ATOM     19  C   UNL     1      -0.930  -0.449  -4.005  0.00  0.00    +0.044 C 
ATOM     20  C   UNL     1      -2.360  -0.498  -4.477  0.00  0.00    -0.036 A 
ATOM     21  C   UNL     1      -2.702  -1.269  -5.565  0.00  0.00    +0.049 A 
ATOM     22  C   UNL     1      -4.021  -1.314  -6.000  0.00  0.00    +0.121 A 
ATOM     23  C   UNL     1      -5.001  -0.582  -5.340  0.00  0.00    +0.046 A 
ATOM     24  C   UNL     1      -4.670   0.187  -4.248  0.00  0.00    +0.015 A 
ATOM     25  C   UNL     1      -3.343   0.240  -3.809  0.00  0.00    +0.025 A 
BRANCH  22  26
ATOM     26  O   UNL     1      -4.354  -2.076  -7.073  0.00  0.00    -0.492 OA
BRANCH  26  27
ATOM     27  C   UNL     1      -5.703  -1.992  -7.535  0.00  0.00    +0.232 C 
BRANCH  27  28
ATOM     28  C   UNL     1      -5.907  -2.970  -8.694  0.00  0.00    +0.020 C 
ATOM     29  C   UNL     1      -7.381  -2.971  -9.107  0.00  0.00    +0.010 C 
ATOM     30  C   UNL     1      -5.045  -2.539  -9.883  0.00  0.00    +0.010 C 
ENDBRANCH  27  28
ENDBRANCH  26  27
ENDBRANCH  22  26
ENDBRANCH  17  25
ENDBRANCH   1  17
BRANCH   2  31
ATOM     31  O   UNL     1      -3.091  -1.863  -1.955  0.00  0.00    -0.502 OA
ATOM     32  H   UNL     1      -3.062  -2.752  -1.498  0.00  0.00    +0.292 HD
ENDBRANCH   2  31
BRANCH   5  33
ATOM     33  C   UNL     1      -1.808   0.273   2.349  0.00  0.00    +0.107 C 
BRANCH  33  34
ATOM     34  C   UNL     1      -3.072   0.475   3.187  0.00  0.00    +0.000 C 
BRANCH  34  35
ATOM     35  C   UNL     1      -2.686   0.680   4.653  0.00  0.00    -0.078 C 
BRANCH  35  38
ATOM     36  C   UNL     1      -4.718  -0.346   5.478  0.00  0.00    -0.097 C 
ATOM     37  C   UNL     1      -3.566   1.308   6.819  0.00  0.00    -0.097 C 
ATOM     38  N   UNL     1      -3.916   0.895   5.444  0.00  0.00    +0.376 N 
ATOM     39  H   UNL     1      -4.470   1.638   5.004  0.00  0.00    -0.083 HD
ENDBRANCH  35  38
ENDBRANCH  34  35
ENDBRANCH  33  34
ENDBRANCH   5  33
TORSDOF 13
