REMARK  Name = ZINC06047363
REMARK  9 active torsions:
REMARK  status: ('A' for Active; 'I' for Inactive)
REMARK    1  A    between atoms: C_1  and  C_2
REMARK    2  A    between atoms: C_2  and  O_3
REMARK    3  A    between atoms: O_3  and  C_4
REMARK    4  A    between atoms: C_4  and  C_6
REMARK    5  A    between atoms: C_10  and  N_11
REMARK    6  A    between atoms: C_12  and  C_14
REMARK    7  A    between atoms: C_14  and  O_15
REMARK    8  A    between atoms: O_15  and  C_16
REMARK    9  A    between atoms: C_20  and  C_22
REMARK                            x       y       z     vdW  Elec       q    Type
REMARK                         _______ _______ _______ _____ _____    ______ ____
ROOT
ATOM      1  C   UNL     1      -0.558   0.998   2.576  0.00  0.00    +0.091 A 
ATOM      2  C   UNL     1      -0.732   1.580   1.257  0.00  0.00    -0.021 A 
ATOM      3  C   UNL     1      -1.601   2.614   1.194  0.00  0.00    -0.004 A 
ATOM      4  S   UNL     1      -2.178   2.821   2.855  0.00  0.00    -0.077 S 
ATOM      5  C   UNL     1      -1.283   1.552   3.623  0.00  0.00    +0.086 A 
ATOM      6  C   UNL     1      -1.979   3.405  -0.021  0.00  0.00    +0.043 C 
ATOM      7  C   UNL     1      -0.956   3.111  -1.127  0.00  0.00    +0.005 C 
ATOM      8  C   UNL     1      -0.758   1.595  -1.227  0.00  0.00    +0.005 C 
ATOM      9  C   UNL     1      -0.013   1.086   0.008  0.00  0.00    +0.037 C 
ENDROOT
BRANCH   5  10
ATOM     10  N   UNL     1      -1.289   1.180   4.958  0.00  0.00    -0.277 N 
ATOM     11  C   UNL     1      -2.065   1.842   5.838  0.00  0.00    +0.255 C 
ATOM     12  O   UNL     1      -2.759   2.763   5.463  0.00  0.00    -0.272 OA
ATOM     13  H   UNL     1      -0.734   0.443   5.258  0.00  0.00    +0.155 HD
BRANCH  11  14
ATOM     14  C   UNL     1      -2.072   1.437   7.290  0.00  0.00    +0.324 C 
BRANCH  14  15
ATOM     15  O   UNL     1      -2.967   2.282   8.016  0.00  0.00    -0.483 OA
BRANCH  15  16
ATOM     16  C   UNL     1      -3.091   2.049   9.349  0.00  0.00    +0.122 A 
ATOM     17  C   UNL     1      -2.370   1.024   9.945  0.00  0.00    +0.047 A 
ATOM     18  C   UNL     1      -2.494   0.791  11.301  0.00  0.00    +0.024 A 
ATOM     19  C   UNL     1      -3.344   1.573  12.063  0.00  0.00    +0.044 A 
ATOM     20  C   UNL     1      -4.067   2.592  11.470  0.00  0.00    -0.029 A 
ATOM     21  C   UNL     1      -3.942   2.831  10.115  0.00  0.00    +0.050 A 
ATOM     22  C   UNL     1      -4.992   3.442  12.303  0.00  0.00    +0.045 C 
ATOM     23 CL   UNL     1      -3.502   1.275  13.766  0.00  0.00    -0.083 Cl
ENDBRANCH  15  16
ENDBRANCH  14  15
ENDBRANCH  11  14
ENDBRANCH   5  10
BRANCH   1  24
ATOM     24  C   UNL     1       0.350  -0.130   2.793  0.00  0.00    +0.342 C 
ATOM     25  O   UNL     1      -0.061  -1.270   2.694  0.00  0.00    -0.245 OA
BRANCH  24  26
ATOM     26  O   UNL     1       1.643   0.096   3.104  0.00  0.00    -0.461 OA
BRANCH  26  28
ATOM     27  C   UNL     1       3.907  -0.617   3.648  0.00  0.00    +0.048 C 
ATOM     28  C   UNL     1       2.486  -1.069   3.306  0.00  0.00    +0.229 C 
ENDBRANCH  26  28
ENDBRANCH  24  26
ENDBRANCH   1  24
TORSDOF 7
