REMARK  Name = ZINC45280407
REMARK  6 active torsions:
REMARK  status: ('A' for Active; 'I' for Inactive)
REMARK    1  A    between atoms: C_1  and  C_2
REMARK    2  A    between atoms: C_2  and  C_3
REMARK    3  A    between atoms: C_2  and  C_16
REMARK    4  A    between atoms: C_2  and  N_19
REMARK    5  A    between atoms: C_3  and  N_4
REMARK    6  A    between atoms: N_19  and  C_20
REMARK                            x       y       z     vdW  Elec       q    Type
REMARK                         _______ _______ _______ _____ _____    ______ ____
ROOT
ATOM      1  C   UNL     1      -0.317   1.568   0.432  0.00  0.00    +0.001 C 
ATOM      2  C   UNL     1      -0.351   0.072   0.113  0.00  0.00    +0.019 C 
ENDROOT
BRANCH   2   3
ATOM      3  C   UNL     1       0.064  -0.146  -1.319  0.00  0.00    +0.200 C 
ATOM      4  O   UNL     1       0.875   0.593  -1.835  0.00  0.00    -0.278 OA
ATOM      5  N   UNL     1      -0.466  -1.164  -2.026  0.00  0.00    -0.330 N 
ATOM      6  H   UNL     1      -1.060  -1.798  -1.594  0.00  0.00    +0.145 HD
ATOM      7  H   UNL     1      -0.252  -1.263  -2.967  0.00  0.00    +0.145 HD
ENDBRANCH   2   3
BRANCH   2   8
ATOM      8  N   UNL     1      -1.714  -0.439   0.311  0.00  0.00    +0.387 N 
ATOM      9  C   UNL     1      -2.639   0.273  -0.581  0.00  0.00    -0.099 C 
ATOM     10  H   UNL     1      -1.737  -1.425   0.101  0.00  0.00    -0.085 HD
ATOM     11  H   UNL     1      -1.992  -0.292   1.270  0.00  0.00    -0.085 HD
ENDBRANCH   2   8
BRANCH   2  12
ATOM     12  C   UNL     1       0.611  -0.669   1.042  0.00  0.00    +0.081 C 
BRANCH  12  13
ATOM     13  N   UNL     1       0.487  -2.117   0.823  0.00  0.00    -0.296 NA
ATOM     14  C   UNL     1       1.346  -2.557  -0.287  0.00  0.00    +0.113 C 
ATOM     15  C   UNL     1       1.154  -4.058  -0.517  0.00  0.00    +0.175 C 
ATOM     16  O   UNL     1       1.425  -4.765   0.697  0.00  0.00    -0.374 OA
ATOM     17  C   UNL     1       0.598  -4.359   1.789  0.00  0.00    +0.135 C 
ATOM     18  C   UNL     1       0.805  -2.864   2.046  0.00  0.00    +0.085 C 
ATOM     19  C   UNL     1      -0.109  -2.418   3.188  0.00  0.00    +0.021 C 
ATOM     20  C   UNL     1       0.246  -3.202   4.454  0.00  0.00    +0.002 C 
ATOM     21  C   UNL     1       0.061  -4.699   4.201  0.00  0.00    +0.003 C 
ATOM     22  C   UNL     1       0.967  -5.142   3.049  0.00  0.00    +0.033 C 
ENDBRANCH  12  13
ENDBRANCH   2  12
TORSDOF 4
