REMARK  Name = ZINC38770240
REMARK  5 active torsions:
REMARK  status: ('A' for Active; 'I' for Inactive)
REMARK    1  A    between atoms: C_16  and  C_18
REMARK    2  A    between atoms: C_18  and  S_19
REMARK    3  A    between atoms: S_19  and  C_20
REMARK    4  A    between atoms: C_24  and  C_29
REMARK    5  A    between atoms: N_25  and  C_26
REMARK                            x       y       z     vdW  Elec       q    Type
REMARK                         _______ _______ _______ _____ _____    ______ ____
ROOT
ATOM      1  S   UNL     1       7.014  -0.737   2.358  0.00  0.00    -0.109 S 
ENDROOT
BRANCH   1   2
ATOM      2  C   UNL     1       8.588  -1.483   1.850  0.00  0.00    +0.237 C 
ATOM      3  N   UNL     1       8.487  -2.951   1.858  0.00  0.00    -0.237 N 
ATOM      4  N   UNL     1       8.719  -3.373   0.543  0.00  0.00    -0.169 NA
ATOM      5  C   UNL     1       8.943  -2.358  -0.248  0.00  0.00    +0.147 C 
ATOM      6  N   UNL     1       8.889  -1.145   0.449  0.00  0.00    -0.282 N 
ATOM      7  H   UNL     1       8.299  -3.516   2.624  0.00  0.00    +0.171 HD
BRANCH   5   8
ATOM      8  C   UNL     1       9.207  -2.469  -1.622  0.00  0.00    +0.022 C 
ATOM      9  C   UNL     1       9.180  -3.631  -2.395  0.00  0.00    +0.006 A 
ATOM     10  C   UNL     1       8.899  -4.977  -2.082  0.00  0.00    +0.010 A 
ATOM     11  C   UNL     1       8.948  -5.920  -3.058  0.00  0.00    +0.001 A 
ATOM     12  C   UNL     1       9.271  -5.592  -4.376  0.00  0.00    +0.002 A 
ATOM     13  C   UNL     1       9.553  -4.318  -4.748  0.00  0.00    +0.026 A 
ATOM     14  C   UNL     1       9.522  -3.279  -3.783  0.00  0.00    +0.043 A 
ATOM     15  N   UNL     1       9.751  -1.984  -3.888  0.00  0.00    -0.380 N 
ATOM     16  C   UNL     1       9.575  -1.354  -2.576  0.00  0.00    +0.152 C 
ATOM     17  H   UNL     1       9.993  -1.522  -4.705  0.00  0.00    +0.160 HD
ENDBRANCH   5   8
BRANCH   6  18
ATOM     18  C   UNL     1       9.090   0.197  -0.105  0.00  0.00    +0.078 C 
ATOM     19  C   UNL     1       9.074   1.374   0.873  0.00  0.00    +0.024 C 
ATOM     20  C   UNL     1       7.899   1.156  -0.082  0.00  0.00    +0.024 C 
ENDBRANCH   6  18
ENDBRANCH   1   2
BRANCH   1  21
ATOM     21  C   UNL     1       5.808  -1.412   1.184  0.00  0.00    +0.169 C 
BRANCH  21  37
ATOM     22  C   UNL     1      -0.400   0.357   1.468  0.00  0.00    +0.000 A 
ATOM     23  C   UNL     1       0.677   1.195   1.245  0.00  0.00    +0.002 A 
ATOM     24  C   UNL     1       1.921   0.645   1.021  0.00  0.00    +0.024 A 
ATOM     25  C   UNL     1       2.096  -0.735   1.027  0.00  0.00    +0.044 A 
ATOM     26  C   UNL     1       1.030  -1.584   1.274  0.00  0.00    -0.025 A 
ATOM     27  C   UNL     1      -0.226  -1.008   1.480  0.00  0.00    +0.005 A 
ATOM     28  C   UNL     1       1.060  -3.091   1.392  0.00  0.00    +0.042 C 
ATOM     29  C   UNL     1       2.451  -3.675   1.228  0.00  0.00    +0.042 C 
ATOM     30  C   UNL     1       3.012  -3.377  -0.139  0.00  0.00    -0.025 A 
ATOM     31  C   UNL     1       3.025  -4.303  -1.158  0.00  0.00    +0.005 A 
ATOM     32  C   UNL     1       3.588  -3.946  -2.375  0.00  0.00    +0.000 A 
ATOM     33  C   UNL     1       4.128  -2.686  -2.556  0.00  0.00    +0.002 A 
ATOM     34  C   UNL     1       4.102  -1.758  -1.527  0.00  0.00    +0.024 A 
ATOM     35  C   UNL     1       3.525  -2.120  -0.323  0.00  0.00    +0.044 A 
ATOM     36  N   UNL     1       3.379  -1.231   0.752  0.00  0.00    -0.239 N 
ATOM     37  C   UNL     1       4.440  -0.865   1.499  0.00  0.00    +0.234 C 
ATOM     38  O   UNL     1       4.293  -0.095   2.425  0.00  0.00    -0.274 OA
ENDBRANCH  21  37
ENDBRANCH   1  21
TORSDOF 5
