REMARK  Name = ZINC09158556
REMARK  15 active torsions:
REMARK  status: ('A' for Active; 'I' for Inactive)
REMARK    1  A    between atoms: C_1  and  C_2
REMARK    2  A    between atoms: C_2  and  N_3
REMARK    3  A    between atoms: N_3  and  C_4
REMARK    4  A    between atoms: N_3  and  C_6
REMARK    5  A    between atoms: C_4  and  C_5
REMARK    6  A    between atoms: C_9  and  C_12
REMARK    7  A    between atoms: C_20  and  O_38
REMARK    8  A    between atoms: C_23  and  C_24
REMARK    9  A    between atoms: C_23  and  N_78
REMARK   10  A    between atoms: N_26  and  C_27
REMARK   11  A    between atoms: C_28  and  C_34
REMARK   12  A    between atoms: C_29  and  C_33
REMARK   13  A    between atoms: C_30  and  C_32
REMARK   14  A    between atoms: C_34  and  O_36
REMARK   15  A    between atoms: O_36  and  C_37
REMARK                            x       y       z     vdW  Elec       q    Type
REMARK                         _______ _______ _______ _____ _____    ______ ____
ROOT
ATOM      1  C   UNL     1      -1.434   3.666  -0.037  0.00  0.00    -0.031 C 
ATOM      2  C   UNL     1      -0.746   3.326   1.286  0.00  0.00    +0.011 C 
ATOM      3  C   UNL     1      -1.446   4.046   2.440  0.00  0.00    +0.005 C 
ATOM      4  C   UNL     1      -0.740   3.700   3.753  0.00  0.00    +0.000 C 
ATOM      5  C   UNL     1      -0.791   2.189   3.983  0.00  0.00    +0.003 C 
ATOM      6  C   UNL     1      -0.101   1.468   2.822  0.00  0.00    +0.035 C 
ATOM      7  C   UNL     1      -0.817   1.814   1.518  0.00  0.00    +0.066 C 
ATOM      8  C   UNL     1      -0.145   1.097   0.345  0.00  0.00    +0.016 C 
ATOM      9  C   UNL     1      -0.843   1.500  -0.957  0.00  0.00    -0.075 C 
ATOM     10  N   UNL     1      -0.730   2.964  -1.133  0.00  0.00    +0.390 N 
ATOM     11  H   UNL     1       0.262   3.226  -1.113  0.00  0.00    -0.080 HD
ENDROOT
BRANCH   1  15
ATOM     12  C   UNL     1      -5.532   2.463   0.135  0.00  0.00    +0.030 A 
ATOM     13  C   UNL     1      -5.037   3.384   1.051  0.00  0.00    +0.023 A 
ATOM     14  C   UNL     1      -3.713   3.770   0.992  0.00  0.00    +0.004 A 
ATOM     15  C   UNL     1      -2.879   3.242   0.024  0.00  0.00    -0.060 A 
ATOM     16  C   UNL     1      -3.369   2.329  -0.892  0.00  0.00    +0.004 A 
ATOM     17  C   UNL     1      -4.691   1.934  -0.836  0.00  0.00    +0.023 A 
BRANCH  12  18
ATOM     18  N   UNL     1      -6.871   2.070   0.192  0.00  0.00    -0.330 N 
BRANCH  18  20
ATOM     19  C   UNL     1      -7.218  -0.316  -0.218  0.00  0.00    +0.024 C 
ATOM     20  C   UNL     1      -7.391   1.099  -0.774  0.00  0.00    +0.102 C 
ENDBRANCH  18  20
BRANCH  18  21
ATOM     21  C   UNL     1      -7.756   2.629   1.216  0.00  0.00    +0.102 C 
ATOM     22  C   UNL     1      -8.417   3.901   0.681  0.00  0.00    +0.024 C 
ENDBRANCH  18  21
ENDBRANCH  12  18
ENDBRANCH   1  15
BRANCH   7  23
ATOM     23  O   UNL     1      -2.185   1.409   1.603  0.00  0.00    -0.388 OA
ATOM     24  H   UNL     1      -2.306   0.460   1.742  0.00  0.00    +0.210 HD
ENDBRANCH   7  23
BRANCH  10  25
ATOM     25  C   UNL     1      -1.304   3.360  -2.436  0.00  0.00    +0.020 C 
BRANCH  25  26
ATOM     26  C   UNL     1      -0.300   3.050  -3.516  0.00  0.00    +0.201 C 
ATOM     27  O   UNL     1       0.763   2.542  -3.229  0.00  0.00    -0.278 OA
ATOM     28  N   UNL     1      -0.585   3.337  -4.802  0.00  0.00    -0.281 N 
ATOM     29  H   UNL     1      -1.435   3.744  -5.032  0.00  0.00    +0.155 HD
BRANCH  28  30
ATOM     30  C   UNL     1       0.338   3.052  -5.796  0.00  0.00    +0.086 A 
ATOM     31  C   UNL     1       0.229   3.272  -7.165  0.00  0.00    +0.091 A 
ATOM     32  C   UNL     1       1.355   2.875  -7.978  0.00  0.00    -0.025 A 
ATOM     33  C   UNL     1       2.408   2.328  -7.344  0.00  0.00    -0.008 A 
ATOM     34  S   UNL     1       1.909   2.342  -5.634  0.00  0.00    -0.078 S 
ATOM     35  C   UNL     1       3.700   1.830  -7.936  0.00  0.00    +0.052 C 
ATOM     36  C   UNL     1       1.350   3.064  -9.473  0.00  0.00    +0.045 C 
BRANCH  31  37
ATOM     37  C   UNL     1      -0.968   3.876  -7.754  0.00  0.00    +0.342 C 
ATOM     38  O   UNL     1      -1.041   5.084  -7.878  0.00  0.00    -0.245 OA
BRANCH  37  39
ATOM     39  O   UNL     1      -1.990   3.094  -8.157  0.00  0.00    -0.464 OA
ATOM     40  C   UNL     1      -3.144   3.761  -8.731  0.00  0.00    +0.280 C 
ENDBRANCH  37  39
ENDBRANCH  31  37
ENDBRANCH  28  30
ENDBRANCH  25  26
ENDBRANCH  10  25
TORSDOF 10
