REMARK  Name = ZINC19313132
REMARK  6 active torsions:
REMARK  status: ('A' for Active; 'I' for Inactive)
REMARK    1  A    between atoms: N_13  and  C_14
REMARK    2  A    between atoms: C_14  and  C_15
REMARK    3  A    between atoms: C_15  and  C_17
REMARK    4  A    between atoms: C_15  and  O_37
REMARK    5  A    between atoms: C_17  and  N_18
REMARK    6  A    between atoms: N_21  and  C_24
REMARK                            x       y       z     vdW  Elec       q    Type
REMARK                         _______ _______ _______ _____ _____    ______ ____
ROOT
ATOM      1  N   UNL     1      -0.438   3.050  -1.461  0.00  0.00    -0.303 NA
ATOM      2  C   UNL     1      -0.288   1.589  -1.512  0.00  0.00    +0.066 C 
ATOM      3  C   UNL     1       0.692   1.141  -0.425  0.00  0.00    -0.062 C 
ATOM      4  N   UNL     1       0.193   1.571   0.889  0.00  0.00    +0.389 N 
ATOM      5  C   UNL     1       0.043   3.032   0.940  0.00  0.00    -0.062 C 
ATOM      6  C   UNL     1      -0.937   3.480  -0.147  0.00  0.00    +0.066 C 
ATOM      7  H   UNL     1      -0.800   1.122   1.039  0.00  0.00    -0.080 HD
ENDROOT
BRANCH   4   8
ATOM      8  C   UNL     1       1.070   1.093   1.967  0.00  0.00    -0.005 C 
ATOM      9  C   UNL     1       0.433   1.357   3.309  0.00  0.00    -0.049 A 
ATOM     10  C   UNL     1      -0.747   0.924   3.876  0.00  0.00    +0.003 A 
ATOM     11  C   UNL     1      -1.092   1.331   5.152  0.00  0.00    +0.000 A 
ATOM     12  C   UNL     1      -0.255   2.171   5.864  0.00  0.00    +0.001 A 
ATOM     13  C   UNL     1       0.928   2.608   5.305  0.00  0.00    +0.009 A 
ATOM     14  C   UNL     1       1.283   2.203   4.017  0.00  0.00    -0.016 A 
ATOM     15  C   UNL     1       2.473   2.515   3.187  0.00  0.00    -0.016 A 
ATOM     16  C   UNL     1       2.367   1.864   1.961  0.00  0.00    -0.049 A 
ATOM     17  C   UNL     1       3.359   2.001   1.013  0.00  0.00    +0.003 A 
ATOM     18  C   UNL     1       4.466   2.787   1.278  0.00  0.00    +0.000 A 
ATOM     19  C   UNL     1       4.581   3.438   2.493  0.00  0.00    +0.001 A 
ATOM     20  C   UNL     1       3.593   3.307   3.447  0.00  0.00    +0.009 A 
ENDBRANCH   4   8
BRANCH   1  21
ATOM     21  C   UNL     1      -1.314   3.527  -2.539  0.00  0.00    +0.117 C 
BRANCH  21  22
ATOM     22  C   UNL     1      -1.527   5.036  -2.393  0.00  0.00    +0.148 C 
BRANCH  22  23
ATOM     23  O   UNL     1      -0.263   5.701  -2.435  0.00  0.00    -0.389 OA
ATOM     24  H   UNL     1       0.507   5.468  -1.685  0.00  0.00    +0.210 HD
ENDBRANCH  22  23
BRANCH  22  25
ATOM     25  C   UNL     1      -2.408   5.540  -3.538  0.00  0.00    +0.155 C 
BRANCH  25  38
ATOM     26  C   UNL     1      -5.780   8.936  -1.377  0.00  0.00    +0.001 A 
ATOM     27  C   UNL     1      -5.830   7.550  -1.358  0.00  0.00    +0.002 A 
ATOM     28  C   UNL     1      -4.853   6.805  -1.982  0.00  0.00    +0.026 A 
ATOM     29  C   UNL     1      -3.804   7.442  -2.638  0.00  0.00    +0.050 A 
ATOM     30  C   UNL     1      -3.754   8.843  -2.654  0.00  0.00    +0.008 A 
ATOM     31  C   UNL     1      -4.746   9.584  -2.016  0.00  0.00    +0.010 A 
ATOM     32  C   UNL     1      -2.548   9.210  -3.419  0.00  0.00    +0.008 A 
ATOM     33  C   UNL     1      -1.974  10.428  -3.775  0.00  0.00    +0.010 A 
ATOM     34  C   UNL     1      -0.812  10.446  -4.516  0.00  0.00    +0.001 A 
ATOM     35  C   UNL     1      -0.214   9.258  -4.906  0.00  0.00    +0.002 A 
ATOM     36  C   UNL     1      -0.771   8.046  -4.560  0.00  0.00    +0.026 A 
ATOM     37  C   UNL     1      -1.945   8.007  -3.812  0.00  0.00    +0.050 A 
ATOM     38  N   UNL     1      -2.710   6.958  -3.333  0.00  0.00    -0.337 N 
ENDBRANCH  25  38
ENDBRANCH  22  25
ENDBRANCH  21  22
ENDBRANCH   1  21
TORSDOF 6
