REMARK  Name = ZINC12151584
REMARK  7 active torsions:
REMARK  status: ('A' for Active; 'I' for Inactive)
REMARK    1  A    between atoms: C_10  and  C_12
REMARK    2  A    between atoms: C_12  and  N_64
REMARK    3  A    between atoms: C_13  and  N_64
REMARK    4  A    between atoms: N_16  and  C_19
REMARK    5  A    between atoms: C_23  and  N_25
REMARK    6  A    between atoms: N_25  and  S_26
REMARK    7  A    between atoms: S_26  and  C_29
REMARK                            x       y       z     vdW  Elec       q    Type
REMARK                         _______ _______ _______ _____ _____    ______ ____
ROOT
ATOM      1  C   UNL     1      -3.805   2.889   1.050  0.00  0.00    -0.069 C 
ATOM      2  C   UNL     1      -3.676   1.907  -0.117  0.00  0.00    +0.003 C 
ATOM      3  C   UNL     1      -2.364   1.129   0.019  0.00  0.00    +0.103 C 
ATOM      4  N   UNL     1      -1.235   2.068   0.019  0.00  0.00    -0.330 N 
ATOM      5  C   UNL     1      -1.312   2.992   1.158  0.00  0.00    +0.103 C 
ATOM      6  C   UNL     1      -2.592   3.825   1.056  0.00  0.00    +0.003 C 
ENDROOT
BRANCH   4   7
ATOM      7  C   UNL     1      -0.017   1.386   0.010  0.00  0.00    +0.031 A 
ATOM      8  C   UNL     1       0.002  -0.004   0.002  0.00  0.00    +0.023 A 
ATOM      9  C   UNL     1       1.207  -0.680  -0.013  0.00  0.00    +0.004 A 
ATOM     10  C   UNL     1       2.397   0.023  -0.021  0.00  0.00    +0.024 A 
ATOM     11  C   UNL     1       2.385   1.412  -0.013  0.00  0.00    +0.050 A 
ATOM     12  C   UNL     1       1.176   2.094   0.002  0.00  0.00    +0.047 A 
BRANCH  11  13
ATOM     13  N   UNL     1       3.588   2.121  -0.021  0.00  0.00    -0.216 N 
ATOM     14  H   UNL     1       3.710   2.876   0.576  0.00  0.00    +0.174 HD
BRANCH  13  15
ATOM     15  S   UNL     1       4.806   1.674  -1.050  0.00  0.00    +0.072 S 
ATOM     16  O   UNL     1       5.871   2.591  -0.842  0.00  0.00    -0.150 OA
ATOM     17  O   UNL     1       4.970   0.270  -0.899  0.00  0.00    -0.150 OA
BRANCH  15  18
ATOM     18  C   UNL     1       4.225   1.940  -2.692  0.00  0.00    +0.109 A 
ATOM     19  C   UNL     1       3.569   0.926  -3.365  0.00  0.00    +0.031 A 
ATOM     20  C   UNL     1       3.109   1.135  -4.652  0.00  0.00    +0.040 A 
ATOM     21  C   UNL     1       3.315   2.357  -5.270  0.00  0.00    +0.124 A 
ATOM     22  C   UNL     1       3.976   3.370  -4.596  0.00  0.00    +0.040 A 
ATOM     23  C   UNL     1       4.431   3.160  -3.308  0.00  0.00    +0.031 A 
ATOM     24  F   UNL     1       2.869   2.561  -6.529  0.00  0.00    -0.205 F 
ENDBRANCH  15  18
ENDBRANCH  13  15
ENDBRANCH  11  13
ENDBRANCH   4   7
BRANCH   1  25
ATOM     25  N   UNL     1      -5.039   3.680   0.885  0.00  0.00    +0.383 N 
ATOM     26  H   UNL     1      -4.848   4.480   0.270  0.00  0.00    -0.085 HD
ATOM     27  H   UNL     1      -5.765   3.090   0.463  0.00  0.00    -0.085 HD
BRANCH  25  28
ATOM     28  C   UNL     1      -5.510   4.173   2.193  0.00  0.00    -0.045 C 
BRANCH  28  38
ATOM     29  C   UNL     1      -8.162   6.354   5.802  0.00  0.00    +0.000 A 
ATOM     30  C   UNL     1      -7.713   5.056   5.642  0.00  0.00    +0.000 A 
ATOM     31  C   UNL     1      -7.271   4.628   4.406  0.00  0.00    +0.006 A 
ATOM     32  C   UNL     1      -7.275   5.494   3.323  0.00  0.00    -0.017 A 
ATOM     33  C   UNL     1      -7.720   6.789   3.484  0.00  0.00    -0.040 A 
ATOM     34  C   UNL     1      -8.165   7.218   4.725  0.00  0.00    +0.004 A 
ATOM     35  C   UNL     1      -7.728   7.764   2.334  0.00  0.00    +0.063 C 
ATOM     36  C   UNL     1      -7.609   7.005   1.012  0.00  0.00    +0.165 C 
ATOM     37  O   UNL     1      -6.518   6.082   1.115  0.00  0.00    -0.374 OA
ATOM     38  C   UNL     1      -6.789   4.988   1.990  0.00  0.00    +0.132 C 
ENDBRANCH  28  38
ENDBRANCH  25  28
ENDBRANCH   1  25
TORSDOF 7
