REMARK  Name = ZINC13065175
REMARK  15 active torsions:
REMARK  status: ('A' for Active; 'I' for Inactive)
REMARK    1  A    between atoms: C_1  and  C_2
REMARK    2  A    between atoms: C_2  and  C_3
REMARK    3  A    between atoms: C_3  and  C_5
REMARK    4  A    between atoms: C_3  and  N_71
REMARK    5  A    between atoms: N_9  and  C_10
REMARK    6  A    between atoms: C_10  and  C_11
REMARK    7  A    between atoms: C_10  and  C_12
REMARK    8  A    between atoms: C_10  and  C_13
REMARK    9  A    between atoms: C_13  and  C_14
REMARK   10  A    between atoms: C_15  and  C_16
REMARK   11  A    between atoms: C_15  and  N_71
REMARK   12  A    between atoms: C_23  and  C_24
REMARK   13  A    between atoms: C_23  and  N_71
REMARK   14  A    between atoms: C_27  and  C_37
REMARK   15  A    between atoms: C_30  and  C_36
REMARK                            x       y       z     vdW  Elec       q    Type
REMARK                         _______ _______ _______ _____ _____    ______ ____
ROOT
ATOM      1  N   UNL     1      -0.660   2.309   0.782  0.00  0.00    +0.392 N 
ATOM      2  H   UNL     1      -0.416   1.841   1.663  0.00  0.00    -0.080 HD
ENDROOT
BRANCH   1   3
ATOM      3  C   UNL     1      -0.058   3.659   0.773  0.00  0.00    +0.003 C 
BRANCH   3   4
ATOM      4  C   UNL     1       0.089   4.128   2.197  0.00  0.00    +0.139 A 
ATOM      5  N   UNL     1      -0.830   4.091   3.132  0.00  0.00    -0.115 NA
ATOM      6  N   UNL     1      -0.321   4.581   4.209  0.00  0.00    -0.023 NA
ATOM      7  N   UNL     1       0.898   4.929   3.986  0.00  0.00    -0.043 NA
ATOM      8  N   UNL     1       1.190   4.661   2.759  0.00  0.00    -0.225 N 
BRANCH   8   9
ATOM      9  C   UNL     1       2.476   4.896   2.098  0.00  0.00    +0.061 C 
ATOM     10  C   UNL     1       3.087   3.558   1.679  0.00  0.00    +0.036 C 
ATOM     11  C   UNL     1       2.262   5.769   0.860  0.00  0.00    +0.036 C 
BRANCH   9  12
ATOM     12  C   UNL     1       3.424   5.608   3.066  0.00  0.00    +0.026 C 
ATOM     13  C   UNL     1       4.767   5.854   2.377  0.00  0.00    +0.006 C 
ENDBRANCH   9  12
ENDBRANCH   8   9
ENDBRANCH   3   4
BRANCH   3  15
ATOM     14  C   UNL     1      -0.955   4.260  -1.480  0.00  0.00    +0.002 C 
ATOM     15  C   UNL     1      -0.950   4.634   0.003  0.00  0.00    -0.011 C 
ENDBRANCH   3  15
ENDBRANCH   1   3
BRANCH   1  16
ATOM     16  C   UNL     1      -2.131   2.411   0.684  0.00  0.00    -0.042 C 
BRANCH  16  17
ATOM     17  C   UNL     1      -2.679   2.798   2.034  0.00  0.00    -0.064 A 
ATOM     18  C   UNL     1      -2.828   1.840   3.019  0.00  0.00    +0.004 A 
ATOM     19  C   UNL     1      -3.326   2.195   4.259  0.00  0.00    +0.038 A 
ATOM     20  C   UNL     1      -3.685   3.508   4.510  0.00  0.00    +0.123 A 
ATOM     21  C   UNL     1      -3.540   4.466   3.521  0.00  0.00    +0.038 A 
ATOM     22  C   UNL     1      -3.037   4.110   2.284  0.00  0.00    +0.004 A 
ATOM     23  F   UNL     1      -4.176   3.855   5.720  0.00  0.00    -0.205 F 
ENDBRANCH  16  17
ENDBRANCH   1  16
BRANCH   1  24
ATOM     24  C   UNL     1      -0.133   1.512  -0.346  0.00  0.00    -0.036 C 
BRANCH  24  25
ATOM     25  C   UNL     1      -0.457   0.060  -0.107  0.00  0.00    +0.001 A 
ATOM     26  C   UNL     1      -1.566  -0.485  -0.665  0.00  0.00    +0.017 A 
ATOM     27  C   UNL     1      -1.850  -1.900  -0.417  0.00  0.00    +0.002 A 
ATOM     28  C   UNL     1      -2.975  -2.520  -0.970  0.00  0.00    -0.041 A 
ATOM     29  C   UNL     1      -3.214  -3.840  -0.716  0.00  0.00    +0.004 A 
ATOM     30  C   UNL     1      -2.350  -4.573   0.087  0.00  0.00    +0.005 A 
ATOM     31  C   UNL     1      -1.236  -3.983   0.642  0.00  0.00    -0.026 A 
ATOM     32  C   UNL     1      -0.971  -2.639   0.397  0.00  0.00    +0.052 A 
ATOM     33  N   UNL     1       0.137  -2.024   0.939  0.00  0.00    -0.322 N 
ATOM     34  H   UNL     1       0.741  -2.535   1.500  0.00  0.00    +0.169 HD
ATOM     35  C   UNL     1       0.392  -0.726   0.702  0.00  0.00    +0.251 A 
ATOM     36  O   UNL     1       1.381  -0.214   1.198  0.00  0.00    -0.268 OA
ATOM     37  C   UNL     1      -0.306  -4.791   1.511  0.00  0.00    +0.046 C 
ATOM     38  C   UNL     1      -3.920  -1.734  -1.842  0.00  0.00    +0.044 C 
ENDBRANCH  24  25
ENDBRANCH   1  24
TORSDOF 9
