REMARK  Name = ZINC59293501
REMARK  7 active torsions:
REMARK  status: ('A' for Active; 'I' for Inactive)
REMARK    1  A    between atoms: C_1  and  N_2
REMARK    2  A    between atoms: N_2  and  C_3
REMARK    3  A    between atoms: C_4  and  C_6
REMARK    4  A    between atoms: C_12  and  C_13
REMARK    5  A    between atoms: C_21  and  N_34
REMARK    6  A    between atoms: C_22  and  C_32
REMARK    7  A    between atoms: C_23  and  C_25
REMARK                            x       y       z     vdW  Elec       q    Type
REMARK                         _______ _______ _______ _____ _____    ______ ____
ROOT
ATOM      1  C   UNL     1      -1.108  -2.183   1.010  0.00  0.00    +0.058 C 
ATOM      2  C   UNL     1      -2.161  -2.941   0.605  0.00  0.00    +0.099 A 
ATOM      3  N   UNL     1      -2.190  -4.320   0.649  0.00  0.00    -0.257 N 
ATOM      4  C   UNL     1      -3.307  -4.936   0.213  0.00  0.00    +0.271 A 
ATOM      5  O   UNL     1      -3.394  -6.150   0.226  0.00  0.00    -0.266 OA
ATOM      6  C   UNL     1      -4.416  -4.108  -0.277  0.00  0.00    +0.080 A 
ATOM      7  C   UNL     1      -5.626  -4.487  -0.760  0.00  0.00    +0.030 C 
ATOM      8  S   UNL     1      -3.743  -2.469  -0.065  0.00  0.00    -0.065 S 
ATOM      9  C   UNL     1      -1.074  -5.010   1.136  0.00  0.00    +0.118 C 
ATOM     10  C   UNL     1       0.050  -4.403   1.575  0.00  0.00    +0.079 C 
ATOM     11  C   UNL     1       0.124  -2.890   1.540  0.00  0.00    +0.102 C 
ENDROOT
BRANCH   7  12
ATOM     12  C   UNL     1      -5.918  -5.911  -0.978  0.00  0.00    -0.005 A 
ATOM     13  C   UNL     1      -4.936  -6.758  -1.504  0.00  0.00    +0.009 A 
ATOM     14  C   UNL     1      -5.217  -8.092  -1.705  0.00  0.00    +0.001 A 
ATOM     15  C   UNL     1      -6.467  -8.596  -1.388  0.00  0.00    +0.001 A 
ATOM     16  C   UNL     1      -7.444  -7.767  -0.867  0.00  0.00    +0.020 A 
ATOM     17  C   UNL     1      -7.178  -6.429  -0.654  0.00  0.00    +0.048 A 
ATOM     18 CL   UNL     1      -8.403  -5.392   0.006  0.00  0.00    -0.083 Cl
ENDBRANCH   7  12
BRANCH  11  19
ATOM     19  C   UNL     1       0.382  -2.401   2.942  0.00  0.00    -0.016 A 
ATOM     20  C   UNL     1      -0.529  -2.671   3.946  0.00  0.00    +0.006 A 
ATOM     21  C   UNL     1      -0.293  -2.223   5.232  0.00  0.00    +0.000 A 
ATOM     22  C   UNL     1       0.854  -1.503   5.514  0.00  0.00    +0.001 A 
ATOM     23  C   UNL     1       1.764  -1.232   4.511  0.00  0.00    +0.020 A 
ATOM     24  C   UNL     1       1.532  -1.686   3.225  0.00  0.00    +0.045 A 
ATOM     25 CL   UNL     1       2.678  -1.352   1.965  0.00  0.00    -0.083 Cl
ENDBRANCH  11  19
BRANCH   1  29
ATOM     26  C   UNL     1      -0.904   1.298  -0.310  0.00  0.00    +0.132 C 
ATOM     27  N   UNL     1      -0.961  -0.164  -0.248  0.00  0.00    -0.304 N 
ATOM     28  C   UNL     1      -0.803  -0.956  -1.471  0.00  0.00    +0.132 C 
ATOM     29  C   UNL     1      -1.157  -0.782   0.933  0.00  0.00    +0.246 C 
ATOM     30  O   UNL     1      -1.379  -0.124   1.935  0.00  0.00    -0.270 OA
ENDBRANCH   1  29
BRANCH   9  31
ATOM     31  N   UNL     1      -1.125  -6.382   1.170  0.00  0.00    -0.343 N 
ATOM     32  H   UNL     1      -0.305  -6.899   1.130  0.00  0.00    +0.144 HD
ATOM     33  H   UNL     1      -1.980  -6.835   1.233  0.00  0.00    +0.144 HD
ENDBRANCH   9  31
BRANCH  10  34
ATOM     34  C   UNL     1       1.154  -5.175   2.060  0.00  0.00    +0.099 C 
ATOM     35  N   UNL     1       2.029  -5.788   2.446  0.00  0.00    -0.191 NA
ENDBRANCH  10  34
TORSDOF 5
