REMARK  Name = ZINC43221751
REMARK  13 active torsions:
REMARK  status: ('A' for Active; 'I' for Inactive)
REMARK    1  A    between atoms: C_1  and  C_2
REMARK    2  A    between atoms: C_2  and  C_3
REMARK    3  A    between atoms: C_3  and  C_5
REMARK    4  A    between atoms: C_3  and  C_6
REMARK    5  A    between atoms: C_6  and  C_32
REMARK    6  A    between atoms: C_11  and  C_14
REMARK    7  A    between atoms: C_17  and  O_22
REMARK    8  A    between atoms: C_18  and  O_20
REMARK    9  A    between atoms: O_20  and  C_21
REMARK   10  A    between atoms: N_25  and  C_28
REMARK   11  A    between atoms: C_28  and  C_29
REMARK   12  A    between atoms: C_28  and  C_30
REMARK   13  A    between atoms: C_28  and  C_31
REMARK                            x       y       z     vdW  Elec       q    Type
REMARK                         _______ _______ _______ _____ _____    ______ ____
ROOT
ATOM      1  C   UNL     1      -1.507  -2.062  -0.008  0.00  0.00    +0.051 C 
ATOM      2  C   UNL     1      -2.956  -2.518   0.016  0.00  0.00    +0.086 C 
ATOM      3  C   UNL     1      -3.245  -2.461  -1.533  0.00  0.00    +0.077 C 
ATOM      4  C   UNL     1      -2.084  -3.178  -2.087  0.00  0.00    -0.027 C 
ATOM      5  N   UNL     1      -0.942  -2.588  -1.287  0.00  0.00    +0.396 N 
ATOM      6  C   UNL     1      -4.686  -2.499  -1.564  0.00  0.00    +0.225 C 
ATOM      7  O   UNL     1      -5.392  -3.020  -2.400  0.00  0.00    -0.275 OA
ATOM      8  N   UNL     1      -5.085  -1.817  -0.441  0.00  0.00    -0.236 N 
ATOM      9  C   UNL     1      -4.057  -1.602   0.450  0.00  0.00    +0.225 C 
ATOM     10  O   UNL     1      -4.040  -0.832   1.387  0.00  0.00    -0.275 OA
ATOM     11  H   UNL     1      -0.507  -1.838  -1.803  0.00  0.00    -0.083 HD
ATOM     12  H   UNL     1      -0.262  -3.308  -1.090  0.00  0.00    -0.083 HD
ENDROOT
BRANCH   4  13
ATOM     13  C   UNL     1      -2.214  -4.663  -1.861  0.00  0.00    -0.057 A 
ATOM     14  C   UNL     1      -1.903  -5.203  -0.628  0.00  0.00    +0.006 A 
ATOM     15  C   UNL     1      -2.021  -6.564  -0.416  0.00  0.00    +0.049 A 
ATOM     16  C   UNL     1      -2.452  -7.390  -1.442  0.00  0.00    +0.158 A 
ATOM     17  C   UNL     1      -2.767  -6.846  -2.684  0.00  0.00    +0.161 A 
ATOM     18  C   UNL     1      -2.651  -5.480  -2.887  0.00  0.00    +0.051 A 
BRANCH  17  19
ATOM     19  O   UNL     1      -3.191  -7.652  -3.693  0.00  0.00    -0.491 OA
ATOM     20  C   UNL     1      -3.495  -7.024  -4.940  0.00  0.00    +0.277 C 
ENDBRANCH  17  19
BRANCH  16  21
ATOM     21  O   UNL     1      -2.568  -8.729  -1.236  0.00  0.00    -0.503 OA
ATOM     22  H   UNL     1      -3.438  -9.004  -0.915  0.00  0.00    +0.292 HD
ENDBRANCH  16  21
ENDBRANCH   4  13
BRANCH   8  23
ATOM     23  C   UNL     1      -6.461  -1.372  -0.208  0.00  0.00    +0.036 C 
ATOM     24  C   UNL     1      -7.338  -1.787  -1.391  0.00  0.00    +0.031 C 
ATOM     25  C   UNL     1      -6.995  -2.015   1.073  0.00  0.00    +0.031 C 
ATOM     26  C   UNL     1      -6.487   0.151  -0.063  0.00  0.00    +0.031 C 
ENDBRANCH   8  23
BRANCH   1  27
ATOM     27  C   UNL     1      -0.759  -2.635   1.167  0.00  0.00    +0.347 C 
ATOM     28  O   UNL     1      -1.104  -2.359   2.304  0.00  0.00    -0.248 OA
ATOM     29  O   UNL     1       0.193  -3.375   0.982  0.00  0.00    -0.248 OA
ENDBRANCH   1  27
BRANCH   1  30
ATOM     30  C   UNL     1      -1.433  -0.534   0.013  0.00  0.00    -0.014 C 
ATOM     31  C   UNL     1       0.030  -0.093  -0.059  0.00  0.00    +0.006 C 
BRANCH  30  33
ATOM     32  C   UNL     1      -1.980   1.543  -1.264  0.00  0.00    +0.004 C 
ATOM     33  C   UNL     1      -2.196   0.030  -1.188  0.00  0.00    -0.001 C 
ENDBRANCH  30  33
ENDBRANCH   1  30
TORSDOF 7
