REMARK  Name = ZINC12453651
REMARK  4 active torsions:
REMARK  status: ('A' for Active; 'I' for Inactive)
REMARK    1  A    between atoms: C_8  and  C_10
REMARK    2  A    between atoms: C_14  and  O_16
REMARK    3  A    between atoms: C_21  and  C_22
REMARK    4  A    between atoms: C_21  and  N_52
REMARK                            x       y       z     vdW  Elec       q    Type
REMARK                         _______ _______ _______ _____ _____    ______ ____
ROOT
ATOM      1  C   UNL     1      -4.946   3.142  -0.509  0.00  0.00    +0.011 A 
ATOM      2  C   UNL     1      -3.991   2.442  -1.251  0.00  0.00    +0.016 A 
ATOM      3  C   UNL     1      -3.025   1.709  -0.599  0.00  0.00    -0.018 A 
ATOM      4  C   UNL     1      -2.983   1.670   0.782  0.00  0.00    +0.163 A 
ATOM      5  C   UNL     1      -3.938   2.356   1.530  0.00  0.00    +0.159 A 
ATOM      6  C   UNL     1      -4.916   3.091   0.886  0.00  0.00    +0.059 A 
ATOM      7  O   UNL     1      -1.988   0.987   1.412  0.00  0.00    -0.490 OA
ATOM      8  C   UNL     1      -0.681   1.554   1.283  0.00  0.00    +0.211 C 
ATOM      9  C   UNL     1      -0.013   1.086   0.008  0.00  0.00    -0.036 C 
ATOM     10  C   UNL     1      -1.996   0.930  -1.396  0.00  0.00    -0.039 C 
ATOM     11  N   UNL     1      -0.682   1.591  -1.209  0.00  0.00    +0.387 N 
ATOM     12  H   UNL     1      -0.833   2.601  -1.107  0.00  0.00    -0.081 HD
ENDROOT
BRANCH   1  20
ATOM     13  C   UNL     1      -8.537   5.915  -4.672  0.00  0.00    +0.002 A 
ATOM     14  C   UNL     1      -9.344   6.500  -3.705  0.00  0.00    +0.001 A 
ATOM     15  C   UNL     1      -9.075   6.269  -2.369  0.00  0.00    +0.017 A 
ATOM     16  C   UNL     1      -8.014   5.469  -2.022  0.00  0.00    +0.040 A 
ATOM     17  C   UNL     1      -7.173   4.859  -2.983  0.00  0.00    +0.079 A 
ATOM     18  C   UNL     1      -7.485   5.121  -4.339  0.00  0.00    +0.029 A 
ATOM     19  N   UNL     1      -6.171   4.106  -2.490  0.00  0.00    -0.239 NA
ATOM     20  C   UNL     1      -5.986   3.934  -1.199  0.00  0.00    +0.110 A 
ATOM     21  S   UNL     1      -7.307   4.908  -0.491  0.00  0.00    -0.067 S 
ENDBRANCH   1  20
BRANCH   5  22
ATOM     22  O   UNL     1      -3.907   2.304   2.889  0.00  0.00    -0.503 OA
ATOM     23  H   UNL     1      -4.422   1.578   3.266  0.00  0.00    +0.292 HD
ENDBRANCH   5  22
BRANCH  11  24
ATOM     24  C   UNL     1       0.171   1.353  -2.384  0.00  0.00    -0.042 C 
BRANCH  24  25
ATOM     25  C   UNL     1       1.385   2.240  -2.282  0.00  0.00    -0.062 A 
ATOM     26  C   UNL     1       2.535   1.760  -1.655  0.00  0.00    +0.004 A 
ATOM     27  C   UNL     1       3.648   2.536  -1.546  0.00  0.00    +0.030 A 
ATOM     28  C   UNL     1       3.643   3.840  -2.071  0.00  0.00    +0.089 A 
ATOM     29  C   UNL     1       2.474   4.327  -2.708  0.00  0.00    +0.089 A 
ATOM     30  C   UNL     1       1.345   3.494  -2.806  0.00  0.00    +0.031 A 
ATOM     31  N   UNL     1       2.463   5.567  -3.210  0.00  0.00    -0.252 NA
ATOM     32  C   UNL     1       3.535   6.319  -3.108  0.00  0.00    +0.131 A 
ATOM     33  C   UNL     1       4.686   5.840  -2.480  0.00  0.00    +0.131 A 
ATOM     34  N   UNL     1       4.721   4.625  -1.980  0.00  0.00    -0.252 NA
ENDBRANCH  24  25
ENDBRANCH  11  24
TORSDOF 4
