REMARK  Name = ZINC36029903
REMARK  14 active torsions:
REMARK  status: ('A' for Active; 'I' for Inactive)
REMARK    1  A    between atoms: C_1  and  C_2
REMARK    2  A    between atoms: C_5  and  S_8
REMARK    3  A    between atoms: S_8  and  N_11
REMARK    4  A    between atoms: C_18  and  C_35
REMARK    5  A    between atoms: N_22  and  C_23
REMARK    6  A    between atoms: C_23  and  C_24
REMARK    7  A    between atoms: C_24  and  C_25
REMARK    8  A    between atoms: C_28  and  O_33
REMARK    9  A    between atoms: C_29  and  O_31
REMARK   10  A    between atoms: O_31  and  C_32
REMARK   11  A    between atoms: O_33  and  C_34
REMARK   12  A    between atoms: C_35  and  C_36
REMARK   13  A    between atoms: C_36  and  C_37
REMARK   14  A    between atoms: C_36  and  C_38
REMARK                            x       y       z     vdW  Elec       q    Type
REMARK                         _______ _______ _______ _____ _____    ______ ____
ROOT
ATOM      1  N   UNL     1       1.545  -5.144  -0.770  0.00  0.00    -0.177 NA
ATOM      2  C   UNL     1       2.442  -5.502  -1.877  0.00  0.00    +0.109 C 
ATOM      3  C   UNL     1       3.625  -4.527  -1.887  0.00  0.00    +0.023 C 
ATOM      4  C   UNL     1       4.286  -4.518  -0.510  0.00  0.00    +0.006 C 
ATOM      5  C   UNL     1       3.288  -4.066   0.555  0.00  0.00    +0.023 C 
ATOM      6  C   UNL     1       2.103  -5.031   0.584  0.00  0.00    +0.109 C 
ATOM      7  N   UNL     1       5.450  -3.608  -0.521  0.00  0.00    +0.401 N 
ATOM      8  C   UNL     1       6.577  -4.508  -0.864  0.00  0.00    +0.019 C 
ATOM      9  C   UNL     1       6.137  -5.876  -0.388  0.00  0.00    +0.200 C 
ATOM     10  O   UNL     1       6.861  -6.833  -0.215  0.00  0.00    -0.277 OA
ATOM     11  N   UNL     1       4.803  -5.850  -0.187  0.00  0.00    -0.313 N 
ATOM     12  H   UNL     1       5.338  -2.894  -1.226  0.00  0.00    -0.082 HD
ATOM     13  H   UNL     1       5.588  -3.194   0.389  0.00  0.00    -0.082 HD
ENDROOT
BRANCH   1  14
ATOM     14  S   UNL     1      -0.064  -4.867  -1.045  0.00  0.00    +0.061 S 
ATOM     15  O   UNL     1      -0.732  -5.098   0.188  0.00  0.00    -0.153 OA
ATOM     16  O   UNL     1      -0.400  -5.567  -2.235  0.00  0.00    -0.153 OA
BRANCH  14  21
ATOM     17  C   UNL     1      -0.684   1.009  -2.268  0.00  0.00    +0.044 C 
ATOM     18  C   UNL     1      -0.529  -0.459  -1.962  0.00  0.00    -0.050 A 
ATOM     19  C   UNL     1      -0.297  -1.357  -2.987  0.00  0.00    +0.005 A 
ATOM     20  C   UNL     1      -0.155  -2.704  -2.706  0.00  0.00    +0.029 A 
ATOM     21  C   UNL     1      -0.244  -3.151  -1.402  0.00  0.00    +0.105 A 
ATOM     22  C   UNL     1      -0.475  -2.252  -0.377  0.00  0.00    +0.029 A 
ATOM     23  C   UNL     1      -0.613  -0.906  -0.657  0.00  0.00    +0.005 A 
ENDBRANCH  14  21
ENDBRANCH   1  14
BRANCH  11  24
ATOM     24  C   UNL     1       3.997  -6.980   0.281  0.00  0.00    +0.110 C 
BRANCH  24  25
ATOM     25  C   UNL     1       3.973  -6.990   1.811  0.00  0.00    +0.054 C 
BRANCH  25  26
ATOM     26  C   UNL     1       3.129  -8.142   2.293  0.00  0.00    -0.042 A 
ATOM     27  C   UNL     1       1.773  -7.965   2.498  0.00  0.00    +0.007 A 
ATOM     28  C   UNL     1       0.994  -9.018   2.939  0.00  0.00    +0.049 A 
ATOM     29  C   UNL     1       1.571 -10.255   3.177  0.00  0.00    +0.161 A 
ATOM     30  C   UNL     1       2.936 -10.433   2.971  0.00  0.00    +0.162 A 
ATOM     31  C   UNL     1       3.710  -9.375   2.523  0.00  0.00    +0.053 A 
BRANCH  30  32
ATOM     32  O   UNL     1       3.507 -11.645   3.203  0.00  0.00    -0.491 OA
ATOM     33  C   UNL     1       4.913 -11.755   2.969  0.00  0.00    +0.277 C 
ENDBRANCH  30  32
BRANCH  29  34
ATOM     34  O   UNL     1       0.807 -11.291   3.612  0.00  0.00    -0.491 OA
ATOM     35  C   UNL     1      -0.586 -11.035   3.803  0.00  0.00    +0.277 C 
ENDBRANCH  29  34
ENDBRANCH  25  26
ENDBRANCH  24  25
ENDBRANCH  11  24
BRANCH   8  36
ATOM     36  C   UNL     1       7.849  -4.072  -0.133  0.00  0.00    -0.004 C 
BRANCH  36  37
ATOM     37  C   UNL     1       8.267  -2.683  -0.623  0.00  0.00    -0.018 C 
ATOM     38  C   UNL     1       9.443  -2.180   0.216  0.00  0.00    +0.007 C 
ATOM     39  C   UNL     1       8.685  -2.765  -2.092  0.00  0.00    +0.007 C 
ENDBRANCH  36  37
ENDBRANCH   8  36
TORSDOF 9
