REMARK  Name = ZINC36003396
REMARK  13 active torsions:
REMARK  status: ('A' for Active; 'I' for Inactive)
REMARK    1  A    between atoms: C_1  and  C_2
REMARK    2  A    between atoms: C_3  and  C_13
REMARK    3  A    between atoms: C_4  and  C_12
REMARK    4  A    between atoms: C_7  and  C_8
REMARK    5  A    between atoms: C_8  and  O_10
REMARK    6  A    between atoms: O_10  and  C_11
REMARK    7  A    between atoms: C_13  and  C_15
REMARK    8  A    between atoms: C_15  and  N_16
REMARK    9  A    between atoms: N_16  and  C_25
REMARK   10  A    between atoms: C_17  and  C_19
REMARK   11  A    between atoms: C_25  and  C_26
REMARK   12  A    between atoms: C_25  and  C_27
REMARK   13  A    between atoms: C_25  and  C_28
REMARK                            x       y       z     vdW  Elec       q    Type
REMARK                         _______ _______ _______ _____ _____    ______ ____
ROOT
ATOM      1  C   UNL     1       0.602  -1.478  -3.005  0.00  0.00    +0.182 C 
ATOM      2  O   UNL     1       1.087  -0.367  -3.048  0.00  0.00    -0.290 OA
ENDROOT
BRANCH   1   5
ATOM      3  C   UNL     1      -0.434  -4.462  -2.602  0.00  0.00    +0.047 C 
ATOM      4  C   UNL     1       0.083  -3.528  -1.539  0.00  0.00    -0.008 A 
ATOM      5  C   UNL     1       0.539  -2.203  -1.732  0.00  0.00    +0.043 A 
ATOM      6  C   UNL     1       0.918  -1.720  -0.488  0.00  0.00    +0.024 A 
ATOM      7  N   UNL     1       0.710  -2.683   0.420  0.00  0.00    -0.352 N 
ATOM      8  H   UNL     1       0.891  -2.607   1.370  0.00  0.00    +0.166 HD
ATOM      9  C   UNL     1       0.193  -3.797  -0.207  0.00  0.00    +0.128 A 
ATOM     10  C   UNL     1       1.470  -0.346  -0.207  0.00  0.00    +0.064 C 
BRANCH   9  11
ATOM     11  C   UNL     1      -0.174  -5.057   0.448  0.00  0.00    +0.356 C 
ATOM     12  O   UNL     1      -0.620  -5.977  -0.211  0.00  0.00    -0.243 OA
BRANCH  11  13
ATOM     13  O   UNL     1      -0.015  -5.197   1.780  0.00  0.00    -0.463 OA
ATOM     14  C   UNL     1      -0.393  -6.451   2.350  0.00  0.00    +0.280 C 
ENDBRANCH  11  13
ENDBRANCH   9  11
ENDBRANCH   1   5
BRANCH   1  15
ATOM     15  C   UNL     1       0.063  -2.114  -4.261  0.00  0.00    +0.188 C 
BRANCH  15  16
ATOM     16  N   UNL     1       0.118  -1.147  -5.360  0.00  0.00    -0.285 N 
ATOM     17  C   UNL     1       1.306  -0.806  -5.899  0.00  0.00    +0.247 C 
ATOM     18  O   UNL     1       1.371   0.110  -6.695  0.00  0.00    -0.270 OA
BRANCH  17  19
ATOM     19  C   UNL     1       2.528  -1.548  -5.522  0.00  0.00    +0.037 A 
ATOM     20  C   UNL     1       2.543  -2.337  -4.371  0.00  0.00    +0.013 A 
ATOM     21  C   UNL     1       3.687  -3.027  -4.026  0.00  0.00    +0.001 A 
ATOM     22  C   UNL     1       4.818  -2.937  -4.818  0.00  0.00    +0.000 A 
ATOM     23  C   UNL     1       4.810  -2.156  -5.960  0.00  0.00    +0.001 A 
ATOM     24  C   UNL     1       3.671  -1.466  -6.320  0.00  0.00    +0.013 A 
ENDBRANCH  17  19
BRANCH  16  25
ATOM     25  C   UNL     1      -1.117  -0.550  -5.873  0.00  0.00    +0.030 C 
ATOM     26  C   UNL     1      -1.837   0.186  -4.741  0.00  0.00    +0.031 C 
ATOM     27  C   UNL     1      -0.780   0.439  -6.991  0.00  0.00    +0.031 C 
ATOM     28  C   UNL     1      -2.025  -1.651  -6.424  0.00  0.00    +0.031 C 
ENDBRANCH  16  25
ENDBRANCH  15  16
ENDBRANCH   1  15
TORSDOF 7
