REMARK  Name = ZINC02092955
REMARK  7 active torsions:
REMARK  status: ('A' for Active; 'I' for Inactive)
REMARK    1  A    between atoms: C_1  and  C_2
REMARK    2  A    between atoms: C_5  and  N_9
REMARK    3  A    between atoms: C_6  and  C_8
REMARK    4  A    between atoms: C_10  and  C_12
REMARK    5  A    between atoms: C_12  and  C_14
REMARK    6  A    between atoms: C_12  and  N_21
REMARK    7  A    between atoms: C_14  and  C_15
REMARK                            x       y       z     vdW  Elec       q    Type
REMARK                         _______ _______ _______ _____ _____    ______ ____
ROOT
ATOM      1  C   UNL     1      -0.232   1.024  -0.233  0.00  0.00    +0.165 C 
ENDROOT
BRANCH   1   2
ATOM      2  N   UNL     1      -0.616   1.424   1.123  0.00  0.00    -0.288 N 
ATOM      3  C   UNL     1      -1.640   0.806   1.744  0.00  0.00    +0.303 C 
ATOM      4  O   UNL     1      -2.194  -0.137   1.212  0.00  0.00    -0.253 OA
ATOM      5  N   UNL     1      -2.051   1.233   2.954  0.00  0.00    -0.285 N 
ATOM      6  C   UNL     1      -1.468   2.434   3.563  0.00  0.00    +0.114 C 
ATOM      7  C   UNL     1      -1.025   2.139   4.990  0.00  0.00    +0.027 C 
ATOM      8  C   UNL     1      -2.146   1.466   5.784  0.00  0.00    +0.018 C 
ATOM      9  C   UNL     1      -2.521   0.161   5.078  0.00  0.00    +0.054 C 
ATOM     10  C   UNL     1      -3.099   0.510   3.691  0.00  0.00    +0.119 C 
ATOM     11  C   UNL     1      -1.282  -0.678   4.865  0.00  0.00    +0.027 A 
ATOM     12  C   UNL     1      -1.451  -2.022   4.745  0.00  0.00    +0.022 A 
ATOM     13  C   UNL     1      -0.370  -2.847   4.416  0.00  0.00    +0.007 A 
ATOM     14  C   UNL     1       0.852  -2.279   4.205  0.00  0.00    +0.070 A 
ATOM     15  C   UNL     1       0.994  -0.892   4.349  0.00  0.00    +0.251 A 
ATOM     16  O   UNL     1       2.072  -0.369   4.118  0.00  0.00    -0.268 OA
ATOM     17  N   UNL     1      -0.053  -0.126   4.743  0.00  0.00    -0.312 N 
ATOM     18  C   UNL     1       0.225   1.281   5.033  0.00  0.00    +0.130 C 
ATOM     19  H   UNL     1      -0.132   2.134   1.574  0.00  0.00    +0.151 HD
ENDBRANCH   1   2
BRANCH   1  21
ATOM     20  N   UNL     1       1.833   0.909  -1.589  0.00  0.00    -0.284 N 
ATOM     21  C   UNL     1       1.252   1.214  -0.412  0.00  0.00    +0.238 C 
ATOM     22  O   UNL     1       1.923   1.643   0.503  0.00  0.00    -0.273 OA
ATOM     23  H   UNL     1       1.288   0.634  -2.342  0.00  0.00    +0.155 HD
BRANCH  20  28
ATOM     24  C   UNL     1       7.471   1.234  -2.137  0.00  0.00    +0.044 C 
ATOM     25  C   UNL     1       5.973   1.148  -1.991  0.00  0.00    -0.050 A 
ATOM     26  C   UNL     1       5.308   2.033  -1.163  0.00  0.00    +0.005 A 
ATOM     27  C   UNL     1       3.936   1.957  -1.027  0.00  0.00    +0.024 A 
ATOM     28  C   UNL     1       3.224   0.989  -1.724  0.00  0.00    +0.036 A 
ATOM     29  C   UNL     1       3.895   0.098  -2.550  0.00  0.00    -0.029 A 
ATOM     30  C   UNL     1       5.267   0.183  -2.686  0.00  0.00    +0.008 A 
ATOM     31  C   UNL     1       3.127  -0.958  -3.303  0.00  0.00    +0.045 C 
ENDBRANCH  20  28
ENDBRANCH   1  21
BRANCH   1  32
ATOM     32  C   UNL     1      -0.983   1.884  -1.250  0.00  0.00    +0.067 C 
BRANCH  32  33
ATOM     33  C   UNL     1      -2.459   1.589  -1.166  0.00  0.00    -0.045 A 
ATOM     34  C   UNL     1      -2.989   0.512  -1.851  0.00  0.00    +0.004 A 
ATOM     35  C   UNL     1      -4.341   0.239  -1.769  0.00  0.00    +0.000 A 
ATOM     36  C   UNL     1      -5.166   1.049  -1.010  0.00  0.00    +0.000 A 
ATOM     37  C   UNL     1      -4.637   2.129  -0.330  0.00  0.00    +0.000 A 
ATOM     38  C   UNL     1      -3.283   2.399  -0.407  0.00  0.00    +0.004 A 
ENDBRANCH  32  33
ENDBRANCH   1  32
TORSDOF 5
