REMARK  Name = ZINC39197531
REMARK  9 active torsions:
REMARK  status: ('A' for Active; 'I' for Inactive)
REMARK    1  A    between atoms: C_1  and  C_2
REMARK    2  A    between atoms: C_2  and  C_3
REMARK    3  A    between atoms: C_8  and  N_9
REMARK    4  A    between atoms: C_10  and  C_29
REMARK    5  A    between atoms: C_12  and  C_14
REMARK    6  A    between atoms: N_16  and  C_17
REMARK    7  A    between atoms: C_17  and  C_19
REMARK    8  A    between atoms: C_17  and  C_20
REMARK    9  A    between atoms: N_22  and  C_23
REMARK                            x       y       z     vdW  Elec       q    Type
REMARK                         _______ _______ _______ _____ _____    ______ ____
ROOT
ATOM      1  N   UNL     1      -1.621  -0.434  -2.517  0.00  0.00    -0.231 N 
ATOM      2  C   UNL     1      -2.394  -0.149  -3.607  0.00  0.00    +0.075 A 
ATOM      3  C   UNL     1      -1.593   0.505  -4.500  0.00  0.00    +0.063 A 
ATOM      4  C   UNL     1      -0.326   0.585  -3.881  0.00  0.00    +0.148 A 
ATOM      5  N   UNL     1      -0.428   0.007  -2.700  0.00  0.00    -0.161 NA
ENDROOT
BRANCH   2   6
ATOM      6  C   UNL     1      -3.824  -0.484  -3.785  0.00  0.00    +0.002 A 
ATOM      7  C   UNL     1      -4.635  -0.706  -2.671  0.00  0.00    +0.014 A 
ATOM      8  C   UNL     1      -5.969  -1.018  -2.836  0.00  0.00    +0.048 A 
ATOM      9  C   UNL     1      -6.507  -1.112  -4.109  0.00  0.00    +0.142 A 
ATOM     10  C   UNL     1      -5.702  -0.891  -5.227  0.00  0.00    +0.076 A 
ATOM     11  C   UNL     1      -4.366  -0.573  -5.068  0.00  0.00    +0.037 A 
ATOM     12  N   UNL     1      -6.265  -0.992  -6.508  0.00  0.00    -0.280 N 
ATOM     13  C   UNL     1      -7.610  -0.983  -6.634  0.00  0.00    +0.255 C 
ATOM     14  O   UNL     1      -8.120  -1.098  -7.729  0.00  0.00    -0.272 OA
ATOM     15  C   UNL     1      -8.475  -0.828  -5.409  0.00  0.00    +0.325 C 
ATOM     16  O   UNL     1      -7.821  -1.417  -4.282  0.00  0.00    -0.481 OA
ATOM     17  H   UNL     1      -5.698  -1.067  -7.291  0.00  0.00    +0.155 HD
ENDBRANCH   2   6
BRANCH   1  23
ATOM     18  C   UNL     1      -1.959  -0.494  -0.126  0.00  0.00    -0.022 A 
ATOM     19  C   UNL     1      -2.402  -1.155   1.004  0.00  0.00    +0.006 A 
ATOM     20  C   UNL     1      -2.944  -2.422   0.898  0.00  0.00    +0.000 A 
ATOM     21  C   UNL     1      -3.044  -3.034  -0.339  0.00  0.00    +0.002 A 
ATOM     22  C   UNL     1      -2.602  -2.379  -1.472  0.00  0.00    +0.028 A 
ATOM     23  C   UNL     1      -2.063  -1.103  -1.369  0.00  0.00    +0.069 A 
BRANCH  18  25
ATOM     24  C   UNL     1      -2.430   1.928  -0.373  0.00  0.00    +0.009 C 
ATOM     25  C   UNL     1      -1.369   0.887  -0.009  0.00  0.00    +0.034 C 
ENDBRANCH  18  25
ENDBRANCH   1  23
BRANCH   4  26
ATOM     26  C   UNL     1       0.888   1.206  -4.449  0.00  0.00    +0.265 C 
ATOM     27  O   UNL     1       0.851   1.714  -5.553  0.00  0.00    -0.268 OA
ATOM     28  N   UNL     1       2.036   1.211  -3.743  0.00  0.00    -0.299 N 
ATOM     29  H   UNL     1       2.065   0.806  -2.862  0.00  0.00    +0.150 HD
BRANCH  28  30
ATOM     30  C   UNL     1       3.240   1.827  -4.306  0.00  0.00    +0.156 C 
ATOM     31  C   UNL     1       3.962   0.814  -5.196  0.00  0.00    +0.038 C 
BRANCH  30  32
ATOM     32  C   UNL     1       4.154   2.256  -3.188  0.00  0.00    +0.233 C 
ATOM     33  O   UNL     1       3.833   2.066  -2.034  0.00  0.00    -0.274 OA
ATOM     34  N   UNL     1       5.330   2.851  -3.470  0.00  0.00    -0.311 N 
ATOM     35  H   UNL     1       5.588   3.003  -4.393  0.00  0.00    +0.149 HD
BRANCH  34  36
ATOM     36  C   UNL     1       6.220   3.269  -2.384  0.00  0.00    +0.073 C 
ATOM     37  C   UNL     1       5.804   4.655  -1.888  0.00  0.00    +0.022 C 
ATOM     38  C   UNL     1       6.733   5.091  -0.753  0.00  0.00    +0.002 C 
ATOM     39  C   UNL     1       8.174   5.143  -1.265  0.00  0.00    +0.000 C 
ATOM     40  C   UNL     1       8.589   3.756  -1.760  0.00  0.00    +0.002 C 
ATOM     41  C   UNL     1       7.661   3.320  -2.895  0.00  0.00    +0.022 C 
ENDBRANCH  34  36
ENDBRANCH  30  32
ENDBRANCH  28  30
ENDBRANCH   4  26
TORSDOF 7
