REMARK  Name = ZINC08441969
REMARK  9 active torsions:
REMARK  status: ('A' for Active; 'I' for Inactive)
REMARK    1  A    between atoms: C_4  and  C_7
REMARK    2  A    between atoms: C_7  and  O_8
REMARK    3  A    between atoms: O_8  and  C_9
REMARK    4  A    between atoms: C_18  and  C_30
REMARK    5  A    between atoms: C_20  and  C_26
REMARK    6  A    between atoms: C_20  and  C_28
REMARK    7  A    between atoms: C_21  and  N_25
REMARK    8  A    between atoms: C_22  and  C_23
REMARK    9  A    between atoms: C_35  and  C_36
REMARK                            x       y       z     vdW  Elec       q    Type
REMARK                         _______ _______ _______ _____ _____    ______ ____
ROOT
ATOM      1  C   UNL     1      -0.055   2.037   2.169  0.00  0.00    +0.403 C 
ATOM      2  O   UNL     1       1.137   2.250   2.063  0.00  0.00    -0.226 OA
ATOM      3  N   UNL     1      -0.722   1.428   1.169  0.00  0.00    -0.263 N 
ATOM      4  C   UNL     1      -2.155   1.197   1.279  0.00  0.00    +0.138 C 
ATOM      5  C   UNL     1      -2.808   1.837   0.081  0.00  0.00    -0.003 C 
ATOM      6  C   UNL     1      -2.151   2.006  -1.050  0.00  0.00    -0.026 C 
ATOM      7  C   UNL     1      -0.740   1.556  -1.285  0.00  0.00    +0.048 C 
ATOM      8  C   UNL     1      -0.041   1.010  -0.061  0.00  0.00    +0.120 C 
ATOM      9  C   UNL     1       0.023   2.730  -1.901  0.00  0.00    +0.068 C 
ATOM     10  C   UNL     1      -0.587   3.056  -3.265  0.00  0.00    +0.188 C 
ATOM     11  C   UNL     1      -2.076   3.212  -3.181  0.00  0.00    +0.054 C 
ATOM     12  C   UNL     1      -2.827   2.711  -2.168  0.00  0.00    +0.074 C 
ENDROOT
BRANCH   9  13
ATOM     13  C   UNL     1       1.473   2.355  -2.074  0.00  0.00    -0.029 A 
ATOM     14  C   UNL     1       1.811   1.192  -2.742  0.00  0.00    +0.004 A 
ATOM     15  C   UNL     1       3.140   0.848  -2.900  0.00  0.00    +0.000 A 
ATOM     16  C   UNL     1       4.131   1.667  -2.391  0.00  0.00    +0.001 A 
ATOM     17  C   UNL     1       3.793   2.829  -1.724  0.00  0.00    +0.012 A 
ATOM     18  C   UNL     1       2.464   3.175  -1.569  0.00  0.00    +0.058 A 
BRANCH  18  19
ATOM     19  C   UNL     1       2.095   4.445  -0.847  0.00  0.00    +0.418 C 
ATOM     20  F   UNL     1       3.260   5.101  -0.433  0.00  0.00    -0.166 F 
ATOM     21  F   UNL     1       1.372   5.278  -1.707  0.00  0.00    -0.166 F 
ATOM     22  F   UNL     1       1.312   4.136   0.270  0.00  0.00    -0.166 F 
ENDBRANCH  18  19
ENDBRANCH   9  13
BRANCH  11  23
ATOM     23  N   UNL     1      -2.711   3.895  -4.179  0.00  0.00    -0.358 N 
ATOM     24  H   UNL     1      -3.803   4.027  -4.147  0.00  0.00    +0.142 HD
ATOM     25  H   UNL     1      -2.131   4.313  -5.015  0.00  0.00    +0.142 HD
ENDBRANCH  11  23
BRANCH  12  26
ATOM     26  C   UNL     1      -4.248   2.881  -2.170  0.00  0.00    +0.101 C 
ATOM     27  N   UNL     1      -5.377   3.016  -2.172  0.00  0.00    -0.191 NA
ENDBRANCH  12  26
BRANCH  10  28
ATOM     28  C   UNL     1      -0.001   4.309  -3.766  0.00  0.00    +0.091 C 
ATOM     29  N   UNL     1       0.452   5.277  -4.153  0.00  0.00    -0.194 NA
ENDBRANCH  10  28
BRANCH  10  30
ATOM     30  C   UNL     1      -0.270   1.969  -4.205  0.00  0.00    +0.091 C 
ATOM     31  N   UNL     1      -0.025   1.130  -4.931  0.00  0.00    -0.194 NA
ENDBRANCH  10  30
BRANCH   1  32
ATOM     32  O   UNL     1      -0.708   2.409   3.286  0.00  0.00    -0.445 OA
BRANCH  32  33
ATOM     33  C   UNL     1       0.074   3.059   4.322  0.00  0.00    +0.269 C 
BRANCH  33  37
ATOM     34  C   UNL     1      -2.459   4.027   7.622  0.00  0.00    +0.000 A 
ATOM     35  C   UNL     1      -1.815   2.805   7.580  0.00  0.00    +0.000 A 
ATOM     36  C   UNL     1      -0.995   2.492   6.512  0.00  0.00    +0.007 A 
ATOM     37  C   UNL     1      -0.820   3.401   5.486  0.00  0.00    -0.010 A 
ATOM     38  C   UNL     1      -1.460   4.625   5.530  0.00  0.00    +0.007 A 
ATOM     39  C   UNL     1      -2.282   4.937   6.597  0.00  0.00    +0.000 A 
ENDBRANCH  33  37
ENDBRANCH  32  33
ENDBRANCH   1  32
TORSDOF 9
