REMARK  Name = ZINC13121618
REMARK  8 active torsions:
REMARK  status: ('A' for Active; 'I' for Inactive)
REMARK    1  A    between atoms: C_1  and  C_2
REMARK    2  A    between atoms: C_2  and  C_3
REMARK    3  A    between atoms: C_2  and  C_4
REMARK    4  A    between atoms: C_7  and  C_10
REMARK    5  A    between atoms: N_11  and  N_12
REMARK    6  A    between atoms: C_13  and  C_15
REMARK    7  A    between atoms: C_18  and  C_21
REMARK    8  A    between atoms: C_21  and  N_22
REMARK                            x       y       z     vdW  Elec       q    Type
REMARK                         _______ _______ _______ _____ _____    ______ ____
ROOT
ATOM      1  C   UNL     1      -4.326   6.464   7.543  0.00  0.00    +0.038 A 
ATOM      2  C   UNL     1      -4.843   5.548   8.461  0.00  0.00    +0.013 A 
ATOM      3  C   UNL     1      -5.484   5.999   9.595  0.00  0.00    +0.006 A 
ATOM      4  C   UNL     1      -5.625   7.357   9.820  0.00  0.00    -0.028 A 
ATOM      5  C   UNL     1      -5.120   8.271   8.912  0.00  0.00    +0.006 A 
ATOM      6  C   UNL     1      -4.472   7.833   7.776  0.00  0.00    +0.013 A 
ENDROOT
BRANCH   1   8
ATOM      7  N   UNL     1      -3.495   4.665   6.106  0.00  0.00    -0.203 N 
ATOM      8  C   UNL     1      -3.634   5.988   6.327  0.00  0.00    +0.263 C 
ATOM      9  O   UNL     1      -3.190   6.788   5.527  0.00  0.00    -0.268 OA
ATOM     10  H   UNL     1      -3.849   4.027   6.744  0.00  0.00    +0.178 HD
BRANCH   7  12
ATOM     11  C   UNL     1      -2.705   2.941   4.740  0.00  0.00    +0.138 C 
ATOM     12  N   UNL     1      -2.839   4.214   4.953  0.00  0.00    -0.187 NA
BRANCH  11  16
ATOM     13  C   UNL     1      -0.718   1.572   1.248  0.00  0.00    -0.045 A 
ATOM     14  C   UNL     1      -0.854   2.930   1.475  0.00  0.00    +0.004 A 
ATOM     15  C   UNL     1      -1.503   3.382   2.605  0.00  0.00    +0.010 A 
ATOM     16  C   UNL     1      -2.014   2.465   3.527  0.00  0.00    -0.005 A 
ATOM     17  C   UNL     1      -1.869   1.095   3.293  0.00  0.00    +0.010 A 
ATOM     18  C   UNL     1      -1.222   0.658   2.156  0.00  0.00    +0.004 A 
BRANCH  13  20
ATOM     19  C   UNL     1       1.423   1.615  -0.003  0.00  0.00    +0.012 C 
ATOM     20  C   UNL     1      -0.013   1.086   0.008  0.00  0.00    +0.013 C 
ATOM     21  C   UNL     1      -0.753   1.593  -1.232  0.00  0.00    +0.012 C 
ENDBRANCH  13  20
ENDBRANCH  11  16
ENDBRANCH   7  12
ENDBRANCH   1   8
BRANCH   4  22
ATOM     22  C   UNL     1      -6.331   7.843  11.059  0.00  0.00    +0.166 C 
BRANCH  22  23
ATOM     23  N   UNL     1      -7.762   7.989  10.780  0.00  0.00    -0.198 N 
ATOM     24  C   UNL     1      -8.747   6.989  10.844  0.00  0.00    +0.061 A 
ATOM     25  C   UNL     1      -8.581   5.647  11.184  0.00  0.00    +0.025 A 
ATOM     26  C   UNL     1      -9.665   4.778  11.200  0.00  0.00    +0.002 A 
ATOM     27  C   UNL     1     -10.931   5.182  10.889  0.00  0.00    +0.009 A 
ATOM     28  C   UNL     1     -11.147   6.526  10.540  0.00  0.00    -0.014 A 
ATOM     29  C   UNL     1     -10.040   7.399  10.527  0.00  0.00    +0.031 A 
ATOM     30  C   UNL     1     -10.215   8.745  10.183  0.00  0.00    +0.118 A 
ATOM     31  C   UNL     1     -11.434   9.216   9.864  0.00  0.00    +0.029 A 
ATOM     32  C   UNL     1     -12.540   8.357   9.875  0.00  0.00    +0.003 A 
ATOM     33  C   UNL     1     -12.410   7.039  10.204  0.00  0.00    +0.009 A 
ATOM     34  S   UNL     1      -8.571   9.385  10.325  0.00  0.00    +0.076 S 
ATOM     35  O   UNL     1      -8.545  10.281  11.428  0.00  0.00    -0.150 OA
ATOM     36  O   UNL     1      -8.131   9.735   9.020  0.00  0.00    -0.150 OA
ENDBRANCH  22  23
ENDBRANCH   4  22
TORSDOF 6
