REMARK  Name = ZINC16156335
REMARK  10 active torsions:
REMARK  status: ('A' for Active; 'I' for Inactive)
REMARK    1  A    between atoms: C_1  and  C_2
REMARK    2  A    between atoms: C_5  and  N_8
REMARK    3  A    between atoms: N_8  and  C_9
REMARK    4  A    between atoms: N_8  and  S_24
REMARK    5  A    between atoms: C_9  and  C_10
REMARK    6  A    between atoms: C_10  and  C_12
REMARK    7  A    between atoms: C_10  and  O_23
REMARK    8  A    between atoms: C_12  and  N_65
REMARK    9  A    between atoms: C_13  and  N_65
REMARK   10  A    between atoms: S_24  and  C_27
REMARK                            x       y       z     vdW  Elec       q    Type
REMARK                         _______ _______ _______ _____ _____    ______ ____
ROOT
ATOM      1  C   UNL     1      -2.738   7.750  -1.889  0.00  0.00    +0.161 C 
ENDROOT
BRANCH   1   2
ATOM      2  N   UNL     1      -3.052   9.145  -2.208  0.00  0.00    -0.201 N 
BRANCH   2   7
ATOM      3  C   UNL     1      -7.397  11.732   0.359  0.00  0.00    +0.044 C 
ATOM      4  C   UNL     1      -6.242  11.045  -0.323  0.00  0.00    -0.050 A 
ATOM      5  C   UNL     1      -4.959  11.536  -0.169  0.00  0.00    +0.005 A 
ATOM      6  C   UNL     1      -3.898  10.908  -0.793  0.00  0.00    +0.025 A 
ATOM      7  C   UNL     1      -4.122   9.782  -1.575  0.00  0.00    +0.051 A 
ATOM      8  C   UNL     1      -5.414   9.295  -1.732  0.00  0.00    +0.025 A 
ATOM      9  C   UNL     1      -6.469   9.924  -1.101  0.00  0.00    +0.005 A 
ENDBRANCH   2   7
BRANCH   2  10
ATOM     10  S   UNL     1      -2.139   9.967  -3.318  0.00  0.00    +0.075 S 
ATOM     11  O   UNL     1      -2.168  11.335  -2.936  0.00  0.00    -0.150 OA
ATOM     12  O   UNL     1      -0.925   9.242  -3.462  0.00  0.00    -0.150 OA
BRANCH  10  13
ATOM     13  C   UNL     1      -2.976   9.858  -4.864  0.00  0.00    +0.109 A 
ATOM     14  C   UNL     1      -2.703   8.812  -5.726  0.00  0.00    +0.029 A 
ATOM     15  C   UNL     1      -3.364   8.724  -6.937  0.00  0.00    +0.002 A 
ATOM     16  C   UNL     1      -4.290   9.688  -7.291  0.00  0.00    +0.000 A 
ATOM     17  C   UNL     1      -4.559  10.736  -6.432  0.00  0.00    +0.002 A 
ATOM     18  C   UNL     1      -3.902  10.822  -5.218  0.00  0.00    +0.029 A 
ENDBRANCH  10  13
ENDBRANCH   2  10
ENDBRANCH   1   2
BRANCH   1  19
ATOM     19  C   UNL     1      -1.844   7.700  -0.648  0.00  0.00    +0.117 C 
BRANCH  19  20
ATOM     20  O   UNL     1      -0.633   8.414  -0.904  0.00  0.00    -0.392 OA
ATOM     21  H   UNL     1      -0.117   8.062  -1.642  0.00  0.00    +0.210 HD
ENDBRANCH  19  20
BRANCH  19  22
ATOM     22  C   UNL     1      -1.516   6.243  -0.315  0.00  0.00    -0.049 C 
BRANCH  22  23
ATOM     23  N   UNL     1      -0.756   6.195   0.948  0.00  0.00    +0.384 N 
ATOM     24  H   UNL     1      -1.322   6.606   1.700  0.00  0.00    -0.085 HD
ATOM     25  H   UNL     1       0.112   6.733   0.841  0.00  0.00    -0.085 HD
BRANCH  23  26
ATOM     26  C   UNL     1      -0.425   4.800   1.295  0.00  0.00    -0.067 C 
ATOM     27  C   UNL     1       0.424   4.181   0.182  0.00  0.00    -0.009 C 
ATOM     28  C   UNL     1       0.771   2.737   0.549  0.00  0.00    -0.012 C 
ATOM     29  C   UNL     1       1.558   2.719   1.861  0.00  0.00    +0.007 C 
ATOM     30  C   UNL     1       0.709   3.338   2.974  0.00  0.00    -0.012 C 
ATOM     31  C   UNL     1       0.361   4.782   2.607  0.00  0.00    -0.009 C 
ATOM     32  C   UNL     1      -0.580   2.530   3.141  0.00  0.00    +0.007 C 
ATOM     33  C   UNL     1      -1.367   2.548   1.829  0.00  0.00    -0.012 C 
ATOM     34  C   UNL     1      -0.518   1.929   0.716  0.00  0.00    +0.007 C 
ATOM     35  C   UNL     1      -1.714   3.992   1.462  0.00  0.00    -0.009 C 
ENDBRANCH  23  26
ENDBRANCH  22  23
ENDBRANCH  19  22
ENDBRANCH   1  19
TORSDOF 9
