REMARK  Name = ZINC39521708
REMARK  4 active torsions:
REMARK  status: ('A' for Active; 'I' for Inactive)
REMARK    1  A    between atoms: C_1  and  O_2
REMARK    2  A    between atoms: O_2  and  N_3
REMARK    3  A    between atoms: C_4  and  C_17
REMARK    4  A    between atoms: C_22  and  O_23
REMARK                            x       y       z     vdW  Elec       q    Type
REMARK                         _______ _______ _______ _____ _____    ______ ____
ROOT
ATOM      1  N   UNL     1      -0.991  -0.746   0.148  0.00  0.00    -0.175 NA
ATOM      2  C   UNL     1      -1.469  -1.285   1.427  0.00  0.00    +0.118 C 
ATOM      3  C   UNL     1      -2.982  -1.507   1.356  0.00  0.00    +0.026 C 
ATOM      4  C   UNL     1      -3.295  -2.484   0.220  0.00  0.00    +0.004 C 
ATOM      5  C   UNL     1      -2.745  -1.922  -1.093  0.00  0.00    +0.025 C 
ATOM      6  C   UNL     1      -1.239  -1.687  -0.952  0.00  0.00    +0.049 C 
ATOM      7  C   UNL     1      -0.691  -1.105  -2.256  0.00  0.00    +0.025 C 
ATOM      8  C   UNL     1       0.815  -0.873  -2.118  0.00  0.00    +0.003 C 
ATOM      9  C   UNL     1       1.511  -2.203  -1.821  0.00  0.00    +0.019 C 
ATOM     10  C   UNL     1       0.963  -2.784  -0.516  0.00  0.00    +0.082 C 
ATOM     11  C   UNL     1      -0.543  -3.016  -0.654  0.00  0.00    +0.044 C 
ATOM     12 CL   UNL     1       1.783  -4.351  -0.165  0.00  0.00    -0.122 Cl
ENDROOT
BRANCH   2  13
ATOM     13  C   UNL     1      -1.157  -0.308   2.532  0.00  0.00    +0.013 A 
ATOM     14  C   UNL     1      -1.406   1.039   2.354  0.00  0.00    +0.009 A 
ATOM     15  C   UNL     1      -1.120   1.936   3.367  0.00  0.00    +0.001 A 
ATOM     16  C   UNL     1      -0.583   1.487   4.560  0.00  0.00    +0.004 A 
ATOM     17  C   UNL     1      -0.332   0.141   4.742  0.00  0.00    +0.046 A 
ATOM     18  C   UNL     1      -0.624  -0.762   3.729  0.00  0.00    +0.122 A 
BRANCH  18  19
ATOM     19  O   UNL     1      -0.383  -2.087   3.909  0.00  0.00    -0.506 OA
ATOM     20  H   UNL     1       0.502  -2.366   3.637  0.00  0.00    +0.292 HD
ENDBRANCH  18  19
ENDBRANCH   2  13
BRANCH   1  22
ATOM     21  C   UNL     1       0.672   1.014   0.295  0.00  0.00    +0.221 C 
ATOM     22  O   UNL     1       0.427  -0.392   0.225  0.00  0.00    -0.299 OA
ENDBRANCH   1  22
TORSDOF 3
