REMARK  Name = ZINC63598434
REMARK  8 active torsions:
REMARK  status: ('A' for Active; 'I' for Inactive)
REMARK    1  A    between atoms: C_1  and  C_2
REMARK    2  A    between atoms: C_2  and  C_3
REMARK    3  A    between atoms: C_2  and  C_4
REMARK    4  A    between atoms: C_2  and  C_5
REMARK    5  A    between atoms: C_13  and  C_17
REMARK    6  A    between atoms: C_17  and  C_18
REMARK    7  A    between atoms: C_18  and  C_19
REMARK    8  A    between atoms: N_21  and  C_22
REMARK                            x       y       z     vdW  Elec       q    Type
REMARK                         _______ _______ _______ _____ _____    ______ ____
ROOT
ATOM      1  C   UNL     1       1.002  -0.156  -1.502  0.00  0.00    -0.004 C 
ATOM      2  C   UNL     1       0.048   0.300  -2.599  0.00  0.00    +0.008 C 
ATOM      3  C   UNL     1       0.338  -0.467  -3.895  0.00  0.00    +0.033 C 
ATOM      4  C   UNL     1       1.851  -0.669  -3.945  0.00  0.00    -0.042 C 
ATOM      5  C   UNL     1       2.456  -1.683  -4.566  0.00  0.00    +0.071 C 
ATOM      6  C   UNL     1       3.936  -1.787  -4.472  0.00  0.00    +0.111 C 
ATOM      7  N   UNL     1       4.609  -2.760  -5.040  0.00  0.00    -0.227 NA
ATOM      8  C   UNL     1       3.919  -3.675  -5.720  0.00  0.00    +0.124 C 
ATOM      9  N   UNL     1       2.620  -3.688  -5.871  0.00  0.00    -0.161 NA
ATOM     10  C   UNL     1       1.783  -2.770  -5.354  0.00  0.00    +0.271 C 
ATOM     11  O   UNL     1       0.575  -2.816  -5.513  0.00  0.00    -0.268 OA
ATOM     12  S   UNL     1       4.423  -0.395  -3.503  0.00  0.00    -0.097 S 
ATOM     13  C   UNL     1       2.758   0.334  -3.236  0.00  0.00    +0.080 C 
ATOM     14  C   UNL     1       2.430   0.313  -1.747  0.00  0.00    +0.023 C 
ENDROOT
BRANCH   1  16
ATOM     15  C   UNL     1       0.423   1.926  -0.249  0.00  0.00    +0.011 C 
ATOM     16  C   UNL     1       0.520   0.402  -0.162  0.00  0.00    -0.035 C 
ATOM     17  C   UNL     1       1.512   0.016   0.937  0.00  0.00    +0.011 C 
ATOM     18  C   UNL     1      -0.857  -0.179   0.167  0.00  0.00    +0.011 C 
ENDBRANCH   1  16
BRANCH   8  19
ATOM     19  C   UNL     1       4.701  -4.787  -6.371  0.00  0.00    +0.083 C 
BRANCH  19  20
ATOM     20  C   UNL     1       3.740  -5.729  -7.098  0.00  0.00    +0.103 C 
BRANCH  20  21
ATOM     21  C   UNL     1       4.522  -6.841  -7.748  0.00  0.00    +0.218 C 
ATOM     22  O   UNL     1       5.729  -6.877  -7.641  0.00  0.00    -0.275 OA
ATOM     23  N   UNL     1       3.879  -7.796  -8.450  0.00  0.00    -0.285 N 
ATOM     24  H   UNL     1       2.923  -7.727  -8.599  0.00  0.00    +0.155 HD
BRANCH  23  25
ATOM     25  C   UNL     1       4.591  -8.886  -8.962  0.00  0.00    +0.039 A 
ATOM     26  C   UNL     1       4.210  -9.460 -10.168  0.00  0.00    +0.061 A 
ATOM     27  C   UNL     1       4.915 -10.538 -10.673  0.00  0.00    +0.128 A 
ATOM     28  C   UNL     1       6.000 -11.044  -9.977  0.00  0.00    +0.076 A 
ATOM     29  C   UNL     1       6.382 -10.473  -8.775  0.00  0.00    +0.128 A 
ATOM     30  C   UNL     1       5.683  -9.391  -8.269  0.00  0.00    +0.061 A 
ATOM     31  F   UNL     1       7.440 -10.969  -8.097  0.00  0.00    -0.205 F 
ATOM     32  F   UNL     1       4.545 -11.097 -11.846  0.00  0.00    -0.205 F 
ENDBRANCH  23  25
ENDBRANCH  20  21
ENDBRANCH  19  20
ENDBRANCH   8  19
TORSDOF 5
