REMARK  Name = ZINC25053696
REMARK  6 active torsions:
REMARK  status: ('A' for Active; 'I' for Inactive)
REMARK    1  A    between atoms: C_1  and  N_2
REMARK    2  A    between atoms: N_2  and  C_3
REMARK    3  A    between atoms: C_6  and  C_11
REMARK    4  A    between atoms: C_11  and  S_12
REMARK    5  A    between atoms: S_12  and  C_13
REMARK    6  A    between atoms: C_16  and  C_19
REMARK                            x       y       z     vdW  Elec       q    Type
REMARK                         _______ _______ _______ _____ _____    ______ ____
ROOT
ATOM      1  S   UNL     1       4.077   2.450  -1.730  0.00  0.00    -0.080 S 
ENDROOT
BRANCH   1   2
ATOM      2  C   UNL     1       5.572   3.341  -1.450  0.00  0.00    +0.167 A 
ATOM      3  N   UNL     1       6.391   3.841  -2.416  0.00  0.00    -0.333 N 
ATOM      4  H   UNL     1       6.139   3.701  -3.477  0.00  0.00    +0.168 HD
ATOM      5  C   UNL     1       7.443   4.464  -1.767  0.00  0.00    +0.067 A 
ATOM      6  C   UNL     1       7.221   4.316  -0.435  0.00  0.00    +0.139 A 
ATOM      7  N   UNL     1       6.078   3.637  -0.274  0.00  0.00    -0.230 NA
BRANCH   5   8
ATOM      8  C   UNL     1       8.587   5.154  -2.400  0.00  0.00    +0.000 A 
ATOM      9  C   UNL     1       8.683   5.219  -3.791  0.00  0.00    +0.013 A 
ATOM     10  C   UNL     1       9.749   5.869  -4.377  0.00  0.00    +0.039 A 
ATOM     11  C   UNL     1      10.729   6.448  -3.587  0.00  0.00    +0.123 A 
ATOM     12  C   UNL     1      10.642   6.381  -2.205  0.00  0.00    +0.039 A 
ATOM     13  C   UNL     1       9.577   5.738  -1.609  0.00  0.00    +0.013 A 
ATOM     14  F   UNL     1      11.774   7.079  -4.166  0.00  0.00    -0.205 F 
ENDBRANCH   5   8
ENDBRANCH   1   2
BRANCH   1  15
ATOM     15  C   UNL     1       3.575   2.132  -0.021  0.00  0.00    +0.153 C 
BRANCH  15  21
ATOM     16  C   UNL     1      -0.068  -2.783  -0.011  0.00  0.00    +0.132 C 
ATOM     17  N   UNL     1       1.187  -2.029  -0.020  0.00  0.00    -0.306 N 
ATOM     18  C   UNL     1       2.469  -2.739  -0.036  0.00  0.00    +0.132 C 
ATOM     19  C   UNL     1       1.163  -0.649  -0.013  0.00  0.00    +0.222 A 
ATOM     20  N   UNL     1       2.304   0.037  -0.020  0.00  0.00    -0.198 NA
ATOM     21  C   UNL     1       2.282   1.359  -0.012  0.00  0.00    +0.146 A 
ATOM     22  N   UNL     1       1.129   2.004   0.002  0.00  0.00    -0.199 NA
ATOM     23  C   UNL     1      -0.016   1.325   0.009  0.00  0.00    +0.217 A 
ATOM     24  N   UNL     1       0.002  -0.004   0.002  0.00  0.00    -0.181 NA
ATOM     25  N   UNL     1      -1.220   1.999   0.019  0.00  0.00    -0.327 N 
ATOM     26  H   UNL     1      -2.165   1.437   0.025  0.00  0.00    +0.145 HD
ATOM     27  H   UNL     1      -1.234   3.099   0.020  0.00  0.00    +0.145 HD
ENDBRANCH  15  21
ENDBRANCH   1  15
TORSDOF 4
