REMARK  Name = ZINC31045154
REMARK  9 active torsions:
REMARK  status: ('A' for Active; 'I' for Inactive)
REMARK    1  A    between atoms: C_4  and  C_8
REMARK    2  A    between atoms: C_8  and  S_9
REMARK    3  A    between atoms: S_9  and  C_10
REMARK    4  A    between atoms: C_10  and  C_11
REMARK    5  A    between atoms: C_11  and  N_12
REMARK    6  A    between atoms: C_13  and  C_15
REMARK    7  A    between atoms: N_20  and  C_22
REMARK    8  A    between atoms: C_22  and  C_23
REMARK    9  A    between atoms: C_25  and  C_28
REMARK                            x       y       z     vdW  Elec       q    Type
REMARK                         _______ _______ _______ _____ _____    ______ ____
ROOT
ATOM      1  C   UNL     1      -2.482   0.853   0.018  0.00  0.00    +0.058 C 
ATOM      2  C   UNL     1      -2.559  -0.021  -1.237  0.00  0.00    +0.009 C 
ATOM      3  C   UNL     1      -3.903  -0.754  -1.258  0.00  0.00    -0.018 C 
ATOM      4  C   UNL     1      -5.039   0.271  -1.212  0.00  0.00    -0.078 C 
ATOM      5  N   UNL     1      -4.921   1.080   0.008  0.00  0.00    +0.386 N 
ATOM      6  C   UNL     1      -3.659   1.831   0.027  0.00  0.00    -0.065 C 
ATOM      7  H   UNL     1      -4.916   0.392   0.867  0.00  0.00    -0.081 HD
ENDROOT
BRANCH   1   9
ATOM      8  N   UNL     1      -0.011   0.966   0.007  0.00  0.00    -0.314 N 
ATOM      9  C   UNL     1      -1.187   1.624   0.017  0.00  0.00    +0.214 C 
ATOM     10  O   UNL     1      -1.204   2.837   0.023  0.00  0.00    -0.276 OA
ATOM     11  H   UNL     1       0.004  -0.134   0.006  0.00  0.00    +0.149 HD
BRANCH   8  12
ATOM     12  C   UNL     1       1.248   1.716  -0.001  0.00  0.00    +0.115 C 
BRANCH  12  13
ATOM     13  C   UNL     1       2.424   0.737  -0.017  0.00  0.00    +0.088 C 
BRANCH  13  14
ATOM     14  S   UNL     1       3.982   1.665  -0.027  0.00  0.00    -0.154 S 
BRANCH  14  15
ATOM     15  C   UNL     1       5.260   0.378  -0.046  0.00  0.00    +0.108 C 
BRANCH  15  19
ATOM     16  C   UNL     1       9.124   2.205  -0.073  0.00  0.00    +0.004 A 
ATOM     17  C   UNL     1       8.511   1.904   1.129  0.00  0.00    +0.039 A 
ATOM     18  C   UNL     1       7.260   1.312   1.139  0.00  0.00    +0.129 A 
ATOM     19  C   UNL     1       6.622   1.022  -0.056  0.00  0.00    +0.016 A 
ATOM     20  C   UNL     1       7.239   1.319  -1.257  0.00  0.00    +0.048 A 
ATOM     21  C   UNL     1       8.487   1.916  -1.266  0.00  0.00    +0.020 A 
ATOM     22 CL   UNL     1       6.443   0.950  -2.756  0.00  0.00    -0.083 Cl
ATOM     23  F   UNL     1       6.661   1.018   2.313  0.00  0.00    -0.205 F 
ENDBRANCH  15  19
ENDBRANCH  14  15
ENDBRANCH  13  14
ENDBRANCH  12  13
ENDBRANCH   8  12
ENDBRANCH   1   9
BRANCH   5  24
ATOM     24  C   UNL     1      -6.072   1.981   0.155  0.00  0.00    +0.022 C 
BRANCH  24  25
ATOM     25  C   UNL     1      -7.321   1.167   0.377  0.00  0.00    +0.211 A 
ATOM     26  N   UNL     1      -7.805   0.784   1.532  0.00  0.00    -0.193 NA
ATOM     27  C   UNL     1      -8.926   0.086   1.243  0.00  0.00    +0.202 A 
ATOM     28  N   UNL     1      -9.056   0.087  -0.058  0.00  0.00    -0.056 NA
ATOM     29  O   UNL     1      -8.147   0.707  -0.568  0.00  0.00    -0.340 OA
BRANCH  27  30
ATOM     30  C   UNL     1      -9.838  -0.560   2.219  0.00  0.00    +0.023 A 
ATOM     31  C   UNL     1      -9.569  -0.484   3.584  0.00  0.00    +0.013 A 
ATOM     32  C   UNL     1     -10.423  -1.081   4.488  0.00  0.00    +0.021 A 
ATOM     33  C   UNL     1     -11.540  -1.766   4.041  0.00  0.00    +0.041 A 
ATOM     34  C   UNL     1     -11.809  -1.850   2.685  0.00  0.00    +0.021 A 
ATOM     35  C   UNL     1     -10.963  -1.251   1.774  0.00  0.00    +0.013 A 
ATOM     36 CL   UNL     1     -12.607  -2.522   5.183  0.00  0.00    -0.084 Cl
ENDBRANCH  27  30
ENDBRANCH  24  25
ENDBRANCH   5  24
TORSDOF 9
