REMARK  Name = ZINC26770111
REMARK  6 active torsions:
REMARK  status: ('A' for Active; 'I' for Inactive)
REMARK    1  A    between atoms: C_9  and  N_20
REMARK    2  A    between atoms: C_10  and  N_11
REMARK    3  A    between atoms: N_11  and  C_12
REMARK    4  A    between atoms: C_12  and  N_13
REMARK    5  A    between atoms: N_20  and  C_21
REMARK    6  A    between atoms: C_21  and  N_22
REMARK                            x       y       z     vdW  Elec       q    Type
REMARK                         _______ _______ _______ _____ _____    ______ ____
ROOT
ATOM      1  C   UNL     1       3.549  -1.488  -0.281  0.00  0.00    +0.036 A 
ATOM      2  C   UNL     1       3.167  -0.141  -0.198  0.00  0.00    +0.021 A 
ATOM      3  C   UNL     1       1.940   0.506   0.084  0.00  0.00    +0.142 A 
ATOM      4  N   UNL     1       2.126   1.793   0.036  0.00  0.00    -0.181 NA
ATOM      5  N   UNL     1       3.464   2.067  -0.274  0.00  0.00    -0.277 N 
ATOM      6  H   UNL     1       3.808   3.108  -0.357  0.00  0.00    +0.189 HD
ATOM      7  C   UNL     1       4.120   0.869  -0.422  0.00  0.00    +0.068 A 
ATOM      8  C   UNL     1       5.436   0.527  -0.724  0.00  0.00    +0.052 A 
ATOM      9  C   UNL     1       5.800  -0.802  -0.803  0.00  0.00    +0.051 A 
ATOM     10  C   UNL     1       4.854  -1.812  -0.581  0.00  0.00    +0.050 A 
ENDROOT
BRANCH  10  11
ATOM     11  N   UNL     1       5.237  -3.158  -0.665  0.00  0.00    -0.326 N 
ATOM     12  H   UNL     1       6.297  -3.421  -0.794  0.00  0.00    +0.148 HD
BRANCH  11  13
ATOM     13  C   UNL     1       4.225  -4.214  -0.581  0.00  0.00    +0.219 C 
BRANCH  13  14
ATOM     14  N   UNL     1       3.817  -4.608  -1.931  0.00  0.00    -0.243 N 
ATOM     15  C   UNL     1       2.669  -4.149  -2.400  0.00  0.00    +0.232 C 
ATOM     16  O   UNL     1       1.950  -3.418  -1.751  0.00  0.00    -0.274 OA
ATOM     17  C   UNL     1       2.313  -4.597  -3.810  0.00  0.00    +0.172 C 
ATOM     18  S   UNL     1       3.773  -5.647  -4.184  0.00  0.00    -0.093 S 
ATOM     19  C   UNL     1       4.628  -5.424  -2.631  0.00  0.00    +0.117 C 
ATOM     20  S   UNL     1       6.127  -6.092  -2.145  0.00  0.00    -0.027 S 
ENDBRANCH  13  14
ENDBRANCH  11  13
ENDBRANCH  10  11
BRANCH   9  21
ATOM     21  N   UNL     1       7.122  -1.144  -1.107  0.00  0.00    -0.326 N 
ATOM     22  H   UNL     1       7.395  -2.197  -1.268  0.00  0.00    +0.148 HD
BRANCH  21  23
ATOM     23  C   UNL     1       8.143  -0.098  -1.212  0.00  0.00    +0.219 C 
BRANCH  23  24
ATOM     24  N   UNL     1       8.835   0.039   0.073  0.00  0.00    -0.243 N 
ATOM     25  C   UNL     1       8.546   1.082   0.833  0.00  0.00    +0.232 C 
ATOM     26  O   UNL     1       7.735   1.920   0.502  0.00  0.00    -0.274 OA
ATOM     27  C   UNL     1       9.300   1.156   2.153  0.00  0.00    +0.172 C 
ATOM     28  S   UNL     1      10.327  -0.361   2.014  0.00  0.00    -0.093 S 
ATOM     29  C   UNL     1       9.736  -0.900   0.416  0.00  0.00    +0.117 C 
ATOM     30  S   UNL     1      10.206  -2.287  -0.470  0.00  0.00    -0.027 S 
ENDBRANCH  23  24
ENDBRANCH  21  23
ENDBRANCH   9  21
TORSDOF 6
