REMARK  Name = ZINC16611285
REMARK  5 active torsions:
REMARK  status: ('A' for Active; 'I' for Inactive)
REMARK    1  A    between atoms: C_1  and  C_2
REMARK    2  A    between atoms: C_2  and  C_3
REMARK    3  A    between atoms: C_3  and  C_5
REMARK    4  A    between atoms: C_3  and  N_6
REMARK    5  A    between atoms: C_8  and  C_15
REMARK                            x       y       z     vdW  Elec       q    Type
REMARK                         _______ _______ _______ _____ _____    ______ ____
ROOT
ATOM      1  C   UNL     1       0.141   3.746  -0.406  0.00  0.00    +0.018 C 
ATOM      2  C   UNL     1      -0.050   4.644   0.794  0.00  0.00    +0.011 A 
ATOM      3  C   UNL     1      -0.356   5.958   0.690  0.00  0.00    -0.022 A 
ATOM      4  C   UNL     1      -0.456   6.481   2.034  0.00  0.00    +0.003 A 
ATOM      5  C   UNL     1      -0.742   7.752   2.541  0.00  0.00    +0.010 A 
ATOM      6  C   UNL     1      -0.755   7.888   3.907  0.00  0.00    +0.001 A 
ATOM      7  C   UNL     1      -0.499   6.823   4.755  0.00  0.00    +0.002 A 
ATOM      8  C   UNL     1      -0.212   5.554   4.282  0.00  0.00    +0.026 A 
ATOM      9  C   UNL     1      -0.192   5.386   2.899  0.00  0.00    +0.047 A 
ATOM     10  N   UNL     1       0.050   4.295   2.113  0.00  0.00    -0.359 N 
ATOM     11  H   UNL     1       0.293   3.259   2.391  0.00  0.00    +0.166 HD
ATOM     12  C   UNL     1      -0.543   6.666  -0.628  0.00  0.00    +0.018 C 
ATOM     13  C   UNL     1      -0.722   5.601  -1.718  0.00  0.00    -0.076 C 
ATOM     14  N   UNL     1       0.337   4.588  -1.597  0.00  0.00    +0.388 N 
ATOM     15  H   UNL     1       1.306   5.103  -1.528  0.00  0.00    -0.084 HD
ATOM     16  H   UNL     1       0.320   3.957  -2.498  0.00  0.00    -0.084 HD
ENDROOT
BRANCH   1  19
ATOM     17  N   UNL     1       2.338   0.746   0.087  0.00  0.00    -0.258 N 
ATOM     18  C   UNL     1       1.221   1.521  -0.096  0.00  0.00    +0.262 A 
ATOM     19  C   UNL     1       1.353   2.874  -0.198  0.00  0.00    +0.073 A 
ATOM     20  C   UNL     1       2.634   3.445  -0.101  0.00  0.00    +0.260 A 
ATOM     21  O   UNL     1       2.776   4.653  -0.184  0.00  0.00    -0.267 OA
ATOM     22  N   UNL     1       3.705   2.647   0.079  0.00  0.00    -0.275 N 
ATOM     23  H   UNL     1       4.708   3.094   0.150  0.00  0.00    +0.173 HD
ATOM     24  C   UNL     1       3.555   1.313   0.171  0.00  0.00    +0.332 A 
ATOM     25  O   UNL     1       4.534   0.610   0.333  0.00  0.00    -0.246 OA
ATOM     26  O   UNL     1       0.002   0.948  -0.180  0.00  0.00    -0.267 OA
BRANCH  17  27
ATOM     27  C   UNL     1       2.205  -0.709   0.191  0.00  0.00    +0.092 C 
ATOM     28  C   UNL     1       3.014  -1.376  -0.923  0.00  0.00    +0.031 C 
BRANCH  27  30
ATOM     29  C   UNL     1       1.843  -0.605   2.661  0.00  0.00    +0.006 C 
ATOM     30  C   UNL     1       2.730  -1.173   1.551  0.00  0.00    +0.022 C 
ENDBRANCH  27  30
ENDBRANCH  17  27
ENDBRANCH   1  19
TORSDOF 3
