REMARK  Name = ZINC36065836
REMARK  9 active torsions:
REMARK  status: ('A' for Active; 'I' for Inactive)
REMARK    1  A    between atoms: C_3  and  C_6
REMARK    2  A    between atoms: C_6  and  N_7
REMARK    3  A    between atoms: C_8  and  C_10
REMARK    4  A    between atoms: C_13  and  C_15
REMARK    5  A    between atoms: C_15  and  N_16
REMARK    6  A    between atoms: N_16  and  C_17
REMARK    7  A    between atoms: N_16  and  C_27
REMARK    8  A    between atoms: C_17  and  C_18
REMARK    9  A    between atoms: C_27  and  C_28
REMARK                            x       y       z     vdW  Elec       q    Type
REMARK                         _______ _______ _______ _____ _____    ______ ____
ROOT
ATOM      1  N   UNL     1       5.316  -1.047   7.080  0.00  0.00    +0.391 N 
ATOM      2  H   UNL     1       4.560  -1.449   6.546  0.00  0.00    -0.080 HD
ENDROOT
BRANCH   1   3
ATOM      3  C   UNL     1       5.637   0.285   6.550  0.00  0.00    +0.020 C 
BRANCH   3   7
ATOM      4  C   UNL     1       5.692   0.138   2.930  0.00  0.00    +0.163 A 
ATOM      5  C   UNL     1       7.009  -0.069   3.204  0.00  0.00    +0.230 A 
ATOM      6  O   UNL     1       7.141  -0.040   4.540  0.00  0.00    -0.449 OA
ATOM      7  C   UNL     1       5.932   0.180   5.075  0.00  0.00    +0.179 A 
ATOM      8  N   UNL     1       5.055   0.294   4.123  0.00  0.00    -0.210 NA
BRANCH   4  10
ATOM      9  N   UNL     1       3.748   0.410   1.473  0.00  0.00    -0.303 N 
ATOM     10  C   UNL     1       5.072   0.190   1.594  0.00  0.00    +0.266 C 
ATOM     11  O   UNL     1       5.756   0.034   0.600  0.00  0.00    -0.268 OA
ATOM     12  H   UNL     1       3.203   0.535   2.265  0.00  0.00    +0.150 HD
BRANCH   9  13
ATOM     13  C   UNL     1       3.133   0.462   0.144  0.00  0.00    +0.179 C 
BRANCH  13  16
ATOM     14  C   UNL     1      -0.323   1.704   0.459  0.00  0.00    +0.041 A 
ATOM     15  C   UNL     1       1.065   1.928   0.316  0.00  0.00    +0.046 A 
ATOM     16  C   UNL     1       1.654   0.719   0.285  0.00  0.00    +0.122 A 
ATOM     17  O   UNL     1       0.701  -0.221   0.401  0.00  0.00    -0.466 OA
ATOM     18  C   UNL     1      -0.500   0.371   0.507  0.00  0.00    +0.195 A 
ENDBRANCH  13  16
ENDBRANCH   9  13
ENDBRANCH   4  10
ENDBRANCH   3   7
ENDBRANCH   1   3
BRANCH   1  19
ATOM     19  C   UNL     1       4.912  -0.929   8.488  0.00  0.00    -0.042 C 
BRANCH  19  20
ATOM     20  C   UNL     1       3.622  -0.157   8.577  0.00  0.00    -0.060 A 
ATOM     21  C   UNL     1       3.648   1.204   8.823  0.00  0.00    +0.005 A 
ATOM     22  C   UNL     1       2.466   1.917   8.905  0.00  0.00    +0.050 A 
ATOM     23  C   UNL     1       1.253   1.269   8.742  0.00  0.00    +0.166 A 
ATOM     24  C   UNL     1       1.226  -0.101   8.495  0.00  0.00    +0.166 A 
ATOM     25  C   UNL     1       2.414  -0.808   8.408  0.00  0.00    +0.051 A 
ATOM     26  O   UNL     1      -0.074  -0.498   8.374  0.00  0.00    -0.453 OA
ATOM     27  C   UNL     1      -0.855   0.564   8.954  0.00  0.00    +0.466 C 
ATOM     28  O   UNL     1      -0.031   1.731   8.776  0.00  0.00    -0.453 OA
ENDBRANCH  19  20
ENDBRANCH   1  19
BRANCH   1  29
ATOM     29  C   UNL     1       6.499  -1.912   6.981  0.00  0.00    -0.040 C 
BRANCH  29  30
ATOM     30  C   UNL     1       6.138  -3.309   7.415  0.00  0.00    -0.046 A 
ATOM     31  C   UNL     1       6.510  -3.761   8.668  0.00  0.00    +0.004 A 
ATOM     32  C   UNL     1       6.179  -5.042   9.067  0.00  0.00    +0.020 A 
ATOM     33  C   UNL     1       5.475  -5.873   8.213  0.00  0.00    +0.042 A 
ATOM     34  C   UNL     1       5.103  -5.421   6.960  0.00  0.00    +0.040 A 
ATOM     35  C   UNL     1       5.430  -4.137   6.563  0.00  0.00    +0.044 A 
ATOM     36 CL   UNL     1       4.958  -3.567   4.992  0.00  0.00    -0.083 Cl
ATOM     37 CL   UNL     1       5.060  -7.483   8.714  0.00  0.00    -0.083 Cl
ENDBRANCH  29  30
ENDBRANCH   1  29
TORSDOF 9
