REMARK  Name = ZINC45245378
REMARK  3 active torsions:
REMARK  status: ('A' for Active; 'I' for Inactive)
REMARK    1  A    between atoms: C_3  and  C_28
REMARK    2  A    between atoms: C_5  and  C_7
REMARK    3  A    between atoms: C_7  and  C_17
REMARK                            x       y       z     vdW  Elec       q    Type
REMARK                         _______ _______ _______ _____ _____    ______ ____
ROOT
ATOM      1  C   UNL     1       1.219  -2.192  -0.022  0.00  0.00    +0.168 C 
ATOM      2  C   UNL     1       0.513  -3.179  -0.913  0.00  0.00    +0.114 C 
ATOM      3  N   UNL     1      -0.674  -3.664  -0.837  0.00  0.00    -0.373 N 
ATOM      4  C   UNL     1      -1.113  -4.643  -1.839  0.00  0.00    +0.115 C 
ATOM      5  C   UNL     1      -0.430  -4.376  -3.181  0.00  0.00    +0.040 C 
ATOM      6  C   UNL     1       1.095  -4.413  -3.002  0.00  0.00    +0.116 C 
ATOM      7  N   UNL     1       1.426  -3.490  -1.904  0.00  0.00    -0.261 N 
ATOM      8  C   UNL     1       2.596  -2.821  -1.683  0.00  0.00    +0.182 C 
ATOM      9  N   UNL     1       2.554  -2.059  -0.631  0.00  0.00    -0.232 NA
ATOM     10  N   UNL     1       3.703  -2.941  -2.490  0.00  0.00    -0.331 N 
ATOM     11  H   UNL     1       3.678  -3.525  -3.264  0.00  0.00    +0.145 HD
ATOM     12  H   UNL     1       4.508  -2.440  -2.285  0.00  0.00    +0.145 HD
ATOM     13  H   UNL     1      -1.273  -3.387  -0.126  0.00  0.00    +0.161 HD
ENDROOT
BRANCH   1  14
ATOM     14  C   UNL     1       1.329  -2.726   1.383  0.00  0.00    -0.005 A 
ATOM     15  C   UNL     1       0.187  -3.084   2.076  0.00  0.00    +0.010 A 
ATOM     16  C   UNL     1       0.283  -3.576   3.364  0.00  0.00    +0.050 A 
ATOM     17  C   UNL     1       1.525  -3.711   3.965  0.00  0.00    +0.173 A 
ATOM     18  C   UNL     1       2.674  -3.350   3.267  0.00  0.00    +0.173 A 
ATOM     19  C   UNL     1       2.571  -2.863   1.973  0.00  0.00    +0.056 A 
ATOM     20  O   UNL     1       3.758  -3.574   4.066  0.00  0.00    -0.395 OA
ATOM     21  C   UNL     1       3.234  -3.689   5.402  0.00  0.00    +0.589 C 
ATOM     22  O   UNL     1       1.888  -4.160   5.201  0.00  0.00    -0.395 OA
ATOM     23  F   UNL     1       3.228  -2.442   6.037  0.00  0.00    -0.125 F 
ATOM     24  F   UNL     1       3.974  -4.616   6.142  0.00  0.00    -0.125 F 
ENDBRANCH   1  14
BRANCH   1  29
ATOM     25  C   UNL     1      -1.525   0.395   0.212  0.00  0.00    +0.001 A 
ATOM     26  C   UNL     1      -0.833   1.564  -0.034  0.00  0.00    +0.008 A 
ATOM     27  C   UNL     1       0.537   1.520  -0.280  0.00  0.00    -0.013 A 
ATOM     28  C   UNL     1       1.203   0.296  -0.275  0.00  0.00    +0.015 A 
ATOM     29  C   UNL     1       0.501  -0.866  -0.027  0.00  0.00    -0.008 A 
ATOM     30  C   UNL     1      -0.860  -0.817   0.216  0.00  0.00    +0.007 A 
BRANCH  27  31
ATOM     31  C   UNL     1       1.286   2.773  -0.546  0.00  0.00    +0.036 A 
ATOM     32  C   UNL     1       0.824   3.689  -1.494  0.00  0.00    +0.014 A 
ATOM     33  C   UNL     1       1.559   4.843  -1.706  0.00  0.00    +0.020 A 
ATOM     34  C   UNL     1       2.716   5.052  -0.980  0.00  0.00    +0.114 A 
ATOM     35  N   UNL     1       3.131   4.171  -0.091  0.00  0.00    -0.227 NA
ATOM     36  C   UNL     1       2.462   3.059   0.151  0.00  0.00    +0.221 A 
ATOM     37  F   UNL     1       2.921   2.188   1.076  0.00  0.00    -0.183 F 
ENDBRANCH  27  31
ENDBRANCH   1  29
TORSDOF 3
