REMARK  Name = ZINC09927354
REMARK  6 active torsions:
REMARK  status: ('A' for Active; 'I' for Inactive)
REMARK    1  A    between atoms: C_1  and  N_2
REMARK    2  A    between atoms: C_3  and  C_16
REMARK    3  A    between atoms: C_5  and  C_7
REMARK    4  A    between atoms: C_8  and  C_9
REMARK    5  A    between atoms: C_14  and  O_15
REMARK    6  A    between atoms: C_21  and  O_22
REMARK                            x       y       z     vdW  Elec       q    Type
REMARK                         _______ _______ _______ _____ _____    ______ ____
ROOT
ATOM      1  C   UNL     1       0.054   1.385  -0.049  0.00  0.00    +0.174 C 
ATOM      2  N   UNL     1      -0.669   1.690   1.188  0.00  0.00    -0.247 N 
ATOM      3  C   UNL     1      -0.150   1.741   2.444  0.00  0.00    +0.162 A 
ATOM      4  N   UNL     1      -1.124   2.047   3.274  0.00  0.00    -0.207 NA
ATOM      5  C   UNL     1      -2.268   2.198   2.593  0.00  0.00    +0.175 A 
ATOM      6  N   UNL     1      -2.035   1.993   1.312  0.00  0.00    -0.150 NA
ENDROOT
BRANCH   3   7
ATOM      7  C   UNL     1       1.261   1.496   2.811  0.00  0.00    +0.060 A 
ATOM      8  C   UNL     1       1.935   0.384   2.306  0.00  0.00    +0.015 A 
ATOM      9  C   UNL     1       3.251   0.161   2.652  0.00  0.00    +0.001 A 
ATOM     10  C   UNL     1       3.908   1.037   3.499  0.00  0.00    +0.004 A 
ATOM     11  C   UNL     1       3.251   2.142   4.006  0.00  0.00    +0.046 A 
ATOM     12  C   UNL     1       1.930   2.383   3.664  0.00  0.00    +0.128 A 
BRANCH  12  13
ATOM     13  O   UNL     1       1.286   3.471   4.157  0.00  0.00    -0.506 OA
ATOM     14  H   UNL     1       0.835   3.314   4.998  0.00  0.00    +0.292 HD
ENDBRANCH  12  13
ENDBRANCH   3   7
BRANCH   5  15
ATOM     15  C   UNL     1      -3.575   2.543   3.181  0.00  0.00    +0.050 C 
ATOM     16  C   UNL     1      -4.655   2.666   2.392  0.00  0.00    +0.015 C 
BRANCH  16  17
ATOM     17  C   UNL     1      -5.961   3.011   2.979  0.00  0.00    +0.017 A 
ATOM     18  C   UNL     1      -6.081   3.210   4.356  0.00  0.00    +0.011 A 
ATOM     19  C   UNL     1      -7.307   3.533   4.899  0.00  0.00    +0.001 A 
ATOM     20  C   UNL     1      -8.419   3.661   4.085  0.00  0.00    +0.004 A 
ATOM     21  C   UNL     1      -8.313   3.467   2.721  0.00  0.00    +0.046 A 
ATOM     22  C   UNL     1      -7.089   3.147   2.158  0.00  0.00    +0.124 A 
BRANCH  22  23
ATOM     23  O   UNL     1      -6.983   2.961   0.817  0.00  0.00    -0.506 OA
ATOM     24  H   UNL     1      -7.132   2.048   0.533  0.00  0.00    +0.292 HD
ENDBRANCH  22  23
ENDBRANCH  16  17
ENDBRANCH   5  15
TORSDOF 5
