REMARK  Name = ZINC49372038
REMARK  3 active torsions:
REMARK  status: ('A' for Active; 'I' for Inactive)
REMARK    1  A    between atoms: C_6  and  C_7
REMARK    2  A    between atoms: C_8  and  C_9
REMARK    3  A    between atoms: C_8  and  C_11
REMARK                            x       y       z     vdW  Elec       q    Type
REMARK                         _______ _______ _______ _____ _____    ______ ____
ROOT
ATOM      1  C   UNL     1      -1.264  -0.773   0.118  0.00  0.00    +0.030 C 
ATOM      2  C   UNL     1      -1.239  -2.118  -0.100  0.00  0.00    +0.097 C 
ENDROOT
BRANCH   2   3
ATOM      3  C   UNL     1       0.052  -2.840  -0.117  0.00  0.00    +0.177 A 
ATOM      4  N   UNL     1       0.834  -2.832   0.961  0.00  0.00    -0.194 NA
ATOM      5  C   UNL     1       1.993  -3.481   0.945  0.00  0.00    +0.217 A 
ATOM      6  N   UNL     1       2.372  -4.139  -0.146  0.00  0.00    -0.181 NA
ATOM      7  C   UNL     1       1.592  -4.148  -1.223  0.00  0.00    +0.217 A 
ATOM      8  N   UNL     1       1.987  -4.831  -2.355  0.00  0.00    -0.327 N 
ATOM      9  N   UNL     1       0.430  -3.503  -1.207  0.00  0.00    -0.194 NA
ATOM     10  N   UNL     1       2.804  -3.473   2.062  0.00  0.00    -0.327 N 
ATOM     11  H   UNL     1       2.834  -5.305  -2.365  0.00  0.00    +0.145 HD
ATOM     12  H   UNL     1       2.564  -2.934   2.832  0.00  0.00    +0.145 HD
ATOM     13  H   UNL     1       3.615  -4.005   2.077  0.00  0.00    +0.145 HD
ATOM     14  H   UNL     1       1.418  -4.838  -3.141  0.00  0.00    +0.145 HD
ENDBRANCH   2   3
BRANCH   1  20
ATOM     15  C   UNL     1       1.103  -0.432  -0.561  0.00  0.00    +0.009 A 
ATOM     16  C   UNL     1       2.279   0.283  -0.497  0.00  0.00    +0.023 A 
ATOM     17  C   UNL     1       2.365   1.412   0.301  0.00  0.00    +0.076 A 
ATOM     18  C   UNL     1       1.268   1.832   1.042  0.00  0.00    +0.142 A 
ATOM     19  C   UNL     1       0.084   1.126   0.987  0.00  0.00    +0.047 A 
ATOM     20  C   UNL     1      -0.008  -0.016   0.182  0.00  0.00    -0.021 A 
ATOM     21  F   UNL     1       1.361   2.934   1.818  0.00  0.00    -0.204 F 
ATOM     22 CL   UNL     1       3.851   2.306   0.376  0.00  0.00    -0.081 Cl
ENDBRANCH   1  20
BRANCH   2  23
ATOM     23  C   UNL     1      -2.462  -2.833  -0.312  0.00  0.00    +0.103 C 
ATOM     24  N   UNL     1      -3.431  -3.399  -0.481  0.00  0.00    -0.191 NA
ENDBRANCH   2  23
TORSDOF 3
