REMARK  Name = ZINC20685315
REMARK  12 active torsions:
REMARK  status: ('A' for Active; 'I' for Inactive)
REMARK    1  A    between atoms: C_1  and  C_2
REMARK    2  A    between atoms: C_2  and  C_3
REMARK    3  A    between atoms: C_7  and  C_35
REMARK    4  A    between atoms: C_8  and  N_9
REMARK    5  A    between atoms: N_9  and  C_10
REMARK    6  A    between atoms: C_10  and  N_12
REMARK    7  A    between atoms: N_12  and  N_13
REMARK    8  A    between atoms: N_21  and  C_24
REMARK    9  A    between atoms: C_24  and  N_25
REMARK   10  A    between atoms: C_27  and  C_34
REMARK   11  A    between atoms: C_30  and  C_33
REMARK   12  A    between atoms: C_35  and  C_36
REMARK                            x       y       z     vdW  Elec       q    Type
REMARK                         _______ _______ _______ _____ _____    ______ ____
ROOT
ATOM      1  N   UNL     1       0.687   2.222   4.366  0.00  0.00    -0.175 NA
ATOM      2  C   UNL     1       0.046   1.668   5.368  0.00  0.00    +0.153 C 
ATOM      3  C   UNL     1       0.094   2.058   6.796  0.00  0.00    +0.028 A 
ATOM      4  C   UNL     1       0.763   3.062   7.487  0.00  0.00    +0.012 A 
ATOM      5  C   UNL     1       0.597   3.183   8.852  0.00  0.00    +0.001 A 
ATOM      6  C   UNL     1      -0.239   2.310   9.528  0.00  0.00    +0.002 A 
ATOM      7  C   UNL     1      -0.912   1.314   8.851  0.00  0.00    +0.024 A 
ATOM      8  C   UNL     1      -0.757   1.177   7.476  0.00  0.00    +0.044 A 
ATOM      9  N   UNL     1      -1.308   0.279   6.569  0.00  0.00    -0.282 N 
ATOM     10  C   UNL     1      -0.875   0.516   5.318  0.00  0.00    +0.270 C 
ATOM     11  O   UNL     1      -1.188  -0.109   4.322  0.00  0.00    -0.268 OA
ENDROOT
BRANCH   1  12
ATOM     12  N   UNL     1       0.529   1.717   3.069  0.00  0.00    -0.217 N 
ATOM     13  H   UNL     1      -0.129   0.853   2.891  0.00  0.00    +0.176 HD
BRANCH  12  14
ATOM     14  C   UNL     1       1.183   2.290   2.039  0.00  0.00    +0.154 C 
ATOM     15  S   UNL     1       0.985   1.677   0.452  0.00  0.00    -0.017 S 
BRANCH  14  16
ATOM     16  N   UNL     1       1.993   3.344   2.258  0.00  0.00    -0.295 N 
ATOM     17  H   UNL     1       2.087   3.765   3.270  0.00  0.00    +0.154 HD
BRANCH  16  23
ATOM     18  C   UNL     1       2.600   5.260   0.918  0.00  0.00    -0.026 A 
ATOM     19  C   UNL     1       3.317   5.810  -0.127  0.00  0.00    +0.005 A 
ATOM     20  C   UNL     1       4.140   5.011  -0.899  0.00  0.00    +0.001 A 
ATOM     21  C   UNL     1       4.252   3.660  -0.625  0.00  0.00    +0.005 A 
ATOM     22  C   UNL     1       3.542   3.104   0.420  0.00  0.00    -0.026 A 
ATOM     23  C   UNL     1       2.714   3.904   1.198  0.00  0.00    +0.039 A 
BRANCH  18  25
ATOM     24  C   UNL     1       2.458   6.607   2.995  0.00  0.00    +0.009 C 
ATOM     25  C   UNL     1       1.699   6.130   1.756  0.00  0.00    +0.033 C 
ENDBRANCH  18  25
BRANCH  22  26
ATOM     26  C   UNL     1       3.664   1.632   0.717  0.00  0.00    +0.033 C 
ATOM     27  C   UNL     1       3.889   0.866  -0.588  0.00  0.00    +0.009 C 
ENDBRANCH  22  26
ENDBRANCH  16  23
ENDBRANCH  14  16
ENDBRANCH  12  14
ENDBRANCH   1  12
BRANCH   9  28
ATOM     28  C   UNL     1      -2.241  -0.791   6.930  0.00  0.00    +0.039 C 
BRANCH  28  29
ATOM     29  N   UNL     1      -1.487  -2.009   7.256  0.00  0.00    +0.391 N 
ATOM     30  C   UNL     1      -1.089  -2.724   6.037  0.00  0.00    -0.073 C 
ATOM     31  C   UNL     1      -0.186  -3.903   6.407  0.00  0.00    -0.030 C 
ATOM     32  C   UNL     1      -0.942  -4.843   7.349  0.00  0.00    +0.003 C 
ATOM     33  C   UNL     1      -1.387  -4.062   8.589  0.00  0.00    -0.030 C 
ATOM     34  C   UNL     1      -2.255  -2.879   8.155  0.00  0.00    -0.073 C 
ATOM     35  C   UNL     1      -0.155  -3.545   9.336  0.00  0.00    +0.005 C 
ATOM     36  C   UNL     1       0.210  -4.661   5.138  0.00  0.00    +0.005 C 
ATOM     37  H   UNL     1      -0.569  -1.709   7.783  0.00  0.00    -0.079 HD
ENDBRANCH  28  29
ENDBRANCH   9  28
TORSDOF 8
