REMARK  Name = ZINC26443909
REMARK  4 active torsions:
REMARK  status: ('A' for Active; 'I' for Inactive)
REMARK    1  A    between atoms: C_1  and  C_2
REMARK    2  A    between atoms: C_5  and  C_8
REMARK    3  A    between atoms: C_9  and  C_10
REMARK    4  A    between atoms: N_17  and  N_18
REMARK                            x       y       z     vdW  Elec       q    Type
REMARK                         _______ _______ _______ _____ _____    ______ ____
ROOT
ATOM      1  C   UNL     1       1.146  -0.674  -0.013  0.00  0.00    +0.150 A 
ATOM      2  C   UNL     1       2.404   0.086  -0.020  0.00  0.00    +0.300 A 
ATOM      3  O   UNL     1       3.484  -0.478  -0.033  0.00  0.00    -0.263 OA
ATOM      4  N   UNL     1       2.318   1.438  -0.012  0.00  0.00    -0.173 NA
ATOM      5  C   UNL     1       1.083   2.012   0.003  0.00  0.00    +0.226 A 
ATOM      6  N   UNL     1      -0.015   1.280   0.009  0.00  0.00    -0.247 N 
ATOM      7  N   UNL     1       0.002  -0.004   0.002  0.00  0.00    -0.166 NA
ATOM      8  N   UNL     1       0.979   3.376   0.011  0.00  0.00    -0.252 N 
ATOM      9  H   UNL     1       1.887   3.997   0.005  0.00  0.00    +0.169 HD
ATOM     10  H   UNL     1      -1.001   1.768   0.021  0.00  0.00    +0.192 HD
ENDROOT
BRANCH   8  11
ATOM     11  N   UNL     1      -0.252   3.967   0.026  0.00  0.00    -0.254 NA
ATOM     12  H   UNL     1      -0.134   5.061   0.030  0.00  0.00    +0.140 HD
ATOM     13  H   UNL     1      -0.816   3.663  -0.869  0.00  0.00    +0.140 HD
ENDBRANCH   8  11
BRANCH   1  15
ATOM     14  C   UNL     1      -0.005  -2.824  -0.012  0.00  0.00    +0.010 C 
ATOM     15  C   UNL     1       1.156  -2.143  -0.020  0.00  0.00    +0.035 C 
BRANCH  14  20
ATOM     16  C   UNL     1       0.035  -8.573  -0.043  0.00  0.00    +0.044 C 
ATOM     17  C   UNL     1       0.024  -7.066  -0.034  0.00  0.00    -0.050 A 
ATOM     18  C   UNL     1      -1.181  -6.386  -0.019  0.00  0.00    +0.004 A 
ATOM     19  C   UNL     1      -1.198  -5.007  -0.011  0.00  0.00    +0.008 A 
ATOM     20  C   UNL     1       0.005  -4.296  -0.020  0.00  0.00    -0.025 A 
ATOM     21  C   UNL     1       1.219  -4.990  -0.041  0.00  0.00    +0.008 A 
ATOM     22  C   UNL     1       1.220  -6.369  -0.042  0.00  0.00    +0.004 A 
ENDBRANCH  14  20
ENDBRANCH   1  15
TORSDOF 3
