REMARK  Name = ZINC09198509
REMARK  10 active torsions:
REMARK  status: ('A' for Active; 'I' for Inactive)
REMARK    1  A    between atoms: C_1  and  C_2
REMARK    2  A    between atoms: C_2  and  N_3
REMARK    3  A    between atoms: C_7  and  S_26
REMARK    4  A    between atoms: C_11  and  C_12
REMARK    5  A    between atoms: C_12  and  N_65
REMARK    6  A    between atoms: C_13  and  N_65
REMARK    7  A    between atoms: C_14  and  C_16
REMARK    8  A    between atoms: C_14  and  C_17
REMARK    9  A    between atoms: C_14  and  N_65
REMARK   10  A    between atoms: S_26  and  N_29
REMARK                            x       y       z     vdW  Elec       q    Type
REMARK                         _______ _______ _______ _____ _____    ______ ____
ROOT
ATOM      1  N   UNL     1      -0.749   3.044   1.275  0.00  0.00    -0.329 N 
ATOM      2  C   UNL     1      -1.728   3.852   0.733  0.00  0.00    +0.069 A 
ATOM      3  C   UNL     1      -2.917   3.610   0.059  0.00  0.00    +0.030 A 
ATOM      4  C   UNL     1      -3.691   4.670  -0.363  0.00  0.00    +0.030 A 
ATOM      5  C   UNL     1      -3.289   5.976  -0.117  0.00  0.00    +0.108 A 
ATOM      6  C   UNL     1      -2.122   6.233   0.545  0.00  0.00    +0.058 A 
ATOM      7  C   UNL     1      -1.321   5.174   0.981  0.00  0.00    +0.091 A 
ATOM      8  N   UNL     1      -0.140   5.106   1.647  0.00  0.00    -0.234 NA
ATOM      9  C   UNL     1       0.192   3.860   1.823  0.00  0.00    +0.094 A 
ENDROOT
BRANCH   5  10
ATOM     10  S   UNL     1      -4.294   7.316  -0.665  0.00  0.00    +0.061 S 
ATOM     11  O   UNL     1      -3.435   8.440  -0.798  0.00  0.00    -0.153 OA
ATOM     12  O   UNL     1      -5.075   6.822  -1.745  0.00  0.00    -0.153 OA
BRANCH  10  13
ATOM     13  N   UNL     1      -5.350   7.668   0.560  0.00  0.00    -0.177 NA
ATOM     14  C   UNL     1      -6.662   7.011   0.630  0.00  0.00    +0.109 C 
ATOM     15  C   UNL     1      -6.817   6.376   2.020  0.00  0.00    +0.017 C 
ATOM     16  C   UNL     1      -6.593   7.445   3.091  0.00  0.00    +0.003 C 
ATOM     17  C   UNL     1      -5.171   7.999   2.971  0.00  0.00    +0.017 C 
ATOM     18  C   UNL     1      -4.995   8.649   1.595  0.00  0.00    +0.109 C 
ENDBRANCH  10  13
ENDBRANCH   5  10
BRANCH   1  20
ATOM     19  C   UNL     1      -0.013   1.086   0.008  0.00  0.00    +0.027 C 
ATOM     20  C   UNL     1      -0.729   1.579   1.267  0.00  0.00    +0.120 C 
ENDBRANCH   1  20
BRANCH   9  21
ATOM     21  C   UNL     1       1.438   3.390   2.528  0.00  0.00    -0.003 C 
BRANCH  21  23
ATOM     22  C   UNL     1       2.911   4.561   1.005  0.00  0.00    -0.095 C 
ATOM     23  N   UNL     1       2.520   3.237   1.533  0.00  0.00    +0.388 N 
ATOM     24  H   UNL     1       2.180   2.656   0.758  0.00  0.00    -0.081 HD
BRANCH  23  25
ATOM     25  C   UNL     1       3.687   2.575   2.154  0.00  0.00    -0.015 C 
ATOM     26  C   UNL     1       3.273   1.180   2.626  0.00  0.00    -0.006 C 
BRANCH  25  27
ATOM     27  C   UNL     1       4.784   2.454   1.128  0.00  0.00    +0.066 A 
ATOM     28  N   UNL     1       4.689   2.077  -0.116  0.00  0.00    -0.246 NA
ATOM     29  C   UNL     1       5.758   2.015  -0.938  0.00  0.00    +0.078 A 
ATOM     30  C   UNL     1       5.815   1.634  -2.297  0.00  0.00    +0.029 A 
ATOM     31  C   UNL     1       6.998   1.628  -2.967  0.00  0.00    +0.002 A 
ATOM     32  C   UNL     1       8.187   1.990  -2.349  0.00  0.00    +0.001 A 
ATOM     33  C   UNL     1       8.174   2.369  -1.020  0.00  0.00    +0.017 A 
ATOM     34  C   UNL     1       6.983   2.379  -0.334  0.00  0.00    +0.039 A 
ATOM     35  S   UNL     1       6.479   2.774   1.321  0.00  0.00    -0.074 S 
ENDBRANCH  25  27
ENDBRANCH  23  25
ENDBRANCH  21  23
ENDBRANCH   9  21
TORSDOF 7
