REMARK  Name = ZINC45900201
REMARK  6 active torsions:
REMARK  status: ('A' for Active; 'I' for Inactive)
REMARK    1  A    between atoms: C_4  and  N_7
REMARK    2  A    between atoms: C_8  and  C_10
REMARK    3  A    between atoms: C_10  and  N_11
REMARK    4  A    between atoms: N_20  and  C_23
REMARK    5  A    between atoms: C_26  and  C_29
REMARK    6  A    between atoms: C_29  and  C_30
REMARK                            x       y       z     vdW  Elec       q    Type
REMARK                         _______ _______ _______ _____ _____    ______ ____
ROOT
ATOM      1  N   UNL     1       5.668  -5.414   0.739  0.00  0.00    -0.284 N 
ATOM      2  C   UNL     1       4.701  -4.736   1.466  0.00  0.00    +0.059 A 
ATOM      3  C   UNL     1       4.984  -4.164   2.697  0.00  0.00    +0.027 A 
ATOM      4  C   UNL     1       3.992  -3.498   3.388  0.00  0.00    +0.002 A 
ATOM      5  C   UNL     1       2.713  -3.393   2.863  0.00  0.00    +0.001 A 
ATOM      6  C   UNL     1       2.412  -3.956   1.640  0.00  0.00    +0.015 A 
ATOM      7  C   UNL     1       3.404  -4.631   0.933  0.00  0.00    +0.064 A 
ATOM      8  C   UNL     1       3.137  -5.250  -0.377  0.00  0.00    +0.269 A 
ATOM      9  O   UNL     1       2.033  -5.188  -0.883  0.00  0.00    -0.266 OA
ATOM     10  N   UNL     1       4.150  -5.888  -1.002  0.00  0.00    -0.228 N 
ATOM     11  C   UNL     1       5.373  -5.957  -0.455  0.00  0.00    +0.337 A 
ATOM     12  O   UNL     1       6.251  -6.540  -1.062  0.00  0.00    -0.246 OA
ENDROOT
BRANCH  10  13
ATOM     13  C   UNL     1       3.921  -6.486  -2.249  0.00  0.00    +0.054 A 
ATOM     14  C   UNL     1       4.116  -5.758  -3.415  0.00  0.00    +0.027 A 
ATOM     15  C   UNL     1       3.889  -6.349  -4.643  0.00  0.00    +0.006 A 
ATOM     16  C   UNL     1       3.468  -7.664  -4.711  0.00  0.00    -0.038 A 
ATOM     17  C   UNL     1       3.273  -8.392  -3.551  0.00  0.00    +0.006 A 
ATOM     18  C   UNL     1       3.504  -7.808  -2.321  0.00  0.00    +0.027 A 
BRANCH  16  19
ATOM     19  C   UNL     1       3.221  -8.306  -6.052  0.00  0.00    +0.131 C 
BRANCH  19  20
ATOM     20  C   UNL     1       4.492  -8.951  -6.542  0.00  0.00    +0.220 C 
ATOM     21  O   UNL     1       5.500  -8.895  -5.869  0.00  0.00    -0.275 OA
ATOM     22  N   UNL     1       4.510  -9.590  -7.728  0.00  0.00    -0.301 N 
ATOM     23  C   UNL     1       3.294  -9.634  -8.510  0.00  0.00    +0.108 C 
ATOM     24  C   UNL     1       2.467 -10.883  -8.114  0.00  0.00    +0.019 C 
ATOM     25  C   UNL     1       3.121 -12.105  -8.606  0.00  0.00    +0.002 C 
ATOM     26  C   UNL     1       4.502 -12.363  -8.011  0.00  0.00    +0.002 C 
ATOM     27  C   UNL     1       5.537 -11.603  -8.803  0.00  0.00    +0.019 C 
ATOM     28  C   UNL     1       5.771 -10.211  -8.179  0.00  0.00    +0.108 C 
ENDBRANCH  19  20
ENDBRANCH  16  19
ENDBRANCH  10  13
BRANCH   1  29
ATOM     29  C   UNL     1       7.026  -5.535   1.276  0.00  0.00    +0.222 C 
BRANCH  29  31
ATOM     30  N   UNL     1       9.144  -4.261   1.191  0.00  0.00    -0.284 N 
ATOM     31  C   UNL     1       7.854  -4.362   0.818  0.00  0.00    +0.237 C 
ATOM     32  O   UNL     1       7.358  -3.509   0.113  0.00  0.00    -0.274 OA
ATOM     33  H   UNL     1       9.563  -4.981   1.688  0.00  0.00    +0.155 HD
BRANCH  30  37
ATOM     34  C   UNL     1      11.335  -0.855   0.215  0.00  0.00    +0.000 A 
ATOM     35  C   UNL     1       9.971  -0.762   0.420  0.00  0.00    +0.002 A 
ATOM     36  C   UNL     1       9.242  -1.889   0.744  0.00  0.00    +0.023 A 
ATOM     37  C   UNL     1       9.880  -3.117   0.863  0.00  0.00    +0.033 A 
ATOM     38  C   UNL     1      11.251  -3.206   0.656  0.00  0.00    +0.023 A 
ATOM     39  C   UNL     1      11.974  -2.075   0.333  0.00  0.00    +0.002 A 
ENDBRANCH  30  37
ENDBRANCH  29  31
ENDBRANCH   1  29
TORSDOF 6
