REMARK  Name = ZINC43387408
REMARK  3 active torsions:
REMARK  status: ('A' for Active; 'I' for Inactive)
REMARK    1  A    between atoms: C_2  and  C_9
REMARK    2  A    between atoms: C_11  and  C_14
REMARK    3  A    between atoms: C_14  and  N_20
REMARK                            x       y       z     vdW  Elec       q    Type
REMARK                         _______ _______ _______ _____ _____    ______ ____
ROOT
ATOM      1  C   UNL     1       1.166   3.573   0.010  0.00  0.00    +0.202 A 
ATOM      2  N   UNL     1       2.251   4.369  -0.002  0.00  0.00    -0.193 NA
ATOM      3  C   UNL     1       1.886   5.620   0.009  0.00  0.00    +0.216 A 
ATOM      4  O   UNL     1       0.548   5.672   0.028  0.00  0.00    -0.339 OA
ATOM      5  N   UNL     1       0.094   4.327   0.023  0.00  0.00    -0.056 NA
ENDROOT
BRANCH   1   7
ATOM      6  C   UNL     1      -0.017   1.378   0.010  0.00  0.00    +0.050 A 
ATOM      7  C   UNL     1       1.181   2.089   0.002  0.00  0.00    +0.028 A 
ATOM      8  C   UNL     1       2.393   1.403  -0.013  0.00  0.00    +0.050 A 
ATOM      9  C   UNL     1       2.403   0.021  -0.021  0.00  0.00    +0.127 A 
ATOM     10  C   UNL     1       1.210  -0.682  -0.014  0.00  0.00    +0.076 A 
ATOM     11  C   UNL     1       0.002  -0.004   0.002  0.00  0.00    +0.127 A 
ATOM     12  F   UNL     1      -1.159  -0.695   0.009  0.00  0.00    -0.205 F 
ATOM     13  F   UNL     1       3.578  -0.646  -0.036  0.00  0.00    -0.205 F 
ENDBRANCH   1   7
BRANCH   3  14
ATOM     14  C   UNL     1       2.814   6.807   0.002  0.00  0.00    +0.010 C 
ATOM     15  C   UNL     1       3.714   6.759   1.238  0.00  0.00    -0.004 C 
ATOM     16  C   UNL     1       2.849   6.796   2.500  0.00  0.00    -0.001 C 
ATOM     17  C   UNL     1       2.026   8.085   2.517  0.00  0.00    -0.000 C 
ATOM     18  C   UNL     1       1.127   8.133   1.281  0.00  0.00    -0.001 C 
ATOM     19  C   UNL     1       1.991   8.097   0.019  0.00  0.00    -0.004 C 
BRANCH  14  20
ATOM     20  N   UNL     1       3.644   6.772  -1.210  0.00  0.00    +0.388 N 
ATOM     21  H   UNL     1       3.051   6.804  -2.025  0.00  0.00    -0.089 HD
ATOM     22  H   UNL     1       4.265   7.568  -1.215  0.00  0.00    -0.089 HD
ATOM     23  H   UNL     1       4.187   5.922  -1.222  0.00  0.00    -0.089 HD
ENDBRANCH  14  20
ENDBRANCH   3  14
TORSDOF 3
