REMARK  Name = ZINC09426087
REMARK  10 active torsions:
REMARK  status: ('A' for Active; 'I' for Inactive)
REMARK    1  A    between atoms: C_1  and  C_2
REMARK    2  A    between atoms: C_5  and  S_8
REMARK    3  A    between atoms: S_8  and  C_9
REMARK    4  A    between atoms: C_9  and  C_10
REMARK    5  A    between atoms: C_10  and  N_11
REMARK    6  A    between atoms: N_11  and  S_12
REMARK    7  A    between atoms: S_12  and  C_15
REMARK    8  A    between atoms: C_18  and  O_29
REMARK    9  A    between atoms: C_19  and  C_21
REMARK   10  A    between atoms: O_29  and  C_30
REMARK                            x       y       z     vdW  Elec       q    Type
REMARK                         _______ _______ _______ _____ _____    ______ ____
ROOT
ATOM      1  C   UNL     1      -1.255   3.170   0.021  0.00  0.00    +0.106 A 
ATOM      2  C   UNL     1      -1.239   1.785  -0.011  0.00  0.00    +0.032 A 
ATOM      3  C   UNL     1      -0.041   1.100  -0.031  0.00  0.00    +0.048 A 
ATOM      4  C   UNL     1       1.158   1.797  -0.029  0.00  0.00    +0.132 A 
ATOM      5  C   UNL     1       1.147   3.198  -0.002  0.00  0.00    +0.080 A 
ATOM      6  C   UNL     1      -0.073   3.878   0.024  0.00  0.00    +0.045 A 
ENDROOT
BRANCH   5   7
ATOM      7  C   UNL     1       2.416   3.951   0.001  0.00  0.00    +0.250 C 
ATOM      8  O   UNL     1       3.247   3.744  -0.863  0.00  0.00    -0.270 OA
ATOM      9  N   UNL     1       2.654   4.867   0.960  0.00  0.00    -0.297 N 
ATOM     10  C   UNL     1       1.715   5.043   2.076  0.00  0.00    +0.108 C 
ATOM     11  C   UNL     1       2.495   4.920   3.394  0.00  0.00    +0.019 C 
ATOM     12  C   UNL     1       3.657   5.916   3.387  0.00  0.00    +0.003 C 
ATOM     13  C   UNL     1       4.607   5.587   2.233  0.00  0.00    +0.019 C 
ATOM     14  C   UNL     1       3.854   5.713   0.905  0.00  0.00    +0.108 C 
ENDBRANCH   5   7
BRANCH   1  15
ATOM     15  S   UNL     1      -2.793   4.029   0.054  0.00  0.00    +0.058 S 
ATOM     16  O   UNL     1      -3.749   3.129   0.597  0.00  0.00    -0.153 OA
ATOM     17  O   UNL     1      -2.534   5.303   0.628  0.00  0.00    -0.153 OA
BRANCH  15  18
ATOM     18  N   UNL     1      -3.236   4.299  -1.518  0.00  0.00    -0.189 NA
ATOM     19  H   UNL     1      -3.290   5.206  -1.858  0.00  0.00    +0.148 HD
BRANCH  18  20
ATOM     20  C   UNL     1      -3.548   3.168  -2.396  0.00  0.00    +0.117 C 
BRANCH  20  21
ATOM     21  C   UNL     1      -4.274   3.676  -3.643  0.00  0.00    +0.091 C 
BRANCH  21  22
ATOM     22  S   UNL     1      -4.660   2.276  -4.730  0.00  0.00    -0.124 S 
BRANCH  22  27
ATOM     23  C   UNL     1      -7.480   4.808  -9.428  0.00  0.00    +0.044 C 
ATOM     24  C   UNL     1      -6.776   4.176  -8.255  0.00  0.00    -0.050 A 
ATOM     25  C   UNL     1      -6.577   2.808  -8.226  0.00  0.00    +0.004 A 
ATOM     26  C   UNL     1      -5.932   2.225  -7.153  0.00  0.00    +0.015 A 
ATOM     27  C   UNL     1      -5.483   3.015  -6.102  0.00  0.00    +0.008 A 
ATOM     28  C   UNL     1      -5.690   4.389  -6.132  0.00  0.00    +0.015 A 
ATOM     29  C   UNL     1      -6.330   4.965  -7.211  0.00  0.00    +0.004 A 
ENDBRANCH  22  27
ENDBRANCH  21  22
ENDBRANCH  20  21
ENDBRANCH  18  20
ENDBRANCH  15  18
ENDBRANCH   1  15
BRANCH   4  30
ATOM     30  O   UNL     1       2.337   1.126  -0.055  0.00  0.00    -0.494 OA
ATOM     31  C   UNL     1       2.270  -0.301  -0.082  0.00  0.00    +0.277 C 
ENDBRANCH   4  30
TORSDOF 8
