REMARK  Name = ZINC02878399
REMARK  5 active torsions:
REMARK  status: ('A' for Active; 'I' for Inactive)
REMARK    1  A    between atoms: C_2  and  C_3
REMARK    2  A    between atoms: C_3  and  S_4
REMARK    3  A    between atoms: S_4  and  C_5
REMARK    4  A    between atoms: C_18  and  C_21
REMARK    5  A    between atoms: C_24  and  C_26
REMARK                            x       y       z     vdW  Elec       q    Type
REMARK                         _______ _______ _______ _____ _____    ______ ____
ROOT
ATOM      1  C   UNL     1      -0.016   1.326   0.009  0.00  0.00    +0.213 A 
ATOM      2  N   UNL     1       0.002  -0.004   0.002  0.00  0.00    -0.184 NA
ATOM      3  C   UNL     1       1.164  -0.635  -0.013  0.00  0.00    +0.248 A 
ATOM      4  C   UNL     1       2.352   0.130  -0.026  0.00  0.00    +0.156 A 
ATOM      5  N   UNL     1       2.264   1.452  -0.015  0.00  0.00    -0.141 NA
ATOM      6  N   UNL     1       1.111   2.026   0.002  0.00  0.00    -0.122 NA
ATOM      7  C   UNL     1       3.661  -0.555  -0.055  0.00  0.00    +0.028 A 
ATOM      8  C   UNL     1       4.690  -0.196   0.806  0.00  0.00    +0.012 A 
ATOM      9  C   UNL     1       5.903  -0.853   0.738  0.00  0.00    +0.001 A 
ATOM     10  C   UNL     1       6.100  -1.866  -0.184  0.00  0.00    +0.002 A 
ATOM     11  C   UNL     1       5.083  -2.237  -1.044  0.00  0.00    +0.024 A 
ATOM     12  C   UNL     1       3.861  -1.594  -0.983  0.00  0.00    +0.040 A 
ATOM     13  N   UNL     1       2.799  -1.967  -1.813  0.00  0.00    -0.303 N 
ATOM     14  C   UNL     1       1.639  -2.623  -1.218  0.00  0.00    +0.329 C 
ATOM     15  O   UNL     1       1.233  -1.987  -0.011  0.00  0.00    -0.445 OA
ATOM     16  H   UNL     1       2.833  -1.794  -2.767  0.00  0.00    +0.150 HD
ENDROOT
BRANCH  14  17
ATOM     17  C   UNL     1       1.984  -4.060  -0.923  0.00  0.00    +0.165 A 
ATOM     18  C   UNL     1       1.119  -5.092  -0.923  0.00  0.00    +0.051 A 
ATOM     19  C   UNL     1       1.855  -6.249  -0.600  0.00  0.00    +0.050 A 
ATOM     20  C   UNL     1       3.144  -5.855  -0.418  0.00  0.00    +0.135 A 
ATOM     21  O   UNL     1       3.208  -4.525  -0.623  0.00  0.00    -0.454 OA
BRANCH  20  22
ATOM     22  C   UNL     1       4.278  -6.734  -0.063  0.00  0.00    +0.018 A 
ATOM     23  C   UNL     1       5.557  -6.198   0.094  0.00  0.00    +0.011 A 
ATOM     24  C   UNL     1       6.612  -7.023   0.426  0.00  0.00    +0.002 A 
ATOM     25  C   UNL     1       6.404  -8.379   0.604  0.00  0.00    +0.015 A 
ATOM     26  C   UNL     1       5.138  -8.917   0.450  0.00  0.00    +0.019 A 
ATOM     27  C   UNL     1       4.073  -8.102   0.122  0.00  0.00    +0.026 A 
ATOM     28 BR   UNL     1       4.865 -10.772   0.695  0.00  0.00    -0.050 Br
ENDBRANCH  20  22
ENDBRANCH  14  17
BRANCH   1  29
ATOM     29  S   UNL     1      -1.562   2.172   0.021  0.00  0.00    -0.080 S 
BRANCH  29  30
ATOM     30  C   UNL     1      -0.982   3.886   0.028  0.00  0.00    +0.104 C 
BRANCH  30  32
ATOM     31  C   UNL     1      -2.380   5.593   1.072  0.00  0.00    +0.005 C 
ATOM     32  C   UNL     1      -2.166   4.817   0.038  0.00  0.00    -0.023 C 
ENDBRANCH  30  32
ENDBRANCH  29  30
ENDBRANCH   1  29
TORSDOF 5
