REMARK  Name = ZINC67234590
REMARK  7 active torsions:
REMARK  status: ('A' for Active; 'I' for Inactive)
REMARK    1  A    between atoms: C_3  and  N_13
REMARK    2  A    between atoms: C_6  and  C_7
REMARK    3  A    between atoms: C_14  and  C_16
REMARK    4  A    between atoms: C_16  and  C_17
REMARK    5  A    between atoms: C_17  and  C_18
REMARK    6  A    between atoms: C_18  and  C_19
REMARK    7  A    between atoms: C_19  and  C_20
REMARK                            x       y       z     vdW  Elec       q    Type
REMARK                         _______ _______ _______ _____ _____    ______ ____
ROOT
ATOM      1  N   UNL     1       3.582   2.132  -0.021  0.00  0.00    -0.285 N 
ATOM      2  C   UNL     1       4.758   1.479   0.066  0.00  0.00    +0.217 C 
ATOM      3  O   UNL     1       4.779   0.266   0.060  0.00  0.00    -0.275 OA
ATOM      4  H   UNL     1       3.569   3.100  -0.093  0.00  0.00    +0.155 HD
ENDROOT
BRANCH   1   7
ATOM      5  C   UNL     1       1.094  -0.458   0.757  0.00  0.00    +0.012 A 
ATOM      6  C   UNL     1       2.277   0.250   0.741  0.00  0.00    +0.024 A 
ATOM      7  C   UNL     1       2.381   1.416  -0.007  0.00  0.00    +0.033 A 
ATOM      8  C   UNL     1       1.293   1.872  -0.742  0.00  0.00    +0.024 A 
ATOM      9  C   UNL     1       0.107   1.168  -0.729  0.00  0.00    +0.012 A 
ATOM     10  C   UNL     1       0.001  -0.002   0.021  0.00  0.00    +0.002 A 
BRANCH  10  11
ATOM     11  C   UNL     1      -1.273  -0.762   0.036  0.00  0.00    +0.092 A 
ATOM     12  C   UNL     1      -2.449  -0.422  -0.662  0.00  0.00    +0.049 A 
ATOM     13  C   UNL     1      -3.379  -1.363  -0.388  0.00  0.00    +0.105 A 
ATOM     14  N   UNL     1      -2.825  -2.266   0.449  0.00  0.00    -0.284 N 
ATOM     15  H   UNL     1      -3.265  -3.052   0.811  0.00  0.00    +0.188 HD
ATOM     16  N   UNL     1      -1.503  -1.876   0.698  0.00  0.00    -0.174 NA
ENDBRANCH  10  11
ENDBRANCH   1   7
BRANCH   2  17
ATOM     17  C   UNL     1       6.045   2.255   0.171  0.00  0.00    +0.096 C 
BRANCH  17  18
ATOM     18  C   UNL     1       7.222   1.281   0.256  0.00  0.00    +0.009 C 
BRANCH  18  19
ATOM     19  C   UNL     1       8.529   2.068   0.362  0.00  0.00    +0.002 C 
BRANCH  19  20
ATOM     20  C   UNL     1       9.706   1.095   0.447  0.00  0.00    +0.016 C 
BRANCH  20  21
ATOM     21  C   UNL     1      11.014   1.882   0.554  0.00  0.00    +0.069 C 
ATOM     22  C   UNL     1      12.203   0.958   0.607  0.00  0.00    +0.108 C 
ATOM     23  C   UNL     1      13.361   1.682   1.362  0.00  0.00    +0.105 C 
ATOM     24  C   UNL     1      12.802   2.010   2.744  0.00  0.00    +0.093 C 
ATOM     25  S   UNL     1      11.157   2.722   2.200  0.00  0.00    -0.154 S 
ATOM     26  N   UNL     1      14.406   0.700   1.183  0.00  0.00    -0.294 N 
ATOM     27  C   UNL     1      14.163   0.126  -0.033  0.00  0.00    +0.300 C 
ATOM     28  O   UNL     1      14.969  -0.564  -0.626  0.00  0.00    -0.253 OA
ATOM     29  N   UNL     1      12.925   0.427  -0.511  0.00  0.00    -0.294 N 
ATOM     30  H   UNL     1      15.128   0.492   1.797  0.00  0.00    +0.151 HD
ATOM     31  H   UNL     1      12.601   0.300  -1.417  0.00  0.00    +0.151 HD
ENDBRANCH  20  21
ENDBRANCH  19  20
ENDBRANCH  18  19
ENDBRANCH  17  18
ENDBRANCH   2  17
TORSDOF 7
