REMARK  Name = ZINC35665074
REMARK  9 active torsions:
REMARK  status: ('A' for Active; 'I' for Inactive)
REMARK    1  A    between atoms: C_1  and  C_2
REMARK    2  A    between atoms: C_2  and  C_3
REMARK    3  A    between atoms: C_2  and  N_4
REMARK    4  A    between atoms: N_4  and  C_5
REMARK    5  A    between atoms: C_5  and  N_7
REMARK    6  A    between atoms: C_14  and  C_29
REMARK    7  A    between atoms: N_18  and  C_19
REMARK    8  A    between atoms: C_19  and  C_20
REMARK    9  A    between atoms: C_29  and  C_30
REMARK                            x       y       z     vdW  Elec       q    Type
REMARK                         _______ _______ _______ _____ _____    ______ ____
ROOT
ATOM      1  N   UNL     1      -0.066  -1.554   3.378  0.00  0.00    -0.313 N 
ATOM      2  C   UNL     1       1.396  -1.484   3.250  0.00  0.00    +0.107 C 
ATOM      3  C   UNL     1       1.945  -0.580   4.359  0.00  0.00    +0.025 C 
ATOM      4  C   UNL     1       1.447  -1.080   5.714  0.00  0.00    +0.006 C 
ATOM      5  C   UNL     1      -0.079  -1.046   5.765  0.00  0.00    +0.025 C 
ATOM      6  C   UNL     1      -0.645  -1.949   4.670  0.00  0.00    +0.107 C 
ATOM      7  N   UNL     1       2.002  -0.235   6.792  0.00  0.00    +0.401 N 
ATOM      8  C   UNL     1       3.241  -0.953   7.178  0.00  0.00    +0.023 C 
ATOM      9  C   UNL     1       2.981  -2.397   6.809  0.00  0.00    +0.201 C 
ATOM     10  O   UNL     1       3.610  -3.355   7.208  0.00  0.00    -0.277 OA
ATOM     11  N   UNL     1       1.932  -2.441   5.961  0.00  0.00    -0.309 N 
ATOM     12  H   UNL     1       2.217   0.688   6.447  0.00  0.00    -0.082 HD
ATOM     13  H   UNL     1       1.362  -0.186   7.571  0.00  0.00    -0.082 HD
ENDROOT
BRANCH   1  14
ATOM     14  C   UNL     1      -0.862  -1.256   2.332  0.00  0.00    +0.133 C 
ATOM     15  S   UNL     1      -2.561  -1.203   2.536  0.00  0.00    -0.019 S 
BRANCH  14  16
ATOM     16  N   UNL     1      -0.320  -0.999   1.125  0.00  0.00    -0.324 N 
ATOM     17  H   UNL     1       0.644  -0.960   1.024  0.00  0.00    +0.148 HD
BRANCH  16  19
ATOM     18  C   UNL     1      -1.617   0.687  -0.081  0.00  0.00    +0.027 C 
ATOM     19  C   UNL     1      -1.186  -0.780  -0.036  0.00  0.00    +0.066 C 
ATOM     20  C   UNL     1      -0.422  -1.127  -1.316  0.00  0.00    +0.027 C 
ENDBRANCH  16  19
ENDBRANCH  14  16
ENDBRANCH   1  14
BRANCH  11  21
ATOM     21  C   UNL     1       1.366  -3.659   5.378  0.00  0.00    +0.141 C 
BRANCH  21  22
ATOM     22  C   UNL     1       0.506  -4.354   6.402  0.00  0.00    -0.026 A 
ATOM     23  C   UNL     1       0.921  -5.551   6.955  0.00  0.00    +0.009 A 
ATOM     24  C   UNL     1       0.136  -6.191   7.896  0.00  0.00    +0.050 A 
ATOM     25  C   UNL     1      -1.071  -5.633   8.286  0.00  0.00    +0.166 A 
ATOM     26  C   UNL     1      -1.490  -4.428   7.729  0.00  0.00    +0.167 A 
ATOM     27  C   UNL     1      -0.695  -3.789   6.791  0.00  0.00    +0.054 A 
ATOM     28  O   UNL     1      -2.697  -4.093   8.271  0.00  0.00    -0.453 OA
ATOM     29  C   UNL     1      -3.204  -5.305   8.860  0.00  0.00    +0.466 C 
ATOM     30  O   UNL     1      -2.016  -6.054   9.177  0.00  0.00    -0.453 OA
ENDBRANCH  21  22
ENDBRANCH  11  21
BRANCH   8  31
ATOM     31  C   UNL     1       3.487  -0.821   8.682  0.00  0.00    +0.028 C 
BRANCH  31  32
ATOM     32  C   UNL     1       3.752   0.623   9.023  0.00  0.00    -0.048 A 
ATOM     33  C   UNL     1       5.045   1.112   8.998  0.00  0.00    +0.003 A 
ATOM     34  C   UNL     1       5.289   2.437   9.310  0.00  0.00    +0.000 A 
ATOM     35  C   UNL     1       4.240   3.272   9.648  0.00  0.00    +0.000 A 
ATOM     36  C   UNL     1       2.947   2.782   9.672  0.00  0.00    +0.000 A 
ATOM     37  C   UNL     1       2.703   1.459   9.355  0.00  0.00    +0.003 A 
ENDBRANCH  31  32
ENDBRANCH   8  31
TORSDOF 7
