REMARK  Name = ZINC38971843
REMARK  6 active torsions:
REMARK  status: ('A' for Active; 'I' for Inactive)
REMARK    1  A    between atoms: C_1  and  C_2
REMARK    2  A    between atoms: C_19  and  C_21
REMARK    3  A    between atoms: C_21  and  N_22
REMARK    4  A    between atoms: N_22  and  C_23
REMARK    5  A    between atoms: C_23  and  C_24
REMARK    6  A    between atoms: C_36  and  C_43
REMARK                            x       y       z     vdW  Elec       q    Type
REMARK                         _______ _______ _______ _____ _____    ______ ____
ROOT
ATOM      1  N   UNL     1       0.212  -6.059   1.044  0.00  0.00    +0.380 N 
ATOM      2  H   UNL     1      -0.533  -6.165   0.373  0.00  0.00    -0.086 HD
ATOM      3  H   UNL     1       1.029  -6.557   0.722  0.00  0.00    -0.086 HD
ENDROOT
BRANCH   1   4
ATOM      4  C   UNL     1       0.536  -4.634   1.196  0.00  0.00    -0.068 C 
BRANCH   4  20
ATOM      5  C   UNL     1      -0.019   1.526   0.010  0.00  0.00    +0.012 C 
ATOM      6  C   UNL     1       0.002  -0.004   0.002  0.00  0.00    -0.022 C 
ATOM      7  C   UNL     1      -1.432  -0.528   0.022  0.00  0.00    +0.007 C 
ATOM      8  C   UNL     1      -2.179   0.069   1.217  0.00  0.00    +0.005 C 
ATOM      9  C   UNL     1      -1.513  -0.387   2.519  0.00  0.00    +0.030 C 
ATOM     10  C   UNL     1      -0.040  -0.048   2.461  0.00  0.00    -0.073 C 
ATOM     11  C   UNL     1       0.539   0.619   3.428  0.00  0.00    +0.008 C 
ATOM     12  C   UNL     1       0.745  -0.508   1.246  0.00  0.00    +0.021 C 
ATOM     13  C   UNL     1       0.732  -2.036   1.235  0.00  0.00    +0.016 C 
ATOM     14  C   UNL     1       1.450  -2.587   0.003  0.00  0.00    +0.042 C 
ATOM     15  C   UNL     1       0.863  -1.975  -1.285  0.00  0.00    +0.181 C 
ATOM     16  C   UNL     1       0.725  -0.490  -1.247  0.00  0.00    +0.052 C 
ATOM     17  O   UNL     1      -0.399  -2.636  -1.428  0.00  0.00    -0.461 OA
ATOM     18  C   UNL     1      -0.209  -3.940  -1.126  0.00  0.00    +0.309 C 
ATOM     19  O   UNL     1      -0.864  -4.862  -1.550  0.00  0.00    -0.251 OA
ATOM     20  C   UNL     1       0.980  -4.066  -0.153  0.00  0.00    +0.087 C 
ENDBRANCH   4  20
ENDBRANCH   1   4
BRANCH   1  21
ATOM     21  C   UNL     1      -0.215  -6.604   2.340  0.00  0.00    -0.068 C 
BRANCH  21  22
ATOM     22  C   UNL     1      -0.552  -8.088   2.182  0.00  0.00    +0.087 C 
ATOM     23  C   UNL     1      -1.060  -8.673   3.504  0.00  0.00    +0.042 C 
ATOM     24  C   UNL     1      -1.631  -7.679   4.502  0.00  0.00    +0.016 C 
ATOM     25  C   UNL     1      -1.933  -8.473   5.778  0.00  0.00    +0.021 C 
ATOM     26  C   UNL     1      -2.509  -7.579   6.849  0.00  0.00    -0.073 C 
ATOM     27  C   UNL     1      -2.784  -6.320   6.610  0.00  0.00    +0.008 C 
ATOM     28  C   UNL     1      -2.758  -8.196   8.210  0.00  0.00    +0.030 C 
ATOM     29  C   UNL     1      -1.488  -8.913   8.675  0.00  0.00    +0.005 C 
ATOM     30  C   UNL     1      -1.019  -9.903   7.603  0.00  0.00    +0.007 C 
ATOM     31  C   UNL     1      -0.670  -9.121   6.341  0.00  0.00    -0.022 C 
ATOM     32  C   UNL     1      -0.002 -10.031   5.304  0.00  0.00    +0.052 C 
ATOM     33  C   UNL     1       0.287  -9.197   4.079  0.00  0.00    +0.181 C 
ATOM     34  O   UNL     1       0.887  -9.789   2.938  0.00  0.00    -0.461 OA
ATOM     35  C   UNL     1       0.711  -8.904   1.909  0.00  0.00    +0.309 C 
ATOM     36  O   UNL     1       1.432  -8.785   0.947  0.00  0.00    -0.251 OA
ATOM     37  C   UNL     1       0.321  -8.012   6.702  0.00  0.00    +0.012 C 
ENDBRANCH  21  22
ENDBRANCH   1  21
TORSDOF 4
