REMARK  Name = ZINC39609169
REMARK  10 active torsions:
REMARK  status: ('A' for Active; 'I' for Inactive)
REMARK    1  A    between atoms: C_1  and  C_2
REMARK    2  A    between atoms: C_5  and  C_9
REMARK    3  A    between atoms: C_7  and  C_8
REMARK    4  A    between atoms: C_9  and  C_10
REMARK    5  A    between atoms: C_10  and  N_11
REMARK    6  A    between atoms: C_12  and  C_14
REMARK    7  A    between atoms: C_25  and  C_27
REMARK    8  A    between atoms: C_32  and  O_33
REMARK    9  A    between atoms: O_33  and  C_34
REMARK   10  A    between atoms: C_34  and  C_36
REMARK                            x       y       z     vdW  Elec       q    Type
REMARK                         _______ _______ _______ _____ _____    ______ ____
ROOT
ATOM      1  C   UNL     1       3.052  -8.017  -0.178  0.00  0.00    +0.100 C 
ATOM      2  C   UNL     1       2.147  -8.636  -1.266  0.00  0.00    +0.121 C 
ATOM      3  N   UNL     1       3.083  -9.065  -2.332  0.00  0.00    -0.296 N 
ATOM      4  C   UNL     1       4.252  -9.610  -1.599  0.00  0.00    +0.115 C 
ATOM      5  C   UNL     1       4.431  -8.661  -0.397  0.00  0.00    -0.004 C 
ATOM      6  C   UNL     1       4.849  -9.450   0.840  0.00  0.00    -0.010 C 
ATOM      7  C   UNL     1       6.248 -10.032   0.620  0.00  0.00    -0.082 C 
ATOM      8  N   UNL     1       7.199  -8.943   0.365  0.00  0.00    +0.379 N 
ATOM      9  C   UNL     1       6.843  -8.248  -0.878  0.00  0.00    -0.082 C 
ATOM     10  C   UNL     1       5.469  -7.590  -0.721  0.00  0.00    -0.010 C 
ATOM     11  C   UNL     1       2.911  -8.980  -3.666  0.00  0.00    +0.250 C 
ATOM     12  O   UNL     1       3.736  -9.464  -4.417  0.00  0.00    -0.270 OA
ATOM     13  H   UNL     1       7.174  -8.290   1.133  0.00  0.00    -0.086 HD
ATOM     14  H   UNL     1       8.130  -9.324   0.281  0.00  0.00    -0.086 HD
ENDROOT
BRANCH  11  15
ATOM     15  C   UNL     1       1.722  -8.299  -4.215  0.00  0.00    +0.079 A 
ATOM     16  C   UNL     1       0.496  -8.385  -3.552  0.00  0.00    +0.017 A 
ATOM     17  C   UNL     1      -0.611  -7.747  -4.070  0.00  0.00    +0.001 A 
ATOM     18  C   UNL     1      -0.513  -7.020  -5.245  0.00  0.00    +0.004 A 
ATOM     19  C   UNL     1       0.694  -6.927  -5.910  0.00  0.00    +0.047 A 
ATOM     20  C   UNL     1       1.819  -7.559  -5.400  0.00  0.00    +0.144 A 
BRANCH  20  21
ATOM     21  O   UNL     1       3.007  -7.464  -6.050  0.00  0.00    -0.425 OA
BRANCH  21  22
ATOM     22  C   UNL     1       3.854  -6.492  -5.676  0.00  0.00    +0.309 C 
ATOM     23  O   UNL     1       3.590  -5.792  -4.728  0.00  0.00    -0.251 OA
ATOM     24  C   UNL     1       5.135  -6.274  -6.439  0.00  0.00    +0.136 C 
ENDBRANCH  21  22
ENDBRANCH  20  21
ENDBRANCH  11  15
BRANCH   1  26
ATOM     25  N   UNL     1       3.331  -5.728   0.718  0.00  0.00    -0.315 N 
ATOM     26  C   UNL     1       3.137  -6.523  -0.353  0.00  0.00    +0.218 C 
ATOM     27  O   UNL     1       3.030  -6.035  -1.459  0.00  0.00    -0.275 OA
ATOM     28  H   UNL     1       3.417  -6.118   1.602  0.00  0.00    +0.149 HD
BRANCH  25  29
ATOM     29  C   UNL     1       3.413  -4.276   0.547  0.00  0.00    +0.109 C 
BRANCH  29  30
ATOM     30  C   UNL     1       3.636  -3.614   1.908  0.00  0.00    +0.054 C 
BRANCH  30  35
ATOM     31  C   UNL     1       3.961   2.117   1.238  0.00  0.00    +0.044 C 
ATOM     32  C   UNL     1       3.876   0.622   1.412  0.00  0.00    -0.048 A 
ATOM     33  C   UNL     1       2.652   0.022   1.644  0.00  0.00    +0.004 A 
ATOM     34  C   UNL     1       2.575  -1.349   1.804  0.00  0.00    +0.004 A 
ATOM     35  C   UNL     1       3.720  -2.119   1.733  0.00  0.00    -0.046 A 
ATOM     36  C   UNL     1       4.944  -1.519   1.501  0.00  0.00    +0.007 A 
ATOM     37  C   UNL     1       5.021  -0.149   1.336  0.00  0.00    -0.047 A 
ATOM     38  C   UNL     1       6.354   0.505   1.078  0.00  0.00    +0.044 C 
ENDBRANCH  30  35
ENDBRANCH  29  30
ENDBRANCH  25  29
ENDBRANCH   1  26
TORSDOF 7
