REMARK  Name = ZINC28249963
REMARK  10 active torsions:
REMARK  status: ('A' for Active; 'I' for Inactive)
REMARK    1  A    between atoms: C_1  and  C_2
REMARK    2  A    between atoms: C_7  and  N_8
REMARK    3  A    between atoms: C_9  and  C_11
REMARK    4  A    between atoms: C_13  and  C_33
REMARK    5  A    between atoms: C_15  and  C_23
REMARK    6  A    between atoms: C_17  and  C_21
REMARK    7  A    between atoms: C_17  and  O_22
REMARK    8  A    between atoms: N_25  and  C_26
REMARK    9  A    between atoms: C_31  and  C_32
REMARK   10  A    between atoms: C_34  and  C_38
REMARK                            x       y       z     vdW  Elec       q    Type
REMARK                         _______ _______ _______ _____ _____    ______ ____
ROOT
ATOM      1  C   UNL     1      -4.265   1.849   0.855  0.00  0.00    +0.150 C 
ATOM      2  C   UNL     1      -2.787   1.575   0.558  0.00  0.00    +0.060 C 
ATOM      3  C   UNL     1      -2.156   2.819  -0.070  0.00  0.00    +0.116 C 
ATOM      4  C   UNL     1      -2.819   3.113  -1.417  0.00  0.00    +0.082 C 
ATOM      5  C   UNL     1      -4.299   3.445  -1.194  0.00  0.00    +0.110 C 
ATOM      6  C   UNL     1      -4.934   2.311  -0.420  0.00  0.00    +0.149 C 
ATOM      7  O   UNL     1      -5.951   1.788  -0.811  0.00  0.00    -0.296 OA
ATOM      8  C   UNL     1      -2.123   4.304  -2.079  0.00  0.00    +0.042 C 
ENDROOT
BRANCH   2   9
ATOM      9  C   UNL     1      -2.070   1.242   1.841  0.00  0.00    -0.002 A 
ATOM     10  C   UNL     1      -1.553   0.056   2.246  0.00  0.00    -0.040 A 
ATOM     11  C   UNL     1      -0.930  -0.018   3.478  0.00  0.00    +0.011 A 
ATOM     12  C   UNL     1      -0.855   1.098   4.244  0.00  0.00    +0.046 A 
ATOM     13  S   UNL     1      -1.675   2.307   3.218  0.00  0.00    -0.101 S 
ATOM     14  C   UNL     1      -1.654  -1.163   1.366  0.00  0.00    +0.044 C 
ENDBRANCH   2   9
BRANCH   1  16
ATOM     15  N   UNL     1      -4.570   2.583   3.197  0.00  0.00    -0.285 N 
ATOM     16  C   UNL     1      -4.384   2.922   1.906  0.00  0.00    +0.228 C 
ATOM     17  O   UNL     1      -4.313   4.091   1.590  0.00  0.00    -0.275 OA
ATOM     18  H   UNL     1      -4.612   1.523   3.487  0.00  0.00    +0.155 HD
BRANCH  15  25
ATOM     19  C   UNL     1      -6.153   2.012   5.491  0.00  0.00    +0.045 C 
ATOM     20  C   UNL     1      -5.473   3.343   5.304  0.00  0.00    -0.029 A 
ATOM     21  C   UNL     1      -5.604   4.328   6.265  0.00  0.00    +0.005 A 
ATOM     22  C   UNL     1      -4.985   5.552   6.091  0.00  0.00    +0.000 A 
ATOM     23  C   UNL     1      -4.228   5.793   4.959  0.00  0.00    +0.002 A 
ATOM     24  C   UNL     1      -4.089   4.811   3.998  0.00  0.00    +0.023 A 
ATOM     25  C   UNL     1      -4.709   3.580   4.169  0.00  0.00    +0.036 A 
ENDBRANCH  15  25
ENDBRANCH   1  16
BRANCH   3  26
ATOM     26  C   UNL     1      -0.682   2.582  -0.278  0.00  0.00    +0.224 C 
ATOM     27  O   UNL     1      -0.265   1.454  -0.428  0.00  0.00    -0.275 OA
ATOM     28  N   UNL     1       0.171   3.626  -0.304  0.00  0.00    -0.285 N 
ATOM     29  H   UNL     1      -0.214   4.653  -0.224  0.00  0.00    +0.155 HD
BRANCH  28  30
ATOM     30  C   UNL     1       1.546   3.402  -0.433  0.00  0.00    +0.036 A 
ATOM     31  C   UNL     1       2.010   2.197  -0.946  0.00  0.00    +0.023 A 
ATOM     32  C   UNL     1       3.367   1.981  -1.077  0.00  0.00    +0.002 A 
ATOM     33  C   UNL     1       4.265   2.958  -0.688  0.00  0.00    +0.000 A 
ATOM     34  C   UNL     1       3.807   4.156  -0.171  0.00  0.00    +0.005 A 
ATOM     35  C   UNL     1       2.450   4.381  -0.043  0.00  0.00    -0.029 A 
ATOM     36  C   UNL     1       1.951   5.687   0.519  0.00  0.00    +0.045 C 
ENDBRANCH  28  30
ENDBRANCH   3  26
BRANCH   4  37
ATOM     37  O   UNL     1      -2.710   1.966  -2.262  0.00  0.00    -0.388 OA
ATOM     38  H   UNL     1      -3.132   1.990  -3.278  0.00  0.00    +0.210 HD
ENDBRANCH   4  37
TORSDOF 6
