REMARK  Name = ZINC63376319
REMARK  7 active torsions:
REMARK  status: ('A' for Active; 'I' for Inactive)
REMARK    1  A    between atoms: C_6  and  N_7
REMARK    2  A    between atoms: C_8  and  C_10
REMARK    3  A    between atoms: C_10  and  C_11
REMARK    4  A    between atoms: C_11  and  C_12
REMARK    5  A    between atoms: N_16  and  C_20
REMARK    6  A    between atoms: C_20  and  C_21
REMARK    7  A    between atoms: C_21  and  C_22
REMARK                            x       y       z     vdW  Elec       q    Type
REMARK                         _______ _______ _______ _____ _____    ______ ____
ROOT
ATOM      1  C   UNL     1      -6.141  -0.659   0.479  0.00  0.00    +0.161 C 
ATOM      2  C   UNL     1      -7.316   0.280   0.666  0.00  0.00    +0.243 C 
ATOM      3  O   UNL     1      -7.494   1.056   1.581  0.00  0.00    -0.273 OA
ATOM      4  N   UNL     1      -8.120   0.074  -0.395  0.00  0.00    -0.224 N 
ATOM      5  C   UNL     1      -7.622  -0.855  -1.218  0.00  0.00    +0.309 C 
ATOM      6  O   UNL     1      -8.168  -1.212  -2.244  0.00  0.00    -0.252 OA
ATOM      7  N   UNL     1      -6.447  -1.354  -0.783  0.00  0.00    -0.288 N 
ATOM      8  H   UNL     1      -5.907  -2.034  -1.216  0.00  0.00    +0.151 HD
ENDROOT
BRANCH   1   9
ATOM      9  C   UNL     1      -4.835   0.129   0.358  0.00  0.00    +0.041 C 
BRANCH   9  10
ATOM     10  C   UNL     1      -3.661  -0.845   0.242  0.00  0.00    +0.098 C 
BRANCH  10  12
ATOM     11  N   UNL     1      -1.201  -0.721   0.008  0.00  0.00    -0.285 N 
ATOM     12  C   UNL     1      -2.375  -0.068   0.122  0.00  0.00    +0.217 C 
ATOM     13  O   UNL     1      -2.396   1.145   0.129  0.00  0.00    -0.275 OA
ATOM     14  H   UNL     1      -1.190  -1.688  -0.075  0.00  0.00    +0.155 HD
BRANCH  11  20
ATOM     15  C   UNL     1       0.120   1.155   0.762  0.00  0.00    +0.027 A 
ATOM     16  C   UNL     1       1.307   1.863   0.761  0.00  0.00    +0.051 A 
ATOM     17  C   UNL     1       2.383   1.419   0.007  0.00  0.00    +0.162 A 
ATOM     18  C   UNL     1       2.268   0.257  -0.747  0.00  0.00    +0.164 A 
ATOM     19  C   UNL     1       1.077  -0.453  -0.747  0.00  0.00    +0.072 A 
ATOM     20  C   UNL     1       0.002  -0.004   0.008  0.00  0.00    +0.037 A 
ATOM     21  O   UNL     1       3.316  -0.199  -1.487  0.00  0.00    -0.485 OA
ATOM     22  C   UNL     1       4.367   0.734  -1.758  0.00  0.00    +0.270 C 
ATOM     23  C   UNL     1       4.716   1.458  -0.451  0.00  0.00    +0.270 C 
ATOM     24  O   UNL     1       3.542   2.132   0.016  0.00  0.00    -0.485 OA
ENDBRANCH  11  20
ENDBRANCH  10  12
ENDBRANCH   9  10
ENDBRANCH   1   9
BRANCH   4  25
ATOM     25  C   UNL     1      -9.384   0.780  -0.619  0.00  0.00    +0.122 C 
BRANCH  25  26
ATOM     26  C   UNL     1      -9.121   2.052  -1.429  0.00  0.00    +0.052 C 
BRANCH  26  27
ATOM     27  C   UNL     1     -10.421   2.778  -1.660  0.00  0.00    -0.040 C 
ATOM     28  C   UNL     1     -10.928   3.792  -0.922  0.00  0.00    +0.000 A 
ATOM     29  C   UNL     1     -10.441   4.494   0.271  0.00  0.00    +0.030 A 
ATOM     30  C   UNL     1     -11.188   5.492   0.797  0.00  0.00    +0.042 A 
ATOM     31  C   UNL     1     -12.415   5.870   0.232  0.00  0.00    +0.022 A 
ATOM     32  C   UNL     1     -12.928   5.271  -0.863  0.00  0.00    +0.027 A 
ATOM     33  C   UNL     1     -12.226   4.210  -1.499  0.00  0.00    +0.043 A 
ATOM     34  N   UNL     1     -12.510   3.484  -2.552  0.00  0.00    -0.380 N 
ATOM     35  C   UNL     1     -11.420   2.525  -2.767  0.00  0.00    +0.144 C 
ATOM     36 CL   UNL     1     -10.614   6.325   2.208  0.00  0.00    -0.084 Cl
ATOM     37  H   UNL     1     -13.305   3.568  -3.101  0.00  0.00    +0.160 HD
ENDBRANCH  26  27
ENDBRANCH  25  26
ENDBRANCH   4  25
TORSDOF 7
