REMARK  Name = ZINC26967436
REMARK  9 active torsions:
REMARK  status: ('A' for Active; 'I' for Inactive)
REMARK    1  A    between atoms: C_1  and  C_2
REMARK    2  A    between atoms: C_2  and  C_3
REMARK    3  A    between atoms: C_2  and  C_4
REMARK    4  A    between atoms: N_6  and  C_7
REMARK    5  A    between atoms: C_7  and  C_9
REMARK    6  A    between atoms: C_7  and  O_13
REMARK    7  A    between atoms: O_13  and  C_14
REMARK    8  A    between atoms: C_17  and  C_20
REMARK    9  A    between atoms: N_21  and  C_22
REMARK                            x       y       z     vdW  Elec       q    Type
REMARK                         _______ _______ _______ _____ _____    ______ ____
ROOT
ATOM      1  C   UNL     1       1.178   1.977  -0.086  0.00  0.00    +0.123 A 
ATOM      2  C   UNL     1      -0.070   1.377  -0.205  0.00  0.00    +0.046 A 
ATOM      3  C   UNL     1      -1.213   2.144  -0.143  0.00  0.00    +0.013 A 
ATOM      4  C   UNL     1      -1.117   3.525   0.050  0.00  0.00    -0.009 A 
ATOM      5  C   UNL     1       0.141   4.123   0.169  0.00  0.00    +0.013 A 
ATOM      6  C   UNL     1       1.278   3.350   0.101  0.00  0.00    +0.046 A 
ENDROOT
BRANCH   4   7
ATOM      7  C   UNL     1      -2.337   4.348   0.122  0.00  0.00    +0.086 C 
ATOM      8  N   UNL     1      -3.501   3.792   0.012  0.00  0.00    -0.385 N 
ATOM      9  H   UNL     1      -3.579   2.705  -0.136  0.00  0.00    +0.159 HD
BRANCH   8  10
ATOM     10  C   UNL     1      -4.714   4.610   0.084  0.00  0.00    +0.101 C 
ATOM     11  C   UNL     1      -5.498   4.477  -1.232  0.00  0.00    +0.048 C 
ATOM     12  C   UNL     1      -6.912   5.089  -1.018  0.00  0.00    +0.168 C 
ATOM     13  S   UNL     1      -7.294   4.469   0.675  0.00  0.00    -0.029 S 
ATOM     14  O   UNL     1      -7.998   3.239   0.569  0.00  0.00    -0.174 OA
ATOM     15  O   UNL     1      -7.849   5.530   1.441  0.00  0.00    -0.174 OA
ATOM     16  C   UNL     1      -5.587   4.133   1.269  0.00  0.00    +0.190 C 
ENDBRANCH   8  10
ENDBRANCH   4   7
BRANCH   1  17
ATOM     17  O   UNL     1       2.302   1.218  -0.153  0.00  0.00    -0.467 OA
BRANCH  17  18
ATOM     18  C   UNL     1       3.552   1.909  -0.132  0.00  0.00    +0.313 C 
BRANCH  18  21
ATOM     19  C   UNL     1       4.683   1.692  -2.279  0.00  0.00    +0.218 C 
ATOM     20  O   UNL     1       4.002   2.603  -2.699  0.00  0.00    -0.275 OA
ATOM     21  N   UNL     1       4.498   1.235  -1.025  0.00  0.00    -0.277 N 
ATOM     22  H   UNL     1       5.056   0.356  -0.672  0.00  0.00    +0.152 HD
BRANCH  19  24
ATOM     23  C   UNL     1       5.431  -0.416  -3.350  0.00  0.00    +0.017 C 
ATOM     24  C   UNL     1       5.737   1.071  -3.160  0.00  0.00    +0.069 C 
ATOM     25  C   UNL     1       5.740   1.769  -4.521  0.00  0.00    +0.017 C 
ENDBRANCH  19  24
ENDBRANCH  18  21
BRANCH  18  26
ATOM     26  C   UNL     1       4.110   1.911   1.293  0.00  0.00    +0.244 C 
ATOM     27 CL   UNL     1       4.352   0.212   1.846  0.00  0.00    -0.078 Cl
ATOM     28 CL   UNL     1       5.688   2.783   1.320  0.00  0.00    -0.078 Cl
ATOM     29 CL   UNL     1       2.946   2.741   2.393  0.00  0.00    -0.078 Cl
ENDBRANCH  18  26
ENDBRANCH  17  18
ENDBRANCH   1  17
TORSDOF 7
