REMARK  Name = ZINC39628549
REMARK  9 active torsions:
REMARK  status: ('A' for Active; 'I' for Inactive)
REMARK    1  A    between atoms: C_1  and  C_2
REMARK    2  A    between atoms: N_8  and  C_9
REMARK    3  A    between atoms: C_9  and  C_10
REMARK    4  A    between atoms: C_10  and  C_11
REMARK    5  A    between atoms: C_11  and  N_12
REMARK    6  A    between atoms: C_13  and  C_15
REMARK    7  A    between atoms: C_26  and  C_28
REMARK    8  A    between atoms: C_32  and  O_33
REMARK    9  A    between atoms: O_33  and  C_34
REMARK                            x       y       z     vdW  Elec       q    Type
REMARK                         _______ _______ _______ _____ _____    ______ ____
ROOT
ATOM      1  C   UNL     1       6.777  -0.080   5.314  0.00  0.00    +0.100 C 
ATOM      2  C   UNL     1       6.107   0.602   6.528  0.00  0.00    +0.121 C 
ATOM      3  N   UNL     1       7.228   0.927   7.441  0.00  0.00    -0.296 N 
ATOM      4  C   UNL     1       8.318   1.374   6.541  0.00  0.00    +0.115 C 
ATOM      5  C   UNL     1       8.228   0.430   5.325  0.00  0.00    -0.004 C 
ATOM      6  C   UNL     1       8.530   1.195   4.040  0.00  0.00    -0.010 C 
ATOM      7  C   UNL     1       9.994   1.641   4.049  0.00  0.00    -0.082 C 
ATOM      8  N   UNL     1      10.866   0.465   4.158  0.00  0.00    +0.379 N 
ATOM      9  C   UNL     1      10.635  -0.212   5.440  0.00  0.00    -0.082 C 
ATOM     10  C   UNL     1       9.197  -0.737   5.490  0.00  0.00    -0.010 C 
ATOM     11  C   UNL     1       7.252   0.836   8.785  0.00  0.00    +0.251 C 
ATOM     12  O   UNL     1       6.305   0.355   9.379  0.00  0.00    -0.270 OA
ATOM     13  H   UNL     1      10.665  -0.172   3.402  0.00  0.00    -0.086 HD
ATOM     14  H   UNL     1      11.830   0.757   4.103  0.00  0.00    -0.086 HD
ENDROOT
BRANCH  11  15
ATOM     15  C   UNL     1       8.421   1.319   9.534  0.00  0.00    +0.087 A 
ATOM     16  C   UNL     1       9.140   2.418   9.120  0.00  0.00    +0.063 A 
ATOM     17  S   UNL     1      10.353   2.577  10.268  0.00  0.00    -0.081 S 
ATOM     18  C   UNL     1       9.959   1.206  11.331  0.00  0.00    +0.120 A 
ATOM     19  C   UNL     1       8.868   0.665  10.743  0.00  0.00    +0.158 A 
ATOM     20 CL   UNL     1      10.773   0.691  12.776  0.00  0.00    -0.072 Cl
BRANCH  19  21
ATOM     21  O   UNL     1       8.235  -0.427  11.254  0.00  0.00    -0.492 OA
ATOM     22  C   UNL     1       8.687  -1.707  10.808  0.00  0.00    +0.277 C 
ENDBRANCH  19  21
ENDBRANCH  11  15
BRANCH   1  24
ATOM     23  N   UNL     1       6.213  -0.435   2.932  0.00  0.00    -0.315 N 
ATOM     24  C   UNL     1       6.088   0.327   4.037  0.00  0.00    +0.218 C 
ATOM     25  O   UNL     1       5.421   1.339   4.004  0.00  0.00    -0.275 OA
ATOM     26  H   UNL     1       6.746  -1.244   2.958  0.00  0.00    +0.149 HD
BRANCH  23  27
ATOM     27  C   UNL     1       5.543  -0.039   1.690  0.00  0.00    +0.102 C 
BRANCH  27  28
ATOM     28  C   UNL     1       5.845  -1.067   0.598  0.00  0.00    +0.000 C 
BRANCH  28  29
ATOM     29  C   UNL     1       5.145  -0.654  -0.698  0.00  0.00    -0.077 C 
BRANCH  29  36
ATOM     30  C   UNL     1       3.179  -1.251  -2.612  0.00  0.00    -0.013 C 
ATOM     31  C   UNL     1       4.668  -1.310  -2.954  0.00  0.00    -0.072 C 
ATOM     32  C   UNL     1       4.904  -2.380  -4.022  0.00  0.00    -0.016 C 
ATOM     33  C   UNL     1       6.396  -2.435  -4.362  0.00  0.00    -0.003 C 
ATOM     34  C   UNL     1       7.192  -2.707  -3.082  0.00  0.00    -0.019 C 
ATOM     35  C   UNL     1       6.871  -1.624  -2.049  0.00  0.00    -0.078 C 
ATOM     36  N   UNL     1       5.435  -1.641  -1.747  0.00  0.00    +0.381 N 
ATOM     37  H   UNL     1       5.170  -2.560  -1.424  0.00  0.00    -0.081 HD
ENDBRANCH  29  36
ENDBRANCH  28  29
ENDBRANCH  27  28
ENDBRANCH  23  27
ENDBRANCH   1  24
TORSDOF 7
