REMARK  Name = ZINC08431757
REMARK  11 active torsions:
REMARK  status: ('A' for Active; 'I' for Inactive)
REMARK    1  A    between atoms: C_1  and  C_2
REMARK    2  A    between atoms: C_2  and  C_3
REMARK    3  A    between atoms: C_3  and  C_4
REMARK    4  A    between atoms: C_4  and  C_5
REMARK    5  A    between atoms: C_5  and  O_6
REMARK    6  A    between atoms: O_6  and  C_7
REMARK    7  A    between atoms: C_10  and  C_13
REMARK    8  A    between atoms: C_18  and  C_22
REMARK    9  A    between atoms: C_18  and  C_23
REMARK   10  A    between atoms: C_32  and  C_34
REMARK   11  A    between atoms: C_34  and  C_35
REMARK                            x       y       z     vdW  Elec       q    Type
REMARK                         _______ _______ _______ _____ _____    ______ ____
ROOT
ATOM      1  C   UNL     1       3.226   3.742   1.262  0.00  0.00    +0.147 C 
ATOM      2  C   UNL     1       3.741   2.340   1.485  0.00  0.00    +0.037 C 
ATOM      3  C   UNL     1       3.320   1.235   0.849  0.00  0.00    +0.017 C 
ATOM      4  C   UNL     1       3.904  -0.123   1.203  0.00  0.00    +0.058 C 
ATOM      5  C   UNL     1       5.371   0.030   1.600  0.00  0.00    -0.023 C 
ATOM      6  C   UNL     1       5.431   0.962   2.816  0.00  0.00    +0.086 C 
ATOM      7  C   UNL     1       4.762   2.256   2.462  0.00  0.00    +0.163 C 
ATOM      8  O   UNL     1       5.108   3.270   3.035  0.00  0.00    -0.292 OA
ATOM      9  C   UNL     1       6.160   0.641   0.440  0.00  0.00    +0.011 C 
ATOM     10  C   UNL     1       5.956  -1.336   1.964  0.00  0.00    +0.011 C 
ATOM     11  N   UNL     1       2.369   1.208  -0.119  0.00  0.00    -0.316 N 
ATOM     12  C   UNL     1       1.141   1.853  -0.042  0.00  0.00    +0.053 A 
ATOM     13  C   UNL     1      -0.060   1.164  -0.053  0.00  0.00    +0.025 A 
ATOM     14  C   UNL     1      -1.249   1.873  -0.043  0.00  0.00    +0.002 A 
ATOM     15  C   UNL     1      -1.236   3.256  -0.025  0.00  0.00    +0.002 A 
ATOM     16  C   UNL     1      -0.037   3.946  -0.010  0.00  0.00    +0.025 A 
ATOM     17  C   UNL     1       1.155   3.239   0.001  0.00  0.00    +0.058 A 
ATOM     18  N   UNL     1       2.386   3.891   0.092  0.00  0.00    -0.258 N 
ATOM     19  C   UNL     1       2.800   4.671  -0.926  0.00  0.00    +0.220 C 
ATOM     20  O   UNL     1       3.869   5.241  -0.858  0.00  0.00    -0.275 OA
ATOM     21  H   UNL     1       2.560   0.700  -0.923  0.00  0.00    +0.152 HD
ENDROOT
BRANCH   1  25
ATOM     22  C   UNL     1       0.981   4.924   4.701  0.00  0.00    +0.121 A 
ATOM     23  C   UNL     1       0.552   3.858   3.924  0.00  0.00    +0.046 A 
ATOM     24  C   UNL     1       1.280   3.478   2.813  0.00  0.00    +0.009 A 
ATOM     25  C   UNL     1       2.434   4.159   2.475  0.00  0.00    -0.022 A 
ATOM     26  C   UNL     1       2.866   5.219   3.250  0.00  0.00    +0.009 A 
ATOM     27  C   UNL     1       2.139   5.607   4.359  0.00  0.00    +0.046 A 
BRANCH  22  28
ATOM     28  O   UNL     1       0.267   5.301   5.794  0.00  0.00    -0.492 OA
BRANCH  28  29
ATOM     29  C   UNL     1       0.767   6.407   6.547  0.00  0.00    +0.229 C 
BRANCH  29  30
ATOM     30  C   UNL     1      -0.162   6.681   7.731  0.00  0.00    +0.041 C 
BRANCH  30  31
ATOM     31  C   UNL     1       0.374   7.866   8.537  0.00  0.00    +0.003 C 
BRANCH  31  33
ATOM     32  C   UNL     1      -0.020   9.325  10.526  0.00  0.00    +0.004 C 
ATOM     33  C   UNL     1      -0.556   8.140   9.720  0.00  0.00    -0.003 C 
ENDBRANCH  31  33
ENDBRANCH  30  31
ENDBRANCH  29  30
ENDBRANCH  28  29
ENDBRANCH  22  28
ENDBRANCH   1  25
BRANCH  19  34
ATOM     34  C   UNL     1       1.936   4.834  -2.150  0.00  0.00    +0.093 C 
ATOM     35  C   UNL     1       2.633   5.763  -3.146  0.00  0.00    +0.013 C 
ENDBRANCH  19  34
TORSDOF 7
