REMARK  Name = ZINC39534248
REMARK  11 active torsions:
REMARK  status: ('A' for Active; 'I' for Inactive)
REMARK    1  A    between atoms: C_1  and  O_2
REMARK    2  A    between atoms: O_2  and  C_3
REMARK    3  A    between atoms: N_6  and  C_10
REMARK    4  A    between atoms: C_10  and  C_12
REMARK    5  A    between atoms: C_10  and  C_21
REMARK    6  A    between atoms: C_12  and  N_13
REMARK    7  A    between atoms: N_13  and  C_14
REMARK    8  A    between atoms: C_14  and  C_15
REMARK    9  A    between atoms: C_24  and  S_27
REMARK   10  A    between atoms: S_27  and  O_30
REMARK   11  A    between atoms: O_30  and  C_31
REMARK                            x       y       z     vdW  Elec       q    Type
REMARK                         _______ _______ _______ _____ _____    ______ ____
ROOT
ATOM      1  C   UNL     1       0.873  -4.135   2.318  0.00  0.00    -0.023 C 
ENDROOT
BRANCH   1   4
ATOM      2  C   UNL     1      -0.208  -0.579   1.795  0.00  0.00    +0.169 C 
ATOM      3  C   UNL     1      -0.119  -2.088   1.558  0.00  0.00    -0.030 C 
ATOM      4  N   UNL     1       0.802  -2.684   2.535  0.00  0.00    +0.388 N 
ATOM      5  C   UNL     1       2.139  -2.098   2.371  0.00  0.00    -0.062 C 
ATOM      6  C   UNL     1       2.068  -0.589   2.615  0.00  0.00    +0.065 C 
ATOM      7  N   UNL     1       1.129   0.016   1.660  0.00  0.00    -0.295 NA
ATOM      8  H   UNL     1       1.470  -0.071   0.714  0.00  0.00    +0.124 HD
ATOM      9  H   UNL     1       0.466  -2.500   3.468  0.00  0.00    -0.081 HD
BRANCH   2  11
ATOM     10  C   UNL     1      -1.420   1.368   1.099  0.00  0.00    +0.196 C 
ATOM     11  O   UNL     1      -1.088   0.004   0.832  0.00  0.00    -0.367 OA
ENDBRANCH   2  11
ENDBRANCH   1   4
BRANCH   1  12
ATOM     12  C   UNL     1      -0.518  -4.715   2.335  0.00  0.00    -0.060 A 
ATOM     13  C   UNL     1      -1.448  -4.251   3.246  0.00  0.00    +0.004 A 
ATOM     14  C   UNL     1      -2.724  -4.783   3.262  0.00  0.00    +0.031 A 
ATOM     15  C   UNL     1      -3.070  -5.778   2.367  0.00  0.00    +0.128 A 
ATOM     16  C   UNL     1      -2.139  -6.241   1.455  0.00  0.00    +0.031 A 
ATOM     17  C   UNL     1      -0.865  -5.706   1.437  0.00  0.00    +0.004 A 
BRANCH  15  18
ATOM     18  S   UNL     1      -4.696  -6.456   2.388  0.00  0.00    +0.151 S 
ATOM     19  O   UNL     1      -4.602  -7.753   1.814  0.00  0.00    -0.131 OA
ATOM     20  O   UNL     1      -5.211  -6.236   3.694  0.00  0.00    -0.131 OA
BRANCH  18  21
ATOM     21  O   UNL     1      -5.544  -5.621   1.440  0.00  0.00    -0.342 OA
BRANCH  21  22
ATOM     22  C   UNL     1      -5.304  -5.864   0.124  0.00  0.00    +0.157 A 
ATOM     23  C   UNL     1      -4.333  -5.138  -0.550  0.00  0.00    +0.048 A 
ATOM     24  C   UNL     1      -4.091  -5.387  -1.887  0.00  0.00    +0.004 A 
ATOM     25  C   UNL     1      -4.816  -6.358  -2.553  0.00  0.00    +0.000 A 
ATOM     26  C   UNL     1      -5.785  -7.082  -1.883  0.00  0.00    +0.004 A 
ATOM     27  C   UNL     1      -6.026  -6.841  -0.545  0.00  0.00    +0.048 A 
ENDBRANCH  21  22
ENDBRANCH  18  21
ENDBRANCH  15  18
ENDBRANCH   1  12
BRANCH   1  28
ATOM     28  C   UNL     1       1.707  -4.776   3.429  0.00  0.00    +0.070 C 
BRANCH  28  29
ATOM     29  N   UNL     1       3.104  -4.339   3.308  0.00  0.00    -0.313 NA
ATOM     30  H   UNL     1       3.471  -4.553   2.392  0.00  0.00    +0.122 HD
BRANCH  29  31
ATOM     31  C   UNL     1       3.936  -4.937   4.361  0.00  0.00    +0.116 C 
BRANCH  31  32
ATOM     32  C   UNL     1       5.359  -4.466   4.204  0.00  0.00    -0.034 A 
ATOM     33  C   UNL     1       6.241  -5.182   3.415  0.00  0.00    +0.005 A 
ATOM     34  C   UNL     1       7.546  -4.751   3.271  0.00  0.00    +0.000 A 
ATOM     35  C   UNL     1       7.970  -3.603   3.915  0.00  0.00    +0.000 A 
ATOM     36  C   UNL     1       7.088  -2.887   4.703  0.00  0.00    +0.000 A 
ATOM     37  C   UNL     1       5.782  -3.316   4.844  0.00  0.00    +0.005 A 
ENDBRANCH  31  32
ENDBRANCH  29  31
ENDBRANCH  28  29
ENDBRANCH   1  28
TORSDOF 10
