REMARK  Name = ZINC39483495
REMARK  5 active torsions:
REMARK  status: ('A' for Active; 'I' for Inactive)
REMARK    1  A    between atoms: C_1  and  O_2
REMARK    2  A    between atoms: O_2  and  C_3
REMARK    3  A    between atoms: C_5  and  C_10
REMARK    4  A    between atoms: C_25  and  C_26
REMARK    5  A    between atoms: C_31  and  O_32
REMARK                            x       y       z     vdW  Elec       q    Type
REMARK                         _______ _______ _______ _____ _____    ______ ____
ROOT
ATOM      1  C   UNL     1      -2.556  -4.139   0.016  0.00  0.00    +0.015 C 
ATOM      2  C   UNL     1      -3.747  -4.761   0.126  0.00  0.00    -0.004 C 
ATOM      3  C   UNL     1      -5.016  -3.959   0.132  0.00  0.00    +0.040 C 
ATOM      4  C   UNL     1      -6.143  -4.746  -0.516  0.00  0.00    +0.026 C 
ATOM      5  C   UNL     1      -6.273  -6.145   0.043  0.00  0.00    +0.127 C 
ATOM      6  N   UNL     1      -5.012  -6.867   0.138  0.00  0.00    -0.293 N 
ATOM      7  C   UNL     1      -3.804  -6.225   0.235  0.00  0.00    +0.140 A 
ATOM      8  N   UNL     1      -2.672  -6.875   0.427  0.00  0.00    -0.228 NA
ATOM      9  C   UNL     1      -2.615  -8.212   0.493  0.00  0.00    +0.086 A 
ATOM     10  C   UNL     1      -3.803  -8.960   0.327  0.00  0.00    +0.066 A 
ATOM     11  C   UNL     1      -5.056  -8.226   0.132  0.00  0.00    +0.262 A 
ATOM     12  O   UNL     1      -6.105  -8.818  -0.043  0.00  0.00    -0.267 OA
ATOM     13  C   UNL     1      -3.763 -10.352   0.369  0.00  0.00    +0.015 A 
ATOM     14  C   UNL     1      -2.564 -10.999   0.582  0.00  0.00    +0.001 A 
ATOM     15  C   UNL     1      -1.393 -10.280   0.759  0.00  0.00    +0.011 A 
ATOM     16  C   UNL     1      -1.401  -8.891   0.718  0.00  0.00    +0.012 A 
ENDROOT
BRANCH   1  19
ATOM     17  C   UNL     1      -3.306  -0.572   0.918  0.00  0.00    +0.122 A 
ATOM     18  C   UNL     1      -3.379  -1.954   0.872  0.00  0.00    +0.053 A 
ATOM     19  C   UNL     1      -2.486  -2.670   0.071  0.00  0.00    -0.020 A 
ATOM     20  C   UNL     1      -1.524  -1.985  -0.679  0.00  0.00    +0.028 A 
ATOM     21  C   UNL     1      -1.462  -0.607  -0.624  0.00  0.00    +0.045 A 
ATOM     22  C   UNL     1      -2.352   0.100   0.166  0.00  0.00    +0.065 A 
ATOM     23 CL   UNL     1      -0.268   0.243  -1.555  0.00  0.00    -0.083 Cl
BRANCH  17  25
ATOM     24  C   UNL     1      -4.046   1.551   1.692  0.00  0.00    +0.277 C 
ATOM     25  O   UNL     1      -4.174   0.128   1.696  0.00  0.00    -0.495 OA
ENDBRANCH  17  25
ENDBRANCH   1  19
BRANCH  16  26
ATOM     26  C   UNL     1      -0.144  -8.131   0.910  0.00  0.00    +0.026 A 
ATOM     27  C   UNL     1       0.886  -8.234  -0.023  0.00  0.00    +0.012 A 
ATOM     28  C   UNL     1       2.054  -7.523   0.160  0.00  0.00    +0.001 A 
ATOM     29  C   UNL     1       2.208  -6.708   1.268  0.00  0.00    +0.004 A 
ATOM     30  C   UNL     1       1.193  -6.599   2.200  0.00  0.00    +0.046 A 
ATOM     31  C   UNL     1       0.012  -7.301   2.026  0.00  0.00    +0.125 A 
BRANCH  31  32
ATOM     32  O   UNL     1      -0.988  -7.190   2.938  0.00  0.00    -0.506 OA
ATOM     33  H   UNL     1      -0.938  -7.835   3.658  0.00  0.00    +0.292 HD
ENDBRANCH  31  32
ENDBRANCH  16  26
TORSDOF 4
