REMARK  Name = ZINC38550277
REMARK  11 active torsions:
REMARK  status: ('A' for Active; 'I' for Inactive)
REMARK    1  A    between atoms: C_1  and  C_2
REMARK    2  A    between atoms: C_2  and  O_3
REMARK    3  A    between atoms: O_3  and  C_4
REMARK    4  A    between atoms: C_4  and  C_6
REMARK    5  A    between atoms: C_8  and  N_17
REMARK    6  A    between atoms: C_18  and  C_20
REMARK    7  A    between atoms: C_20  and  N_21
REMARK    8  A    between atoms: C_26  and  O_35
REMARK    9  A    between atoms: C_27  and  O_33
REMARK   10  A    between atoms: C_30  and  C_32
REMARK   11  A    between atoms: O_33  and  C_34
REMARK                            x       y       z     vdW  Elec       q    Type
REMARK                         _______ _______ _______ _____ _____    ______ ____
ROOT
ATOM      1  N   UNL     1      -0.197  -1.370   4.366  0.00  0.00    -0.288 N 
ATOM      2  C   UNL     1      -0.910  -1.626   5.480  0.00  0.00    +0.201 C 
ATOM      3  O   UNL     1      -0.876  -2.730   5.981  0.00  0.00    -0.278 OA
ATOM      4  H   UNL     1      -0.157  -0.467   4.013  0.00  0.00    +0.155 HD
ENDROOT
BRANCH   1   6
ATOM      5  C   UNL     1       0.635  -3.803   4.217  0.00  0.00    +0.234 C 
ATOM      6  C   UNL     1       0.469  -2.378   3.736  0.00  0.00    +0.053 C 
ATOM      7  C   UNL     1       1.133  -2.312   2.524  0.00  0.00    +0.020 A 
ATOM      8  C   UNL     1       1.330  -1.256   1.600  0.00  0.00    +0.050 A 
ATOM      9  C   UNL     1       2.039  -1.481   0.464  0.00  0.00    +0.124 A 
ATOM     10  C   UNL     1       2.585  -2.737   0.178  0.00  0.00    +0.040 A 
ATOM     11  C   UNL     1       2.436  -3.790   1.016  0.00  0.00    +0.029 A 
ATOM     12  C   UNL     1       1.707  -3.634   2.224  0.00  0.00    +0.045 A 
ATOM     13  N   UNL     1       1.424  -4.489   3.189  0.00  0.00    -0.367 N 
ATOM     14  F   UNL     1       2.221  -0.468  -0.410  0.00  0.00    -0.205 F 
ATOM     15  H   UNL     1       1.695  -5.420   3.215  0.00  0.00    +0.161 HD
BRANCH   5  16
ATOM     16  C   UNL     1       1.367  -3.824   5.534  0.00  0.00    +0.336 C 
ATOM     17  O   UNL     1       2.559  -3.629   5.566  0.00  0.00    -0.248 OA
BRANCH  16  18
ATOM     18  O   UNL     1       0.695  -4.060   6.672  0.00  0.00    -0.463 OA
BRANCH  18  20
ATOM     19  C   UNL     1       0.523  -4.349   9.065  0.00  0.00    +0.048 C 
ATOM     20  C   UNL     1       1.453  -4.066   7.883  0.00  0.00    +0.229 C 
ENDBRANCH  18  20
ENDBRANCH  16  18
ENDBRANCH   5  16
ENDBRANCH   1   6
BRANCH   2  21
ATOM     21  C   UNL     1      -1.751  -0.541   6.103  0.00  0.00    +0.020 C 
BRANCH  21  22
ATOM     22  N   UNL     1      -2.425  -1.069   7.297  0.00  0.00    +0.390 N 
ATOM     23  C   UNL     1      -3.385  -2.110   6.901  0.00  0.00    -0.073 C 
ATOM     24  C   UNL     1      -3.844  -2.853   8.156  0.00  0.00    +0.017 C 
ATOM     25  C   UNL     1      -4.300  -1.863   9.197  0.00  0.00    -0.044 A 
ATOM     26  C   UNL     1      -5.067  -2.321  10.258  0.00  0.00    +0.053 A 
ATOM     27  C   UNL     1      -5.501  -1.445  11.236  0.00  0.00    +0.159 A 
ATOM     28  C   UNL     1      -5.165  -0.097  11.152  0.00  0.00    +0.161 A 
ATOM     29  C   UNL     1      -4.402   0.355  10.091  0.00  0.00    +0.051 A 
ATOM     30  C   UNL     1      -3.969  -0.527   9.112  0.00  0.00    -0.054 A 
ATOM     31  C   UNL     1      -3.147   0.014   7.971  0.00  0.00    -0.040 C 
ATOM     32  C   UNL     1      -2.140   1.030   8.513  0.00  0.00    -0.008 C 
ATOM     33  H   UNL     1      -1.740  -1.461   7.926  0.00  0.00    -0.080 HD
BRANCH  28  34
ATOM     34  O   UNL     1      -5.587   0.772  12.110  0.00  0.00    -0.491 OA
ATOM     35  C   UNL     1      -5.204   2.141  11.957  0.00  0.00    +0.277 C 
ENDBRANCH  28  34
BRANCH  27  36
ATOM     36  O   UNL     1      -6.254  -1.899  12.274  0.00  0.00    -0.503 OA
ATOM     37  H   UNL     1      -5.736  -2.184  13.040  0.00  0.00    +0.292 HD
ENDBRANCH  27  36
ENDBRANCH  21  22
ENDBRANCH   2  21
TORSDOF 8
