REMARK  Name = ZINC39623772
REMARK  11 active torsions:
REMARK  status: ('A' for Active; 'I' for Inactive)
REMARK    1  A    between atoms: C_1  and  C_2
REMARK    2  A    between atoms: C_2  and  C_3
REMARK    3  A    between atoms: C_2  and  C_4
REMARK    4  A    between atoms: C_4  and  C_6
REMARK    5  A    between atoms: C_4  and  O_31
REMARK    6  A    between atoms: C_10  and  C_19
REMARK    7  A    between atoms: N_21  and  C_22
REMARK    8  A    between atoms: C_22  and  C_23
REMARK    9  A    between atoms: C_23  and  C_24
REMARK   10  A    between atoms: C_24  and  C_25
REMARK   11  A    between atoms: O_31  and  C_32
REMARK                            x       y       z     vdW  Elec       q    Type
REMARK                         _______ _______ _______ _____ _____    ______ ____
ROOT
ATOM      1  C   UNL     1       0.758  -1.932   1.377  0.00  0.00    +0.257 C 
ATOM      2  O   UNL     1       1.810  -2.533   1.333  0.00  0.00    -0.272 OA
ATOM      3  N   UNL     1      -0.403  -2.611   1.472  0.00  0.00    -0.297 N 
ATOM      4  C   UNL     1      -1.769  -2.057   1.619  0.00  0.00    +0.121 C 
ATOM      5  C   UNL     1      -2.654  -2.960   0.731  0.00  0.00    +0.100 C 
ATOM      6  C   UNL     1      -1.882  -4.286   0.628  0.00  0.00    -0.004 C 
ATOM      7  C   UNL     1      -0.601  -4.080   1.448  0.00  0.00    +0.115 C 
ATOM      8  C   UNL     1      -1.528  -4.581  -0.826  0.00  0.00    -0.010 C 
ATOM      9  C   UNL     1      -0.812  -5.932  -0.909  0.00  0.00    -0.082 C 
ATOM     10  N   UNL     1      -1.685  -6.984  -0.374  0.00  0.00    +0.379 N 
ATOM     11  C   UNL     1      -1.945  -6.742   1.050  0.00  0.00    -0.082 C 
ATOM     12  C   UNL     1      -2.709  -5.426   1.216  0.00  0.00    -0.010 C 
ATOM     13  H   UNL     1      -2.558  -6.983  -0.879  0.00  0.00    -0.086 HD
ATOM     14  H   UNL     1      -1.236  -7.880  -0.485  0.00  0.00    -0.086 HD
ENDROOT
BRANCH   5  15
ATOM     15  C   UNL     1      -3.996  -3.180   1.378  0.00  0.00    +0.218 C 
ATOM     16  O   UNL     1      -4.110  -3.093   2.583  0.00  0.00    -0.275 OA
ATOM     17  N   UNL     1      -5.071  -3.473   0.619  0.00  0.00    -0.315 N 
ATOM     18  H   UNL     1      -4.980  -3.542  -0.344  0.00  0.00    +0.149 HD
BRANCH  17  19
ATOM     19  C   UNL     1      -6.376  -3.686   1.249  0.00  0.00    +0.104 C 
BRANCH  19  20
ATOM     20  C   UNL     1      -7.417  -4.001   0.172  0.00  0.00    +0.023 C 
BRANCH  20  21
ATOM     21  C   UNL     1      -8.780  -4.224   0.830  0.00  0.00    +0.036 C 
BRANCH  21  22
ATOM     22  C   UNL     1      -9.805  -4.534  -0.231  0.00  0.00    -0.047 A 
ATOM     23  C   UNL     1     -10.513  -3.509  -0.828  0.00  0.00    +0.003 A 
ATOM     24  C   UNL     1     -11.453  -3.793  -1.801  0.00  0.00    +0.000 A 
ATOM     25  C   UNL     1     -11.684  -5.103  -2.177  0.00  0.00    +0.000 A 
ATOM     26  C   UNL     1     -10.975  -6.129  -1.580  0.00  0.00    +0.000 A 
ATOM     27  C   UNL     1     -10.032  -5.844  -0.611  0.00  0.00    +0.003 A 
ENDBRANCH  21  22
ENDBRANCH  20  21
ENDBRANCH  19  20
ENDBRANCH  17  19
ENDBRANCH   5  15
BRANCH   1  28
ATOM     28  C   UNL     1       0.748  -0.426   1.324  0.00  0.00    +0.261 C 
BRANCH  28  30
ATOM     29  C   UNL     1      -0.021   1.559   0.015  0.00  0.00    +0.011 C 
ATOM     30  C   UNL     1       0.109   0.034   0.012  0.00  0.00    +0.033 C 
ATOM     31  C   UNL     1       0.986  -0.401  -1.163  0.00  0.00    +0.011 C 
ENDBRANCH  28  30
BRANCH  28  32
ATOM     32  O   UNL     1       2.089   0.062   1.397  0.00  0.00    -0.479 OA
BRANCH  32  33
ATOM     33  C   UNL     1       2.282   1.241   2.045  0.00  0.00    +0.122 A 
ATOM     34  C   UNL     1       1.220   1.867   2.681  0.00  0.00    +0.045 A 
ATOM     35  C   UNL     1       1.419   3.064   3.340  0.00  0.00    +0.004 A 
ATOM     36  C   UNL     1       2.676   3.640   3.366  0.00  0.00    +0.000 A 
ATOM     37  C   UNL     1       3.736   3.018   2.733  0.00  0.00    +0.004 A 
ATOM     38  C   UNL     1       3.544   1.817   2.078  0.00  0.00    +0.045 A 
ENDBRANCH  32  33
ENDBRANCH  28  32
ENDBRANCH   1  28
TORSDOF 9
