REMARK  Name = ZINC11096307
REMARK  16 active torsions:
REMARK  status: ('A' for Active; 'I' for Inactive)
REMARK    1  A    between atoms: C_1  and  C_2
REMARK    2  A    between atoms: C_3  and  N_15
REMARK    3  A    between atoms: N_6  and  C_9
REMARK    4  A    between atoms: N_7  and  C_8
REMARK    5  A    between atoms: C_16  and  C_18
REMARK    6  A    between atoms: C_18  and  C_20
REMARK    7  A    between atoms: C_18  and  N_71
REMARK    8  A    between atoms: C_21  and  C_23
REMARK    9  A    between atoms: C_21  and  C_33
REMARK   10  A    between atoms: C_21  and  N_71
REMARK   11  A    between atoms: C_26  and  C_29
REMARK   12  A    between atoms: C_29  and  C_30
REMARK   13  A    between atoms: C_29  and  C_31
REMARK   14  A    between atoms: C_29  and  C_32
REMARK   15  A    between atoms: C_33  and  C_34
REMARK   16  A    between atoms: C_33  and  C_35
REMARK                            x       y       z     vdW  Elec       q    Type
REMARK                         _______ _______ _______ _____ _____    ______ ____
ROOT
ATOM      1  C   UNL     1      -4.604   0.531  -0.700  0.00  0.00    +0.014 C 
ATOM      2  C   UNL     1      -3.729   1.231   0.342  0.00  0.00    -0.004 C 
ENDROOT
BRANCH   1   4
ATOM      3  N   UNL     1      -4.317   2.308  -2.395  0.00  0.00    -0.281 N 
ATOM      4  C   UNL     1      -4.219   1.002  -2.078  0.00  0.00    +0.203 C 
ATOM      5  O   UNL     1      -3.821   0.206  -2.902  0.00  0.00    -0.277 OA
ATOM      6  H   UNL     1      -4.705   2.933  -1.763  0.00  0.00    +0.155 HD
BRANCH   3   9
ATOM      7  C   UNL     1      -6.050   3.760  -4.470  0.00  0.00    +0.067 C 
ATOM      8  C   UNL     1      -4.589   3.409  -4.584  0.00  0.00    +0.059 A 
ATOM      9  C   UNL     1      -3.857   2.766  -3.646  0.00  0.00    +0.121 A 
ATOM     10  C   UNL     1      -2.497   2.639  -4.170  0.00  0.00    +0.293 A 
ATOM     11  O   UNL     1      -1.550   2.118  -3.609  0.00  0.00    -0.264 OA
ATOM     12  N   UNL     1      -2.493   3.203  -5.395  0.00  0.00    -0.216 N 
ATOM     13  N   UNL     1      -3.783   3.681  -5.657  0.00  0.00    -0.282 N 
ATOM     14  C   UNL     1      -4.203   4.362  -6.884  0.00  0.00    +0.171 C 
BRANCH  12  15
ATOM     15  C   UNL     1      -1.394   3.294  -6.254  0.00  0.00    +0.067 A 
ATOM     16  C   UNL     1      -1.555   3.080  -7.617  0.00  0.00    +0.028 A 
ATOM     17  C   UNL     1      -0.468   3.176  -8.463  0.00  0.00    +0.002 A 
ATOM     18  C   UNL     1       0.782   3.474  -7.954  0.00  0.00    +0.000 A 
ATOM     19  C   UNL     1       0.948   3.683  -6.597  0.00  0.00    +0.002 A 
ATOM     20  C   UNL     1      -0.137   3.594  -5.746  0.00  0.00    +0.028 A 
ENDBRANCH  12  15
ENDBRANCH   3   9
ENDBRANCH   1   4
BRANCH   1  21
ATOM     21  N   UNL     1      -4.400  -0.927  -0.603  0.00  0.00    +0.391 N 
ATOM     22  H   UNL     1      -4.292  -1.189   0.385  0.00  0.00    -0.084 HD
ATOM     23  H   UNL     1      -3.552  -1.185  -1.120  0.00  0.00    -0.084 HD
BRANCH  21  24
ATOM     24  C   UNL     1      -5.555  -1.645  -1.173  0.00  0.00    -0.037 C 
BRANCH  24  25
ATOM     25  C   UNL     1      -5.137  -3.048  -1.533  0.00  0.00    -0.061 A 
ATOM     26  C   UNL     1      -4.288  -3.751  -0.699  0.00  0.00    +0.002 A 
ATOM     27  C   UNL     1      -3.909  -5.039  -1.027  0.00  0.00    +0.004 A 
ATOM     28  C   UNL     1      -4.370  -5.620  -2.193  0.00  0.00    -0.042 A 
ATOM     29  C   UNL     1      -5.214  -4.915  -3.030  0.00  0.00    +0.004 A 
ATOM     30  C   UNL     1      -5.598  -3.628  -2.699  0.00  0.00    +0.002 A 
BRANCH  28  31
ATOM     31  C   UNL     1      -3.952  -7.023  -2.553  0.00  0.00    -0.013 C 
ATOM     32  C   UNL     1      -3.215  -7.007  -3.894  0.00  0.00    +0.015 C 
ATOM     33  C   UNL     1      -3.024  -7.572  -1.468  0.00  0.00    +0.015 C 
ATOM     34  C   UNL     1      -5.192  -7.912  -2.663  0.00  0.00    +0.015 C 
ENDBRANCH  28  31
ENDBRANCH  24  25
BRANCH  24  35
ATOM     35  C   UNL     1      -6.684  -1.699  -0.141  0.00  0.00    -0.027 C 
ATOM     36  C   UNL     1      -7.929  -2.318  -0.779  0.00  0.00    +0.006 C 
ATOM     37  C   UNL     1      -6.245  -2.550   1.052  0.00  0.00    +0.006 C 
ENDBRANCH  24  35
ENDBRANCH  21  24
ENDBRANCH   1  21
TORSDOF 8
