REMARK  Name = ZINC15015754
REMARK  8 active torsions:
REMARK  status: ('A' for Active; 'I' for Inactive)
REMARK    1  A    between atoms: C_1  and  O_2
REMARK    2  A    between atoms: O_2  and  C_3
REMARK    3  A    between atoms: C_5  and  C_12
REMARK    4  A    between atoms: C_8  and  O_9
REMARK    5  A    between atoms: O_9  and  C_10
REMARK    6  A    between atoms: C_24  and  S_27
REMARK    7  A    between atoms: S_27  and  C_28
REMARK    8  A    between atoms: C_28  and  C_29
REMARK                            x       y       z     vdW  Elec       q    Type
REMARK                         _______ _______ _______ _____ _____    ______ ____
ROOT
ATOM      1  C   UNL     1       2.393   0.380  -4.236  0.00  0.00    +0.295 C 
ATOM      2  N   UNL     1       2.439   1.773  -3.802  0.00  0.00    -0.305 N 
ATOM      3  C   UNL     1       1.261   2.522  -3.818  0.00  0.00    +0.039 A 
ATOM      4  C   UNL     1       0.645   2.923  -2.647  0.00  0.00    +0.024 A 
ATOM      5  C   UNL     1      -0.535   3.641  -2.700  0.00  0.00    +0.002 A 
ATOM      6  C   UNL     1      -1.105   3.964  -3.920  0.00  0.00    +0.001 A 
ATOM      7  C   UNL     1      -0.498   3.578  -5.099  0.00  0.00    +0.012 A 
ATOM      8  C   UNL     1       0.691   2.861  -5.060  0.00  0.00    +0.028 A 
ATOM      9  C   UNL     1       1.383   2.441  -6.296  0.00  0.00    +0.156 A 
ATOM     10  C   UNL     1       1.836   1.108  -6.425  0.00  0.00    +0.248 A 
ATOM     11  N   UNL     1       2.462   0.754  -7.535  0.00  0.00    -0.184 NA
ATOM     12  C   UNL     1       2.644   1.657  -8.495  0.00  0.00    +0.213 A 
ATOM     13  N   UNL     1       2.208   2.902  -8.356  0.00  0.00    -0.122 NA
ATOM     14  N   UNL     1       1.594   3.289  -7.291  0.00  0.00    -0.141 NA
ATOM     15  O   UNL     1       1.623   0.223  -5.423  0.00  0.00    -0.449 OA
ATOM     16  H   UNL     1       3.272   2.171  -3.506  0.00  0.00    +0.150 HD
ENDROOT
BRANCH   1  19
ATOM     17  C   UNL     1      -0.126  -1.540  -2.176  0.00  0.00    +0.162 A 
ATOM     18  C   UNL     1       0.439  -0.777  -3.186  0.00  0.00    +0.059 A 
ATOM     19  C   UNL     1       1.782  -0.455  -3.140  0.00  0.00    +0.033 A 
ATOM     20  C   UNL     1       2.569  -0.904  -2.094  0.00  0.00    +0.053 A 
ATOM     21  C   UNL     1       2.012  -1.671  -1.086  0.00  0.00    +0.069 A 
ATOM     22  C   UNL     1       0.665  -1.991  -1.124  0.00  0.00    +0.163 A 
ATOM     23 CL   UNL     1       4.257  -0.503  -2.046  0.00  0.00    -0.083 Cl
BRANCH  17  25
ATOM     24  C   UNL     1      -2.199  -1.355  -3.327  0.00  0.00    +0.277 C 
ATOM     25  O   UNL     1      -1.449  -1.852  -2.217  0.00  0.00    -0.491 OA
ENDBRANCH  17  25
BRANCH  22  26
ATOM     26  O   UNL     1       0.116  -2.745  -0.134  0.00  0.00    -0.491 OA
ATOM     27  C   UNL     1       0.987  -3.173   0.915  0.00  0.00    +0.277 C 
ENDBRANCH  22  26
ENDBRANCH   1  19
BRANCH  12  28
ATOM     28  S   UNL     1       3.479   1.191  -9.975  0.00  0.00    -0.080 S 
BRANCH  28  29
ATOM     29  C   UNL     1       3.431   2.763 -10.871  0.00  0.00    +0.115 C 
BRANCH  29  30
ATOM     30  C   UNL     1       4.108   2.600 -12.207  0.00  0.00    -0.002 A 
ATOM     31  C   UNL     1       3.373   2.213 -13.312  0.00  0.00    +0.007 A 
ATOM     32  C   UNL     1       3.993   2.065 -14.538  0.00  0.00    +0.000 A 
ATOM     33  C   UNL     1       5.350   2.303 -14.661  0.00  0.00    +0.003 A 
ATOM     34  C   UNL     1       6.087   2.690 -13.558  0.00  0.00    +0.038 A 
ATOM     35  C   UNL     1       5.465   2.844 -12.330  0.00  0.00    +0.127 A 
ATOM     36  F   UNL     1       6.184   3.227 -11.252  0.00  0.00    -0.205 F 
ENDBRANCH  29  30
ENDBRANCH  28  29
ENDBRANCH  12  28
TORSDOF 6
