REMARK  Name = ZINC12042562
REMARK  9 active torsions:
REMARK  status: ('A' for Active; 'I' for Inactive)
REMARK    1  A    between atoms: C_1  and  C_2
REMARK    2  A    between atoms: C_5  and  S_8
REMARK    3  A    between atoms: S_8  and  N_11
REMARK    4  A    between atoms: N_13  and  C_31
REMARK    5  A    between atoms: C_16  and  C_19
REMARK    6  A    between atoms: C_19  and  C_20
REMARK    7  A    between atoms: N_22  and  C_23
REMARK    8  A    between atoms: C_27  and  O_29
REMARK    9  A    between atoms: O_29  and  C_30
REMARK                            x       y       z     vdW  Elec       q    Type
REMARK                         _______ _______ _______ _____ _____    ______ ____
ROOT
ATOM      1  N   UNL     1       1.555  -5.180   1.086  0.00  0.00    -0.105 NA
ATOM      2  C   UNL     1       1.902  -6.354   0.642  0.00  0.00    +0.189 C 
ATOM      3  N   UNL     1       1.087  -7.358   0.150  0.00  0.00    -0.217 N 
ATOM      4  C   UNL     1       1.566  -8.514  -0.274  0.00  0.00    +0.239 C 
ATOM      5  O   UNL     1       0.847  -9.390  -0.705  0.00  0.00    -0.274 OA
ATOM      6  C   UNL     1       3.075  -8.678  -0.188  0.00  0.00    +0.149 C 
ATOM      7  S   UNL     1       3.545  -7.045   0.519  0.00  0.00    -0.075 S 
ENDROOT
BRANCH   3   8
ATOM      8  C   UNL     1      -0.296  -7.140   0.099  0.00  0.00    +0.043 A 
ATOM      9  C   UNL     1      -0.876  -6.609  -1.045  0.00  0.00    +0.024 A 
ATOM     10  C   UNL     1      -2.240  -6.396  -1.092  0.00  0.00    +0.002 A 
ATOM     11  C   UNL     1      -3.028  -6.710  -0.001  0.00  0.00    +0.000 A 
ATOM     12  C   UNL     1      -2.454  -7.239   1.141  0.00  0.00    +0.002 A 
ATOM     13  C   UNL     1      -1.091  -7.460   1.191  0.00  0.00    +0.024 A 
ENDBRANCH   3   8
BRANCH   1  14
ATOM     14  S   UNL     1       0.014  -4.926   1.638  0.00  0.00    +0.101 S 
ATOM     15  O   UNL     1      -0.184  -5.829   2.717  0.00  0.00    -0.146 OA
ATOM     16  O   UNL     1      -0.829  -4.909   0.494  0.00  0.00    -0.146 OA
BRANCH  14  21
ATOM     17  C   UNL     1      -0.150   0.629   3.987  0.00  0.00    +0.044 C 
ATOM     18  C   UNL     1      -0.109  -0.758   3.400  0.00  0.00    -0.050 A 
ATOM     19  C   UNL     1      -0.399  -0.952   2.062  0.00  0.00    +0.005 A 
ATOM     20  C   UNL     1      -0.361  -2.225   1.524  0.00  0.00    +0.029 A 
ATOM     21  C   UNL     1      -0.033  -3.304   2.324  0.00  0.00    +0.113 A 
ATOM     22  C   UNL     1       0.258  -3.110   3.661  0.00  0.00    +0.029 A 
ATOM     23  C   UNL     1       0.225  -1.837   4.198  0.00  0.00    +0.005 A 
ENDBRANCH  14  21
ENDBRANCH   1  14
BRANCH   6  24
ATOM     24  C   UNL     1       3.691  -8.876  -1.575  0.00  0.00    +0.120 C 
BRANCH  24  25
ATOM     25  C   UNL     1       5.165  -9.156  -1.435  0.00  0.00    +0.219 C 
ATOM     26  O   UNL     1       5.673  -9.194  -0.334  0.00  0.00    -0.275 OA
ATOM     27  N   UNL     1       5.919  -9.364  -2.532  0.00  0.00    -0.285 N 
ATOM     28  H   UNL     1       5.503  -9.395  -3.408  0.00  0.00    +0.155 HD
BRANCH  27  29
ATOM     29  C   UNL     1       7.302  -9.536  -2.409  0.00  0.00    +0.037 A 
ATOM     30  C   UNL     1       8.155  -9.034  -3.384  0.00  0.00    +0.023 A 
ATOM     31  C   UNL     1       9.520  -9.204  -3.262  0.00  0.00    +0.005 A 
ATOM     32  C   UNL     1      10.041  -9.874  -2.171  0.00  0.00    +0.046 A 
ATOM     33  C   UNL     1       9.194 -10.378  -1.194  0.00  0.00    +0.122 A 
ATOM     34  C   UNL     1       7.824 -10.204  -1.310  0.00  0.00    +0.069 A 
BRANCH  33  35
ATOM     35  O   UNL     1       9.708 -11.037  -0.122  0.00  0.00    -0.495 OA
ATOM     36  C   UNL     1      11.129 -11.174  -0.065  0.00  0.00    +0.277 C 
ENDBRANCH  33  35
ENDBRANCH  27  29
ENDBRANCH  24  25
ENDBRANCH   6  24
TORSDOF 7
