REMARK  Name = ZINC05648979
REMARK  15 active torsions:
REMARK  status: ('A' for Active; 'I' for Inactive)
REMARK    1  A    between atoms: C_1  and  C_2
REMARK    2  A    between atoms: C_2  and  C_3
REMARK    3  A    between atoms: C_3  and  C_4
REMARK    4  A    between atoms: C_7  and  C_11
REMARK    5  A    between atoms: C_10  and  N_61
REMARK    6  A    between atoms: N_13  and  C_15
REMARK    7  A    between atoms: C_15  and  C_17
REMARK    8  A    between atoms: C_15  and  C_33
REMARK    9  A    between atoms: C_19  and  O_32
REMARK   10  A    between atoms: C_21  and  O_31
REMARK   11  A    between atoms: C_23  and  O_30
REMARK   12  A    between atoms: C_25  and  S_28
REMARK   13  A    between atoms: S_28  and  C_29
REMARK   14  A    between atoms: C_33  and  C_35
REMARK   15  A    between atoms: C_33  and  O_36
REMARK                            x       y       z     vdW  Elec       q    Type
REMARK                         _______ _______ _______ _____ _____    ______ ____
ROOT
ATOM      1  C   UNL     1      -1.863   3.738  -2.460  0.00  0.00    +0.132 C 
ENDROOT
BRANCH   1   2
ATOM      2  C   UNL     1      -1.718   5.223  -2.799  0.00  0.00    +0.173 C 
ATOM      3  C   UNL     1      -0.237   5.610  -2.772  0.00  0.00    +0.176 C 
ATOM      4  C   UNL     1      -0.095   7.082  -3.171  0.00  0.00    +0.177 C 
ATOM      5  C   UNL     1      -0.725   7.289  -4.552  0.00  0.00    +0.184 C 
ATOM      6  C   UNL     1      -2.187   6.837  -4.510  0.00  0.00    +0.207 C 
ATOM      7  O   UNL     1      -2.250   5.468  -4.102  0.00  0.00    -0.356 OA
BRANCH   6   8
ATOM      8  S   UNL     1      -2.921   7.011  -6.160  0.00  0.00    -0.131 S 
ATOM      9  C   UNL     1      -4.693   6.736  -5.883  0.00  0.00    +0.087 C 
ENDBRANCH   6   8
BRANCH   5  10
ATOM     10  O   UNL     1      -0.013   6.518  -5.521  0.00  0.00    -0.386 OA
ATOM     11  H   UNL     1      -0.358   6.601  -6.421  0.00  0.00    +0.210 HD
ENDBRANCH   5  10
BRANCH   4  12
ATOM     12  O   UNL     1      -0.765   7.904  -2.212  0.00  0.00    -0.386 OA
ATOM     13  H   UNL     1      -0.715   8.851  -2.403  0.00  0.00    +0.210 HD
ENDBRANCH   4  12
BRANCH   3  14
ATOM     14  O   UNL     1       0.282   5.419  -1.454  0.00  0.00    -0.387 OA
ATOM     15  H   UNL     1       1.218   5.646  -1.364  0.00  0.00    +0.210 HD
ENDBRANCH   3  14
ENDBRANCH   1   2
BRANCH   1  18
ATOM     16  C   UNL     1      -0.996   2.293  -0.700  0.00  0.00    +0.200 C 
ATOM     17  O   UNL     1      -0.951   1.388  -1.506  0.00  0.00    -0.278 OA
ATOM     18  N   UNL     1      -1.438   3.509  -1.077  0.00  0.00    -0.309 N 
ATOM     19  H   UNL     1      -1.474   4.233  -0.432  0.00  0.00    +0.149 HD
BRANCH  16  22
ATOM     20  C   UNL     1       1.691   1.331   1.368  0.00  0.00    -0.029 C 
ATOM     21  C   UNL     1       0.880   2.569   0.920  0.00  0.00    -0.005 C 
ATOM     22  C   UNL     1      -0.558   2.057   0.722  0.00  0.00    +0.019 C 
ATOM     23  C   UNL     1       0.600   0.387   1.931  0.00  0.00    -0.075 C 
ATOM     24  C   UNL     1      -1.809   0.184   1.635  0.00  0.00    -0.095 C 
ATOM     25  N   UNL     1      -0.522   0.619   1.013  0.00  0.00    +0.386 N 
ATOM     26  H   UNL     1      -0.373   0.093   0.144  0.00  0.00    -0.081 HD
BRANCH  20  27
ATOM     27  C   UNL     1       2.699   1.704   2.457  0.00  0.00    +0.001 C 
BRANCH  27  29
ATOM     28  C   UNL     1       4.491   0.831   3.963  0.00  0.00    +0.004 C 
ATOM     29  C   UNL     1       3.483   0.458   2.874  0.00  0.00    -0.003 C 
ENDBRANCH  27  29
ENDBRANCH  20  27
ENDBRANCH  16  22
ENDBRANCH   1  18
BRANCH   1  30
ATOM     30  C   UNL     1      -3.326   3.319  -2.619  0.00  0.00    +0.134 C 
ATOM     31  C   UNL     1      -3.467   1.828  -2.305  0.00  0.00    +0.039 C 
BRANCH  30  32
ATOM     32  O   UNL     1      -4.139   4.074  -1.719  0.00  0.00    -0.390 OA
ATOM     33  H   UNL     1      -4.099   5.030  -1.860  0.00  0.00    +0.210 HD
ENDBRANCH  30  32
ENDBRANCH   1  30
TORSDOF 11
