REMARK  Name = ZINC05419664
REMARK  8 active torsions:
REMARK  status: ('A' for Active; 'I' for Inactive)
REMARK    1  A    between atoms: C_1  and  C_2
REMARK    2  A    between atoms: C_6  and  C_9
REMARK    3  A    between atoms: C_7  and  O_8
REMARK    4  A    between atoms: C_9  and  C_11
REMARK    5  A    between atoms: C_9  and  N_25
REMARK    6  A    between atoms: C_11  and  C_12
REMARK    7  A    between atoms: C_11  and  C_18
REMARK    8  A    between atoms: C_11  and  O_24
REMARK                            x       y       z     vdW  Elec       q    Type
REMARK                         _______ _______ _______ _____ _____    ______ ____
ROOT
ATOM      1  C   UNL     1       1.531   0.596  -1.149  0.00  0.00    +0.183 C 
ENDROOT
BRANCH   1   2
ATOM      2  N   UNL     1       0.526   1.084  -2.097  0.00  0.00    -0.233 N 
ATOM      3  C   UNL     1       0.752   1.534  -3.376  0.00  0.00    +0.090 A 
ATOM      4  C   UNL     1       1.889   1.678  -4.163  0.00  0.00    +0.029 A 
ATOM      5  C   UNL     1       1.778   2.170  -5.433  0.00  0.00    +0.002 A 
ATOM      6  C   UNL     1       0.538   2.527  -5.947  0.00  0.00    +0.002 A 
ATOM      7  C   UNL     1      -0.593   2.395  -5.195  0.00  0.00    +0.032 A 
ATOM      8  C   UNL     1      -0.506   1.894  -3.890  0.00  0.00    +0.113 A 
ATOM      9  N   UNL     1      -1.423   1.655  -2.931  0.00  0.00    -0.129 NA
ATOM     10  N   UNL     1      -0.856   1.179  -1.879  0.00  0.00    -0.064 NA
ENDBRANCH   1   2
BRANCH   1  16
ATOM     11  C   UNL     1       2.953  -4.187  -0.653  0.00  0.00    +0.047 C 
ATOM     12  C   UNL     1       1.896  -3.119  -0.534  0.00  0.00    -0.009 A 
ATOM     13  C   UNL     1       0.633  -3.445  -0.077  0.00  0.00    +0.007 A 
ATOM     14  C   UNL     1      -0.337  -2.466   0.033  0.00  0.00    +0.001 A 
ATOM     15  C   UNL     1      -0.044  -1.158  -0.309  0.00  0.00    +0.009 A 
ATOM     16  C   UNL     1       1.215  -0.829  -0.771  0.00  0.00    +0.022 A 
ATOM     17  C   UNL     1       2.191  -1.809  -0.882  0.00  0.00    +0.125 A 
BRANCH  17  18
ATOM     18  O   UNL     1       3.432  -1.487  -1.332  0.00  0.00    -0.506 OA
ATOM     19  H   UNL     1       4.070  -1.306  -0.628  0.00  0.00    +0.292 HD
ENDBRANCH  17  18
ENDBRANCH   1  16
BRANCH   1  20
ATOM     20  C   UNL     1       1.518   1.471   0.105  0.00  0.00    +0.142 C 
BRANCH  20  21
ATOM     21  C   UNL     1       1.984   2.860  -0.246  0.00  0.00    -0.009 A 
ATOM     22  C   UNL     1       2.889   3.046  -1.274  0.00  0.00    +0.007 A 
ATOM     23  C   UNL     1       3.313   4.321  -1.600  0.00  0.00    +0.000 A 
ATOM     24  C   UNL     1       2.839   5.409  -0.891  0.00  0.00    +0.000 A 
ATOM     25  C   UNL     1       1.937   5.223   0.139  0.00  0.00    +0.000 A 
ATOM     26  C   UNL     1       1.510   3.949   0.462  0.00  0.00    +0.007 A 
ENDBRANCH  20  21
BRANCH  20  27
ATOM     27  C   UNL     1       2.439   0.879   1.141  0.00  0.00    -0.009 A 
ATOM     28  C   UNL     1       3.773   0.672   0.842  0.00  0.00    +0.007 A 
ATOM     29  C   UNL     1       4.619   0.134   1.793  0.00  0.00    +0.000 A 
ATOM     30  C   UNL     1       4.130  -0.207   3.040  0.00  0.00    +0.000 A 
ATOM     31  C   UNL     1       2.795  -0.005   3.337  0.00  0.00    +0.000 A 
ATOM     32  C   UNL     1       1.950   0.538   2.388  0.00  0.00    +0.007 A 
ENDBRANCH  20  27
BRANCH  20  33
ATOM     33  O   UNL     1       0.190   1.532   0.629  0.00  0.00    -0.377 OA
ATOM     34  H   UNL     1      -0.135   0.691   0.978  0.00  0.00    +0.211 HD
ENDBRANCH  20  33
ENDBRANCH   1  20
TORSDOF 7
