REMARK  Name = ZINC50988157
REMARK  5 active torsions:
REMARK  status: ('A' for Active; 'I' for Inactive)
REMARK    1  A    between atoms: C_1  and  C_2
REMARK    2  A    between atoms: C_2  and  C_3
REMARK    3  A    between atoms: C_5  and  C_11
REMARK    4  A    between atoms: N_7  and  C_8
REMARK    5  A    between atoms: C_8  and  C_9
REMARK                            x       y       z     vdW  Elec       q    Type
REMARK                         _______ _______ _______ _____ _____    ______ ____
ROOT
ATOM      1  C   UNL     1      -1.412  -0.526   0.013  0.00  0.00    +0.076 C 
ATOM      2  N   UNL     1      -2.064  -0.776   1.092  0.00  0.00    -0.363 N 
ATOM      3  C   UNL     1      -3.400  -1.265   0.718  0.00  0.00    +0.172 C 
ATOM      4  C   UNL     1      -3.382  -1.246  -0.799  0.00  0.00    +0.101 C 
ATOM      5  N   UNL     1      -2.129  -0.774  -1.123  0.00  0.00    -0.279 N 
ATOM      6  N   UNL     1      -4.332  -1.590  -1.605  0.00  0.00    -0.388 N 
ATOM      7  H   UNL     1      -5.178  -1.906  -1.252  0.00  0.00    +0.157 HD
ATOM      8  H   UNL     1      -4.198  -1.532  -2.564  0.00  0.00    +0.157 HD
ATOM      9  H   UNL     1      -1.733  -0.661   1.997  0.00  0.00    +0.162 HD
ENDROOT
BRANCH   3  10
ATOM     10  C   UNL     1      -3.611  -2.668   1.227  0.00  0.00    -0.013 A 
ATOM     11  C   UNL     1      -4.848  -3.045   1.718  0.00  0.00    +0.055 A 
ATOM     12  C   UNL     1      -5.045  -4.334   2.186  0.00  0.00    +0.168 A 
ATOM     13  C   UNL     1      -3.994  -5.248   2.160  0.00  0.00    +0.184 A 
ATOM     14  C   UNL     1      -2.757  -4.864   1.667  0.00  0.00    +0.087 A 
ATOM     15  C   UNL     1      -2.570  -3.576   1.196  0.00  0.00    +0.030 A 
ATOM     16 CL   UNL     1      -1.446  -6.000   1.633  0.00  0.00    -0.080 Cl
ATOM     17  O   UNL     1      -4.437  -6.435   2.669  0.00  0.00    -0.451 OA
ATOM     18  C   UNL     1      -5.647  -6.120   3.383  0.00  0.00    +0.466 C 
ATOM     19  O   UNL     1      -6.145  -4.948   2.711  0.00  0.00    -0.453 OA
ENDBRANCH   3  10
BRANCH   1  21
ATOM     20  C   UNL     1      -0.019   1.526   0.010  0.00  0.00    +0.011 C 
ATOM     21  C   UNL     1       0.002  -0.004   0.002  0.00  0.00    +0.066 C 
ENDBRANCH   1  21
BRANCH   5  22
ATOM     22  C   UNL     1      -1.635  -0.573  -2.488  0.00  0.00    +0.110 C 
ATOM     23  C   UNL     1      -0.964  -1.855  -2.982  0.00  0.00    +0.025 C 
ENDBRANCH   5  22
TORSDOF 3
