REMARK  Name = ZINC13976493
REMARK  12 active torsions:
REMARK  status: ('A' for Active; 'I' for Inactive)
REMARK    1  A    between atoms: C_1  and  C_2
REMARK    2  A    between atoms: C_4  and  O_12
REMARK    3  A    between atoms: C_5  and  C_9
REMARK    4  A    between atoms: C_9  and  C_10
REMARK    5  A    between atoms: C_9  and  C_11
REMARK    6  A    between atoms: O_12  and  C_13
REMARK    7  A    between atoms: C_13  and  C_14
REMARK    8  A    between atoms: N_16  and  C_17
REMARK    9  A    between atoms: C_17  and  N_19
REMARK   10  A    between atoms: N_19  and  N_20
REMARK   11  A    between atoms: C_21  and  C_23
REMARK   12  A    between atoms: C_28  and  N_29
REMARK                            x       y       z     vdW  Elec       q    Type
REMARK                         _______ _______ _______ _____ _____    ______ ____
ROOT
ATOM      1  C   UNL     1      -1.665  -3.611  -5.854  0.00  0.00    +0.256 C 
ATOM      2  O   UNL     1      -1.728  -4.821  -5.901  0.00  0.00    -0.272 OA
ATOM      3  N   UNL     1      -1.307  -2.912  -6.950  0.00  0.00    -0.264 N 
ATOM      4  H   UNL     1      -1.256  -1.944  -6.912  0.00  0.00    +0.157 HD
ENDROOT
BRANCH   3   5
ATOM      5  C   UNL     1      -1.019  -3.558  -8.097  0.00  0.00    +0.153 C 
ATOM      6  S   UNL     1      -1.109  -5.266  -8.163  0.00  0.00    -0.017 S 
BRANCH   5   7
ATOM      7  N   UNL     1      -0.661  -2.859  -9.192  0.00  0.00    -0.245 N 
ATOM      8  H   UNL     1      -0.454  -3.324 -10.018  0.00  0.00    +0.172 HD
BRANCH   7   9
ATOM      9  N   UNL     1      -0.588  -1.461  -9.138  0.00  0.00    -0.231 N 
ATOM     10  C   UNL     1      -0.230  -0.762 -10.234  0.00  0.00    +0.262 C 
ATOM     11  O   UNL     1       0.030  -1.345 -11.268  0.00  0.00    -0.269 OA
ATOM     12  H   UNL     1      -0.795  -0.996  -8.313  0.00  0.00    +0.173 HD
BRANCH  10  13
ATOM     13  C   UNL     1      -0.152   0.713 -10.177  0.00  0.00    +0.068 A 
ATOM     14  C   UNL     1      -1.255   1.457  -9.752  0.00  0.00    +0.015 A 
ATOM     15  C   UNL     1      -1.176   2.833  -9.700  0.00  0.00    +0.001 A 
ATOM     16  C   UNL     1      -0.007   3.477 -10.069  0.00  0.00    +0.002 A 
ATOM     17  C   UNL     1       1.088   2.745 -10.491  0.00  0.00    +0.033 A 
ATOM     18  C   UNL     1       1.025   1.368 -10.542  0.00  0.00    +0.138 A 
BRANCH  18  19
ATOM     19  N   UNL     1       2.200   0.587 -10.988  0.00  0.00    +0.057 N 
ATOM     20  O   UNL     1       3.175   1.156 -11.420  0.00  0.00    -0.126 OA
ATOM     21  O   UNL     1       2.185  -0.620 -10.920  0.00  0.00    -0.126 OA
ENDBRANCH  18  19
ENDBRANCH  10  13
ENDBRANCH   7   9
ENDBRANCH   5   7
ENDBRANCH   3   5
BRANCH   1  22
ATOM     22  C   UNL     1      -1.987  -2.888  -4.572  0.00  0.00    +0.325 C 
BRANCH  22  23
ATOM     23  O   UNL     1      -2.336  -3.840  -3.564  0.00  0.00    -0.482 OA
BRANCH  23  27
ATOM     24  C   UNL     1      -2.938   0.000  -0.612  0.00  0.00    +0.045 C 
ATOM     25  C   UNL     1      -2.961  -1.486  -0.861  0.00  0.00    -0.033 A 
ATOM     26  C   UNL     1      -2.635  -1.982  -2.109  0.00  0.00    +0.050 A 
ATOM     27  C   UNL     1      -2.656  -3.350  -2.337  0.00  0.00    +0.125 A 
ATOM     28  C   UNL     1      -3.005  -4.217  -1.312  0.00  0.00    -0.002 A 
ATOM     29  C   UNL     1      -3.331  -3.717  -0.067  0.00  0.00    +0.023 A 
ATOM     30  C   UNL     1      -3.304  -2.353   0.161  0.00  0.00    +0.021 A 
ATOM     31 BR   UNL     1      -3.743  -1.671   1.869  0.00  0.00    -0.050 Br
BRANCH  28  32
ATOM     32  C   UNL     1      -3.030  -5.704  -1.558  0.00  0.00    +0.016 C 
ATOM     33  C   UNL     1      -2.042  -6.393  -0.614  0.00  0.00    +0.012 C 
ATOM     34  C   UNL     1      -4.440  -6.240  -1.301  0.00  0.00    +0.012 C 
ENDBRANCH  28  32
ENDBRANCH  23  27
ENDBRANCH  22  23
ENDBRANCH   1  22
TORSDOF 9
