REMARK  Name = ZINC66198706
REMARK  12 active torsions:
REMARK  status: ('A' for Active; 'I' for Inactive)
REMARK    1  A    between atoms: C_1  and  C_2
REMARK    2  A    between atoms: C_2  and  C_4
REMARK    3  A    between atoms: C_2  and  C_14
REMARK    4  A    between atoms: C_7  and  C_10
REMARK    5  A    between atoms: C_10  and  C_11
REMARK    6  A    between atoms: C_11  and  C_12
REMARK    7  A    between atoms: C_11  and  C_13
REMARK    8  A    between atoms: N_16  and  C_17
REMARK    9  A    between atoms: C_20  and  S_23
REMARK   10  A    between atoms: S_23  and  N_26
REMARK   11  A    between atoms: N_26  and  C_27
REMARK   12  A    between atoms: N_26  and  C_28
REMARK                            x       y       z     vdW  Elec       q    Type
REMARK                         _______ _______ _______ _____ _____    ______ ____
ROOT
ATOM      1  C   UNL     1       2.672  -0.684  -2.557  0.00  0.00    +0.034 A 
ATOM      2  C   UNL     1       4.026  -0.976  -2.453  0.00  0.00    +0.025 A 
ATOM      3  C   UNL     1       4.703  -1.503  -3.535  0.00  0.00    +0.030 A 
ATOM      4  C   UNL     1       4.034  -1.740  -4.722  0.00  0.00    +0.109 A 
ATOM      5  C   UNL     1       2.686  -1.450  -4.829  0.00  0.00    +0.030 A 
ATOM      6  C   UNL     1       2.002  -0.929  -3.748  0.00  0.00    +0.025 A 
ENDROOT
BRANCH   1   9
ATOM      7  C   UNL     1       0.701  -0.497  -1.239  0.00  0.00    +0.224 C 
ATOM      8  O   UNL     1       0.117  -1.206  -2.032  0.00  0.00    -0.275 OA
ATOM      9  N   UNL     1       1.984  -0.151  -1.462  0.00  0.00    -0.285 N 
ATOM     10  H   UNL     1       2.430   0.469  -0.863  0.00  0.00    +0.155 HD
BRANCH   7  12
ATOM     11  C   UNL     1      -0.034   1.524  -0.006  0.00  0.00    +0.022 C 
ATOM     12  C   UNL     1      -0.009  -0.005  -0.004  0.00  0.00    +0.102 C 
BRANCH  12  13
ATOM     13  C   UNL     1      -1.421  -0.531   0.007  0.00  0.00    -0.036 A 
ATOM     14  C   UNL     1      -2.284  -0.217  -1.026  0.00  0.00    +0.004 A 
ATOM     15  C   UNL     1      -3.579  -0.700  -1.016  0.00  0.00    +0.004 A 
ATOM     16  C   UNL     1      -4.012  -1.496   0.027  0.00  0.00    -0.047 A 
ATOM     17  C   UNL     1      -3.149  -1.811   1.060  0.00  0.00    +0.004 A 
ATOM     18  C   UNL     1      -1.853  -1.332   1.048  0.00  0.00    +0.004 A 
BRANCH  16  19
ATOM     19  C   UNL     1      -5.425  -2.021   0.039  0.00  0.00    +0.038 C 
BRANCH  19  20
ATOM     20  C   UNL     1      -5.472  -3.373  -0.675  0.00  0.00    -0.013 C 
ATOM     21  C   UNL     1      -6.878  -3.965  -0.555  0.00  0.00    +0.007 C 
ATOM     22  C   UNL     1      -5.123  -3.183  -2.153  0.00  0.00    +0.007 C 
ENDBRANCH  19  20
ENDBRANCH  16  19
ENDBRANCH  12  13
ENDBRANCH   7  12
ENDBRANCH   1   9
BRANCH   4  23
ATOM     23  S   UNL     1       4.901  -2.412  -6.101  0.00  0.00    +0.074 S 
ATOM     24  O   UNL     1       4.176  -2.031  -7.261  0.00  0.00    -0.150 OA
ATOM     25  O   UNL     1       6.272  -2.085  -5.917  0.00  0.00    -0.150 OA
BRANCH  23  26
ATOM     26  N   UNL     1       4.790  -4.061  -5.993  0.00  0.00    -0.206 N 
ATOM     27  C   UNL     1       3.736  -4.773  -6.720  0.00  0.00    +0.157 C 
BRANCH  26  28
ATOM     28  C   UNL     1       5.701  -4.772  -5.209  0.00  0.00    +0.051 A 
ATOM     29  C   UNL     1       5.249  -5.548  -4.149  0.00  0.00    +0.025 A 
ATOM     30  C   UNL     1       6.153  -6.251  -3.376  0.00  0.00    +0.002 A 
ATOM     31  C   UNL     1       7.505  -6.183  -3.656  0.00  0.00    +0.000 A 
ATOM     32  C   UNL     1       7.958  -5.411  -4.711  0.00  0.00    +0.002 A 
ATOM     33  C   UNL     1       7.059  -4.710  -5.491  0.00  0.00    +0.025 A 
ENDBRANCH  26  28
ENDBRANCH  23  26
ENDBRANCH   4  23
TORSDOF 8
