REMARK  Name = ZINC64538292
REMARK  7 active torsions:
REMARK  status: ('A' for Active; 'I' for Inactive)
REMARK    1  A    between atoms: C_1  and  C_2
REMARK    2  A    between atoms: C_2  and  C_4
REMARK    3  A    between atoms: C_2  and  N_19
REMARK    4  A    between atoms: N_6  and  C_7
REMARK    5  A    between atoms: C_7  and  C_8
REMARK    6  A    between atoms: C_8  and  C_9
REMARK    7  A    between atoms: C_27  and  C_31
REMARK                            x       y       z     vdW  Elec       q    Type
REMARK                         _______ _______ _______ _____ _____    ______ ____
ROOT
ATOM      1  C   UNL     1      -0.019   1.526   0.010  0.00  0.00    +0.038 C 
ATOM      2  C   UNL     1       0.002  -0.004   0.002  0.00  0.00    +0.164 C 
ENDROOT
BRANCH   2   3
ATOM      3  N   UNL     1      -1.372  -0.511   0.012  0.00  0.00    -0.256 N 
ATOM      4  C   UNL     1      -1.803  -1.323   1.069  0.00  0.00    +0.058 A 
ATOM      5  C   UNL     1      -1.064  -1.417   2.237  0.00  0.00    +0.025 A 
ATOM      6  C   UNL     1      -1.505  -2.228   3.267  0.00  0.00    +0.002 A 
ATOM      7  C   UNL     1      -2.680  -2.946   3.138  0.00  0.00    +0.002 A 
ATOM      8  C   UNL     1      -3.426  -2.856   1.975  0.00  0.00    +0.025 A 
ATOM      9  C   UNL     1      -2.992  -2.044   0.943  0.00  0.00    +0.050 A 
ATOM     10  N   UNL     1      -3.731  -1.923  -0.242  0.00  0.00    -0.325 N 
ATOM     11  C   UNL     1      -3.642  -0.654  -0.982  0.00  0.00    +0.262 C 
ATOM     12  C   UNL     1      -2.209  -0.187  -0.991  0.00  0.00    +0.250 C 
ATOM     13  O   UNL     1      -1.805   0.485  -1.916  0.00  0.00    -0.273 OA
ATOM     14  H   UNL     1      -4.283  -2.652  -0.565  0.00  0.00    +0.147 HD
BRANCH  11  15
ATOM     15  C   UNL     1      -4.516   0.399  -0.297  0.00  0.00    +0.416 C 
ATOM     16  F   UNL     1      -4.071   0.593   1.015  0.00  0.00    -0.168 F 
ATOM     17  F   UNL     1      -4.431   1.605  -1.001  0.00  0.00    -0.168 F 
ATOM     18  F   UNL     1      -5.845  -0.038  -0.279  0.00  0.00    -0.168 F 
ENDBRANCH  11  15
ENDBRANCH   2   3
BRANCH   2  19
ATOM     19  C   UNL     1       0.707  -0.490  -1.238  0.00  0.00    +0.234 C 
ATOM     20  O   UNL     1       0.120  -1.191  -2.034  0.00  0.00    -0.274 OA
ATOM     21  N   UNL     1       1.991  -0.146  -1.462  0.00  0.00    -0.313 N 
ATOM     22  H   UNL     1       2.461   0.415  -0.825  0.00  0.00    +0.149 HD
BRANCH  21  23
ATOM     23  C   UNL     1       2.677  -0.618  -2.667  0.00  0.00    +0.108 C 
BRANCH  23  24
ATOM     24  C   UNL     1       4.112  -0.089  -2.678  0.00  0.00    +0.052 C 
BRANCH  24  25
ATOM     25  C   UNL     1       4.818  -0.575  -3.918  0.00  0.00    -0.040 C 
ATOM     26  C   UNL     1       4.953   0.088  -5.089  0.00  0.00    +0.000 A 
ATOM     27  C   UNL     1       4.501   1.409  -5.541  0.00  0.00    +0.030 A 
ATOM     28  C   UNL     1       4.795   1.808  -6.801  0.00  0.00    +0.042 A 
ATOM     29  C   UNL     1       5.519   0.991  -7.682  0.00  0.00    +0.022 A 
ATOM     30  C   UNL     1       5.967  -0.235  -7.338  0.00  0.00    +0.027 A 
ATOM     31  C   UNL     1       5.716  -0.754  -6.038  0.00  0.00    +0.043 A 
ATOM     32  N   UNL     1       6.039  -1.893  -5.476  0.00  0.00    -0.380 N 
ATOM     33  C   UNL     1       5.523  -1.900  -4.102  0.00  0.00    +0.144 C 
ATOM     34 CL   UNL     1       4.262   3.369  -7.340  0.00  0.00    -0.084 Cl
ATOM     35  H   UNL     1       6.539  -2.610  -5.896  0.00  0.00    +0.160 HD
ENDBRANCH  24  25
ENDBRANCH  23  24
ENDBRANCH  21  23
ENDBRANCH   2  19
TORSDOF 6
