REMARK  Name = ZINC09337559
REMARK  7 active torsions:
REMARK  status: ('A' for Active; 'I' for Inactive)
REMARK    1  A    between atoms: C_1  and  C_2
REMARK    2  A    between atoms: C_3  and  N_15
REMARK    3  A    between atoms: N_6  and  C_9
REMARK    4  A    between atoms: N_7  and  C_8
REMARK    5  A    between atoms: C_16  and  C_18
REMARK    6  A    between atoms: C_18  and  N_56
REMARK    7  A    between atoms: C_26  and  C_28
REMARK                            x       y       z     vdW  Elec       q    Type
REMARK                         _______ _______ _______ _____ _____    ______ ____
ROOT
ATOM      1  N   UNL     1       5.971   4.494  -0.209  0.00  0.00    -0.281 N 
ATOM      2  C   UNL     1       6.591   3.297  -0.250  0.00  0.00    +0.201 C 
ATOM      3  O   UNL     1       5.943   2.283  -0.398  0.00  0.00    -0.278 OA
ATOM      4  H   UNL     1       6.479   5.297  -0.014  0.00  0.00    +0.155 HD
ENDROOT
BRANCH   1   7
ATOM      5  C   UNL     1       4.670   6.291  -2.327  0.00  0.00    +0.067 C 
ATOM      6  C   UNL     1       3.977   5.356  -1.371  0.00  0.00    +0.059 A 
ATOM      7  C   UNL     1       4.585   4.577  -0.448  0.00  0.00    +0.121 A 
ATOM      8  C   UNL     1       3.537   3.837   0.255  0.00  0.00    +0.293 A 
ATOM      9  O   UNL     1       3.696   3.034   1.156  0.00  0.00    -0.264 OA
ATOM     10  N   UNL     1       2.360   4.215  -0.286  0.00  0.00    -0.216 N 
ATOM     11  N   UNL     1       2.625   5.148  -1.295  0.00  0.00    -0.282 N 
ATOM     12  C   UNL     1       1.617   5.802  -2.133  0.00  0.00    +0.171 C 
BRANCH  10  13
ATOM     13  C   UNL     1       1.096   3.750   0.091  0.00  0.00    +0.067 A 
ATOM     14  C   UNL     1       0.065   4.650   0.325  0.00  0.00    +0.028 A 
ATOM     15  C   UNL     1      -1.183   4.188   0.697  0.00  0.00    +0.002 A 
ATOM     16  C   UNL     1      -1.403   2.830   0.842  0.00  0.00    +0.000 A 
ATOM     17  C   UNL     1      -0.380   1.931   0.604  0.00  0.00    +0.002 A 
ATOM     18  C   UNL     1       0.869   2.387   0.232  0.00  0.00    +0.028 A 
ENDBRANCH  10  13
ENDBRANCH   1   7
BRANCH   2  19
ATOM     19  C   UNL     1       8.090   3.221  -0.111  0.00  0.00    +0.020 C 
BRANCH  19  28
ATOM     20  C   UNL     1       7.914   1.006   0.854  0.00  0.00    -0.072 C 
ATOM     21  C   UNL     1       8.689  -0.317   0.969  0.00  0.00    +0.024 C 
ATOM     22  C   UNL     1       8.875  -0.857  -0.412  0.00  0.00    -0.010 A 
ATOM     23  C   UNL     1       8.685  -0.183  -1.581  0.00  0.00    -0.046 A 
ATOM     24  C   UNL     1       8.918  -0.895  -2.755  0.00  0.00    +0.010 A 
ATOM     25  C   UNL     1       9.312  -2.189  -2.695  0.00  0.00    +0.045 A 
ATOM     26  S   UNL     1       9.376  -2.473  -0.931  0.00  0.00    -0.101 S 
ATOM     27  C   UNL     1       8.241   1.276  -1.546  0.00  0.00    +0.002 C 
ATOM     28  N   UNL     1       8.555   1.823  -0.204  0.00  0.00    +0.393 N 
ATOM     29  H   UNL     1       9.572   1.801  -0.068  0.00  0.00    -0.080 HD
BRANCH  27  30
ATOM     30  C   UNL     1       9.003   2.063  -2.580  0.00  0.00    -0.019 A 
ATOM     31  C   UNL     1       8.604   2.466  -3.811  0.00  0.00    +0.010 A 
ATOM     32  C   UNL     1       9.482   3.187  -4.599  0.00  0.00    +0.008 A 
ATOM     33  C   UNL     1      10.717   3.469  -4.117  0.00  0.00    +0.045 A 
ATOM     34  S   UNL     1      10.665   2.712  -2.501  0.00  0.00    -0.103 S 
ENDBRANCH  27  30
ENDBRANCH  19  28
ENDBRANCH   2  19
TORSDOF 5
