REMARK  Name = ZINC25443635
REMARK  8 active torsions:
REMARK  status: ('A' for Active; 'I' for Inactive)
REMARK    1  A    between atoms: C_1  and  N_2
REMARK    2  A    between atoms: N_2  and  C_3
REMARK    3  A    between atoms: N_2  and  C_4
REMARK    4  A    between atoms: C_4  and  C_11
REMARK    5  A    between atoms: C_11  and  N_12
REMARK    6  A    between atoms: C_13  and  C_15
REMARK    7  A    between atoms: C_15  and  N_16
REMARK    8  A    between atoms: C_17  and  C_19
REMARK                            x       y       z     vdW  Elec       q    Type
REMARK                         _______ _______ _______ _____ _____    ______ ____
ROOT
ATOM      1  N   UNL     1       1.532   0.569   1.921  0.00  0.00    -0.315 N 
ATOM      2  C   UNL     1       1.978  -0.482   2.639  0.00  0.00    +0.230 C 
ATOM      3  O   UNL     1       2.904  -1.147   2.227  0.00  0.00    -0.274 OA
ATOM      4  H   UNL     1       0.692   1.173   2.294  0.00  0.00    +0.149 HD
ENDROOT
BRANCH   1   5
ATOM      5  C   UNL     1       2.167   0.907   0.645  0.00  0.00    +0.092 C 
BRANCH   5   6
ATOM      6  C   UNL     1       1.554   2.197   0.096  0.00  0.00    -0.050 C 
ATOM      7  C   UNL     1       0.133   1.924  -0.314  0.00  0.00    -0.010 C 
ATOM      8  C   UNL     1       0.005   0.430  -0.676  0.00  0.00    -0.001 C 
ATOM      9  C   UNL     1       0.495   0.139  -2.015  0.00  0.00    -0.000 C 
ATOM     10  C   UNL     1       1.996   0.459  -2.174  0.00  0.00    -0.000 C 
ATOM     11  C   UNL     1       2.149   1.940  -2.388  0.00  0.00    -0.001 C 
ATOM     12  C   UNL     1       2.419   2.701  -1.075  0.00  0.00    -0.010 C 
BRANCH   6  14
ATOM     13  C   UNL     1       2.928   3.549   1.562  0.00  0.00    -0.096 C 
ATOM     14  N   UNL     1       1.556   3.211   1.159  0.00  0.00    +0.381 N 
ATOM     15  C   UNL     1       0.819   4.411   0.743  0.00  0.00    -0.096 C 
ATOM     16  H   UNL     1       1.042   2.785   2.034  0.00  0.00    -0.082 HD
ENDBRANCH   6  14
ENDBRANCH   5   6
ENDBRANCH   1   5
BRANCH   2  17
ATOM     17  C   UNL     1       1.324  -0.829   3.951  0.00  0.00    +0.200 C 
BRANCH  17  18
ATOM     18  N   UNL     1       1.985  -2.001   4.531  0.00  0.00    -0.303 N 
ATOM     19  C   UNL     1       1.566  -2.496   5.712  0.00  0.00    +0.244 C 
ATOM     20  O   UNL     1       0.640  -1.970   6.297  0.00  0.00    -0.270 OA
ATOM     21  H   UNL     1       2.823  -2.478   4.001  0.00  0.00    +0.150 HD
BRANCH  19  22
ATOM     22  C   UNL     1       2.233  -3.679   6.297  0.00  0.00    +0.038 A 
ATOM     23  C   UNL     1       3.294  -4.289   5.625  0.00  0.00    +0.013 A 
ATOM     24  C   UNL     1       3.916  -5.388   6.178  0.00  0.00    +0.002 A 
ATOM     25  C   UNL     1       3.484  -5.894   7.391  0.00  0.00    +0.015 A 
ATOM     26  C   UNL     1       2.430  -5.298   8.061  0.00  0.00    +0.019 A 
ATOM     27  C   UNL     1       1.802  -4.193   7.520  0.00  0.00    +0.028 A 
ATOM     28 BR   UNL     1       1.847  -5.998   9.718  0.00  0.00    -0.050 Br
ENDBRANCH  19  22
ENDBRANCH  17  18
ENDBRANCH   2  17
TORSDOF 6
