REMARK  Name = ZINC32971309
REMARK  7 active torsions:
REMARK  status: ('A' for Active; 'I' for Inactive)
REMARK    1  A    between atoms: C_1  and  C_2
REMARK    2  A    between atoms: C_6  and  N_8
REMARK    3  A    between atoms: N_11  and  S_16
REMARK    4  A    between atoms: C_13  and  C_15
REMARK    5  A    between atoms: S_16  and  C_19
REMARK    6  A    between atoms: C_21  and  C_25
REMARK    7  A    between atoms: C_23  and  C_24
REMARK                            x       y       z     vdW  Elec       q    Type
REMARK                         _______ _______ _______ _____ _____    ______ ____
ROOT
ATOM      1  N   UNL     1       2.409   3.946  -0.062  0.00  0.00    -0.325 N 
ATOM      2  C   UNL     1       2.422   4.960   1.001  0.00  0.00    +0.122 C 
ATOM      3  C   UNL     1       3.717   5.774   0.909  0.00  0.00    +0.128 C 
ATOM      4  N   UNL     1       4.856   4.844   0.924  0.00  0.00    -0.173 NA
ATOM      5  C   UNL     1       4.847   3.718  -0.023  0.00  0.00    +0.131 C 
ATOM      6  C   UNL     1       3.508   2.985   0.105  0.00  0.00    +0.086 C 
ATOM      7  C   UNL     1       3.411   1.906  -0.975  0.00  0.00    +0.029 C 
ENDROOT
BRANCH   1  13
ATOM      8  C   UNL     1      -0.791   0.785   1.918  0.00  0.00    +0.044 C 
ATOM      9  C   UNL     1      -0.402   1.754   0.832  0.00  0.00    -0.049 A 
ATOM     10  C   UNL     1      -1.269   2.000  -0.217  0.00  0.00    +0.003 A 
ATOM     11  C   UNL     1      -0.913   2.884  -1.219  0.00  0.00    +0.002 A 
ATOM     12  C   UNL     1       0.305   3.533  -1.170  0.00  0.00    +0.023 A 
ATOM     13  C   UNL     1       1.176   3.292  -0.115  0.00  0.00    +0.030 A 
ATOM     14  C   UNL     1       0.818   2.399   0.887  0.00  0.00    +0.026 A 
ENDBRANCH   1  13
BRANCH   4  15
ATOM     15  S   UNL     1       6.115   5.058   1.978  0.00  0.00    +0.064 S 
ATOM     16  O   UNL     1       5.607   5.813   3.069  0.00  0.00    -0.153 OA
ATOM     17  O   UNL     1       6.722   3.785   2.149  0.00  0.00    -0.153 OA
BRANCH  15  18
ATOM     18  C   UNL     1       7.303   6.078   1.170  0.00  0.00    +0.147 A 
ATOM     19  C   UNL     1       7.684   7.379   1.548  0.00  0.00    +0.082 A 
ATOM     20  C   UNL     1       8.626   7.788   0.651  0.00  0.00    +0.175 A 
ATOM     21  O   UNL     1       8.812   6.796  -0.242  0.00  0.00    -0.455 OA
ATOM     22  C   UNL     1       8.014   5.762   0.068  0.00  0.00    +0.129 A 
ATOM     23  C   UNL     1       7.928   4.461  -0.689  0.00  0.00    +0.088 C 
BRANCH  20  24
ATOM     24  C   UNL     1       9.315   9.086   0.655  0.00  0.00    +0.202 A 
ATOM     25  C   UNL     1      10.261   9.521  -0.239  0.00  0.00    +0.075 A 
ATOM     26  C   UNL     1      10.586  10.814   0.216  0.00  0.00    +0.157 A 
ATOM     27  N   UNL     1       9.857  11.032   1.274  0.00  0.00    -0.086 NA
ATOM     28  O   UNL     1       9.141  10.092   1.533  0.00  0.00    -0.352 OA
ENDBRANCH  20  24
ENDBRANCH  15  18
ENDBRANCH   4  15
TORSDOF 4
