REMARK  Name = ZINC39478764
REMARK  6 active torsions:
REMARK  status: ('A' for Active; 'I' for Inactive)
REMARK    1  A    between atoms: C_4  and  C_7
REMARK    2  A    between atoms: C_7  and  N_8
REMARK    3  A    between atoms: C_14  and  C_16
REMARK    4  A    between atoms: C_16  and  C_17
REMARK    5  A    between atoms: N_19  and  C_20
REMARK    6  A    between atoms: C_20  and  C_21
REMARK                            x       y       z     vdW  Elec       q    Type
REMARK                         _______ _______ _______ _____ _____    ______ ____
ROOT
ATOM      1  N   UNL     1       3.025  -1.586  -2.553  0.00  0.00    +0.389 N 
ATOM      2  C   UNL     1       3.962  -1.873  -1.455  0.00  0.00    -0.059 C 
ATOM      3  C   UNL     1       3.744  -3.312  -0.984  0.00  0.00    +0.085 C 
ATOM      4  N   UNL     1       3.771  -4.219  -2.128  0.00  0.00    -0.318 N 
ATOM      5  C   UNL     1       3.619  -3.796  -3.388  0.00  0.00    +0.200 C 
ATOM      6  O   UNL     1       3.630  -4.614  -4.282  0.00  0.00    -0.278 OA
ATOM      7  C   UNL     1       3.436  -2.346  -3.740  0.00  0.00    +0.028 C 
ATOM      8  H   UNL     1       3.904  -5.167  -1.968  0.00  0.00    +0.149 HD
ATOM      9  H   UNL     1       2.092  -1.860  -2.283  0.00  0.00    -0.081 HD
ENDROOT
BRANCH   1  10
ATOM     10  C   UNL     1       3.048  -0.149  -2.857  0.00  0.00    -0.074 C 
BRANCH  10  14
ATOM     11  C   UNL     1       0.563   2.560  -0.574  0.00  0.00    +0.000 C 
ATOM     12  C   UNL     1       2.041   2.913  -0.751  0.00  0.00    +0.000 C 
ATOM     13  C   UNL     1       2.613   2.132  -1.936  0.00  0.00    +0.002 C 
ATOM     14  C   UNL     1       2.475   0.632  -1.672  0.00  0.00    -0.028 C 
ATOM     15  C   UNL     1       0.997   0.279  -1.495  0.00  0.00    +0.002 C 
ATOM     16  C   UNL     1       0.425   1.060  -0.310  0.00  0.00    +0.000 C 
ENDBRANCH  10  14
ENDBRANCH   1  10
BRANCH   7  17
ATOM     17  C   UNL     1       2.362  -2.219  -4.821  0.00  0.00    +0.089 C 
BRANCH  17  18
ATOM     18  C   UNL     1       1.090  -2.873  -4.346  0.00  0.00    +0.212 C 
ATOM     19  O   UNL     1       1.039  -3.367  -3.239  0.00  0.00    -0.276 OA
ATOM     20  N   UNL     1       0.010  -2.910  -5.151  0.00  0.00    -0.311 N 
ATOM     21  H   UNL     1       0.050  -2.515  -6.036  0.00  0.00    +0.149 HD
BRANCH  20  22
ATOM     22  C   UNL     1      -1.226  -3.546  -4.689  0.00  0.00    +0.139 C 
BRANCH  22  23
ATOM     23  C   UNL     1      -2.273  -3.453  -5.768  0.00  0.00    -0.025 C 
ATOM     24  C   UNL     1      -2.497  -4.463  -6.663  0.00  0.00    +0.005 C 
ATOM     25  C   UNL     1      -3.564  -4.342  -7.652  0.00  0.00    -0.002 C 
ATOM     26  C   UNL     1      -4.150  -3.177  -7.949  0.00  0.00    +0.004 C 
ATOM     27  C   UNL     1      -3.662  -1.926  -7.282  0.00  0.00    +0.158 C 
ATOM     28  C   UNL     1      -3.096  -2.323  -5.926  0.00  0.00    -0.013 C 
ATOM     29  C   UNL     1      -3.587  -1.421  -5.060  0.00  0.00    +0.025 C 
ATOM     30  C   UNL     1      -4.598  -0.666  -5.696  0.00  0.00    +0.106 C 
ATOM     31  N   UNL     1      -4.692  -0.946  -6.972  0.00  0.00    -0.279 NA
ENDBRANCH  22  23
ENDBRANCH  20  22
ENDBRANCH  17  18
ENDBRANCH   7  17
TORSDOF 6
