REMARK  Name = ZINC20257581
REMARK  5 active torsions:
REMARK  status: ('A' for Active; 'I' for Inactive)
REMARK    1  A    between atoms: C_1  and  C_2
REMARK    2  A    between atoms: N_8  and  S_9
REMARK    3  A    between atoms: S_9  and  N_12
REMARK    4  A    between atoms: N_12  and  C_13
REMARK    5  A    between atoms: C_18  and  N_19
REMARK                            x       y       z     vdW  Elec       q    Type
REMARK                         _______ _______ _______ _____ _____    ______ ____
ROOT
ATOM      1  N   UNL     1       0.557   1.524   2.856  0.00  0.00    -0.205 N 
ATOM      2  H   UNL     1       0.527   2.475   2.668  0.00  0.00    +0.175 HD
ENDROOT
BRANCH   1   3
ATOM      3  C   UNL     1      -0.256   0.983   3.860  0.00  0.00    +0.070 A 
ATOM      4  C   UNL     1       0.205  -0.070   4.635  0.00  0.00    +0.026 A 
ATOM      5  C   UNL     1      -0.598  -0.603   5.626  0.00  0.00    +0.002 A 
ATOM      6  C   UNL     1      -1.863  -0.088   5.847  0.00  0.00    +0.002 A 
ATOM      7  C   UNL     1      -2.330   0.962   5.079  0.00  0.00    +0.024 A 
ATOM      8  C   UNL     1      -1.529   1.505   4.086  0.00  0.00    +0.047 A 
BRANCH   8   9
ATOM      9  N   UNL     1      -1.998   2.572   3.311  0.00  0.00    -0.357 N 
ATOM     10  H   UNL     1      -1.438   2.949   2.614  0.00  0.00    +0.142 HD
ATOM     11  H   UNL     1      -2.884   2.934   3.469  0.00  0.00    +0.142 HD
ENDBRANCH   8   9
ENDBRANCH   1   3
BRANCH   1  12
ATOM     12  S   UNL     1       1.568   0.540   1.989  0.00  0.00    +0.112 S 
ATOM     13  O   UNL     1       2.365  -0.159   2.936  0.00  0.00    -0.138 OA
ATOM     14  O   UNL     1       2.134   1.343   0.962  0.00  0.00    -0.138 OA
BRANCH  12  21
ATOM     15  C   UNL     1      -0.019   1.251  -0.244  0.00  0.00    +0.026 C 
ATOM     16  C   UNL     1      -0.137  -0.250   0.027  0.00  0.00    +0.078 C 
ATOM     17  C   UNL     1      -1.607  -0.620   0.243  0.00  0.00    +0.020 C 
ATOM     18  C   UNL     1      -1.705  -2.092   0.651  0.00  0.00    +0.003 C 
ATOM     19  C   UNL     1      -0.954  -2.310   1.966  0.00  0.00    +0.017 C 
ATOM     20  C   UNL     1       0.525  -1.960   1.769  0.00  0.00    +0.111 C 
ATOM     21  N   UNL     1       0.623  -0.593   1.237  0.00  0.00    -0.161 NA
ENDBRANCH  12  21
ENDBRANCH   1  12
TORSDOF 4
