REMARK  Name = ZINC39007710
REMARK  7 active torsions:
REMARK  status: ('A' for Active; 'I' for Inactive)
REMARK    1  A    between atoms: C_1  and  O_2
REMARK    2  A    between atoms: O_2  and  C_3
REMARK    3  A    between atoms: C_3  and  C_5
REMARK    4  A    between atoms: C_7  and  N_16
REMARK    5  A    between atoms: C_17  and  C_19
REMARK    6  A    between atoms: C_25  and  C_27
REMARK    7  A    between atoms: C_27  and  C_28
REMARK                            x       y       z     vdW  Elec       q    Type
REMARK                         _______ _______ _______ _____ _____    ______ ____
ROOT
ATOM      1  N   UNL     1      -0.859  -2.413   3.593  0.00  0.00    -0.286 N 
ATOM      2  C   UNL     1       0.176  -3.244   3.363  0.00  0.00    +0.221 C 
ATOM      3  O   UNL     1       0.162  -3.976   2.397  0.00  0.00    -0.275 OA
ATOM      4  H   UNL     1      -0.813  -1.769   4.318  0.00  0.00    +0.155 HD
ENDROOT
BRANCH   1   6
ATOM      5  C   UNL     1      -2.171  -3.329   1.575  0.00  0.00    +0.234 C 
ATOM      6  C   UNL     1      -1.971  -2.476   2.808  0.00  0.00    +0.053 C 
ATOM      7  C   UNL     1      -3.152  -1.773   2.974  0.00  0.00    +0.019 A 
ATOM      8  C   UNL     1      -3.571  -0.825   3.939  0.00  0.00    +0.026 A 
ATOM      9  C   UNL     1      -4.813  -0.285   3.855  0.00  0.00    +0.019 A 
ATOM     10  C   UNL     1      -5.699  -0.641   2.833  0.00  0.00    +0.017 A 
ATOM     11  C   UNL     1      -5.365  -1.541   1.877  0.00  0.00    +0.027 A 
ATOM     12  C   UNL     1      -4.083  -2.150   1.897  0.00  0.00    +0.045 A 
ATOM     13  N   UNL     1      -3.527  -3.039   1.097  0.00  0.00    -0.367 N 
ATOM     14 BR   UNL     1      -5.359   0.980   5.150  0.00  0.00    -0.050 Br
ATOM     15  H   UNL     1      -3.946  -3.437   0.318  0.00  0.00    +0.161 HD
BRANCH   5  16
ATOM     16  C   UNL     1      -1.159  -2.963   0.521  0.00  0.00    +0.335 C 
ATOM     17  O   UNL     1      -1.262  -1.918  -0.078  0.00  0.00    -0.248 OA
BRANCH  16  19
ATOM     18  C   UNL     1       0.778  -3.385  -0.765  0.00  0.00    +0.280 C 
ATOM     19  O   UNL     1      -0.144  -3.796   0.247  0.00  0.00    -0.466 OA
ENDBRANCH  16  19
ENDBRANCH   5  16
ENDBRANCH   1   6
BRANCH   2  20
ATOM     20  C   UNL     1       1.352  -3.263   4.306  0.00  0.00    +0.083 C 
ATOM     21  C   UNL     1       2.569  -3.863   3.599  0.00  0.00    +0.040 C 
ATOM     22  C   UNL     1       2.367  -5.334   3.381  0.00  0.00    -0.030 C 
ATOM     23  C   UNL     1       1.485  -6.045   4.006  0.00  0.00    -0.031 C 
ATOM     24  C   UNL     1       0.532  -5.496   5.028  0.00  0.00    +0.031 C 
ATOM     25  C   UNL     1       1.018  -4.130   5.527  0.00  0.00    +0.009 C 
BRANCH  25  26
ATOM     26  C   UNL     1      -0.079  -3.455   6.352  0.00  0.00    +0.039 C 
BRANCH  26  27
ATOM     27  C   UNL     1      -0.317  -4.245   7.613  0.00  0.00    -0.047 A 
ATOM     28  C   UNL     1      -1.250  -5.265   7.624  0.00  0.00    +0.003 A 
ATOM     29  C   UNL     1      -1.468  -5.990   8.780  0.00  0.00    +0.000 A 
ATOM     30  C   UNL     1      -0.753  -5.695   9.926  0.00  0.00    +0.000 A 
ATOM     31  C   UNL     1       0.180  -4.676   9.915  0.00  0.00    +0.000 A 
ATOM     32  C   UNL     1       0.402  -3.954   8.758  0.00  0.00    +0.003 A 
ENDBRANCH  26  27
ENDBRANCH  25  26
ENDBRANCH   2  20
TORSDOF 6
