REMARK  Name = ZINC35484524
REMARK  12 active torsions:
REMARK  status: ('A' for Active; 'I' for Inactive)
REMARK    1  A    between atoms: C_1  and  C_2
REMARK    2  A    between atoms: C_2  and  N_3
REMARK    3  A    between atoms: N_3  and  C_4
REMARK    4  A    between atoms: N_3  and  C_6
REMARK    5  A    between atoms: C_4  and  C_5
REMARK    6  A    between atoms: C_6  and  C_7
REMARK    7  A    between atoms: C_7  and  N_8
REMARK    8  A    between atoms: C_9  and  C_29
REMARK    9  A    between atoms: C_11  and  C_12
REMARK   10  A    between atoms: C_12  and  C_13
REMARK   11  A    between atoms: C_14  and  C_23
REMARK   12  A    between atoms: C_19  and  C_22
REMARK                            x       y       z     vdW  Elec       q    Type
REMARK                         _______ _______ _______ _____ _____    ______ ____
ROOT
ATOM      1  N   UNL     1      -0.664  -3.433   2.027  0.00  0.00    -0.285 N 
ATOM      2  C   UNL     1      -1.411  -4.267   2.975  0.00  0.00    +0.147 C 
ATOM      3  C   UNL     1      -0.723  -5.612   2.985  0.00  0.00    +0.078 C 
ATOM      4  C   UNL     1       0.313  -5.527   2.119  0.00  0.00    +0.249 C 
ATOM      5  O   UNL     1       1.183  -6.525   1.837  0.00  0.00    -0.282 OA
ATOM      6  C   UNL     1       0.339  -4.175   1.524  0.00  0.00    +0.288 C 
ATOM      7  O   UNL     1       1.149  -3.789   0.704  0.00  0.00    -0.266 OA
ENDROOT
BRANCH   2   8
ATOM      8  C   UNL     1      -1.368  -3.653   4.351  0.00  0.00    +0.013 A 
ATOM      9  C   UNL     1      -0.325  -2.818   4.703  0.00  0.00    +0.008 A 
ATOM     10  C   UNL     1      -0.285  -2.255   5.965  0.00  0.00    +0.001 A 
ATOM     11  C   UNL     1      -1.290  -2.525   6.875  0.00  0.00    +0.003 A 
ATOM     12  C   UNL     1      -2.335  -3.359   6.525  0.00  0.00    +0.039 A 
ATOM     13  C   UNL     1      -2.378  -3.920   5.260  0.00  0.00    +0.129 A 
ATOM     14  F   UNL     1      -3.401  -4.731   4.914  0.00  0.00    -0.205 F 
ENDBRANCH   2   8
BRANCH   3  15
ATOM     15  C   UNL     1      -1.104  -6.783   3.780  0.00  0.00    +0.215 C 
ATOM     16  O   UNL     1      -0.362  -7.194   4.653  0.00  0.00    -0.285 OA
BRANCH  15  17
ATOM     17  C   UNL     1      -2.388  -7.464   3.522  0.00  0.00    +0.133 A 
ATOM     18  C   UNL     1      -2.916  -8.503   4.257  0.00  0.00    +0.051 A 
ATOM     19  N   UNL     1      -4.107  -8.830   3.682  0.00  0.00    -0.303 N 
ATOM     20  C   UNL     1      -5.046  -9.775   3.989  0.00  0.00    +0.093 A 
ATOM     21  C   UNL     1      -6.164  -9.899   3.245  0.00  0.00    +0.018 A 
ATOM     22  C   UNL     1      -6.380  -9.056   2.141  0.00  0.00    +0.008 A 
ATOM     23  C   UNL     1      -5.456  -8.112   1.823  0.00  0.00    -0.008 A 
ATOM     24  C   UNL     1      -4.289  -7.992   2.610  0.00  0.00    +0.141 A 
ATOM     25  N   UNL     1      -3.252  -7.175   2.532  0.00  0.00    -0.224 NA
ATOM     26  C   UNL     1      -5.674  -7.201   0.643  0.00  0.00    +0.047 C 
ATOM     27  C   UNL     1      -2.295  -9.154   5.466  0.00  0.00    +0.066 C 
ENDBRANCH  15  17
ENDBRANCH   3  15
BRANCH   1  28
ATOM     28  C   UNL     1      -0.962  -2.040   1.683  0.00  0.00    +0.090 C 
BRANCH  28  29
ATOM     29  C   UNL     1      -1.929  -2.002   0.499  0.00  0.00    -0.060 C 
BRANCH  29  30
ATOM     30  N   UNL     1      -2.228  -0.606   0.154  0.00  0.00    +0.380 N 
ATOM     31  H   UNL     1      -2.573  -0.124   0.971  0.00  0.00    -0.082 HD
BRANCH  30  33
ATOM     32  C   UNL     1      -1.277   1.544  -0.531  0.00  0.00    -0.017 C 
ATOM     33  C   UNL     1      -1.004   0.053  -0.322  0.00  0.00    -0.082 C 
ENDBRANCH  30  33
BRANCH  30  34
ATOM     34  C   UNL     1      -3.247  -0.569  -0.903  0.00  0.00    -0.082 C 
ATOM     35  C   UNL     1      -4.568  -1.114  -0.356  0.00  0.00    -0.017 C 
ENDBRANCH  30  34
ENDBRANCH  29  30
ENDBRANCH  28  29
ENDBRANCH   1  28
TORSDOF 8
