REMARK  Name = ZINC06242629
REMARK  8 active torsions:
REMARK  status: ('A' for Active; 'I' for Inactive)
REMARK    1  A    between atoms: C_1  and  C_2
REMARK    2  A    between atoms: C_5  and  N_9
REMARK    3  A    between atoms: C_7  and  C_8
REMARK    4  A    between atoms: C_19  and  N_20
REMARK    5  A    between atoms: N_20  and  C_21
REMARK    6  A    between atoms: C_26  and  S_27
REMARK    7  A    between atoms: S_27  and  N_30
REMARK    8  A    between atoms: N_30  and  C_31
REMARK                            x       y       z     vdW  Elec       q    Type
REMARK                         _______ _______ _______ _____ _____    ______ ____
ROOT
ATOM      1  N   UNL     1       0.510  -4.872  -0.150  0.00  0.00    -0.202 N 
ATOM      2  C   UNL     1       0.730  -5.677   0.902  0.00  0.00    +0.258 C 
ATOM      3  O   UNL     1       0.927  -5.189   1.998  0.00  0.00    -0.269 OA
ATOM      4  C   UNL     1       0.737  -7.138   0.751  0.00  0.00    +0.046 A 
ATOM      5  C   UNL     1       0.964  -7.981   1.839  0.00  0.00    +0.014 A 
ATOM      6  C   UNL     1       0.962  -9.347   1.657  0.00  0.00    +0.001 A 
ATOM      7  C   UNL     1       0.736  -9.893   0.402  0.00  0.00    +0.001 A 
ATOM      8  C   UNL     1       0.510  -9.078  -0.688  0.00  0.00    +0.009 A 
ATOM      9  C   UNL     1       0.508  -7.698  -0.524  0.00  0.00    +0.000 A 
ATOM     10  C   UNL     1       0.270  -6.779  -1.657  0.00  0.00    +0.059 C 
ATOM     11  C   UNL     1       0.040  -7.264  -2.926  0.00  0.00    +0.085 C 
ATOM     12  C   UNL     1       0.281  -5.337  -1.389  0.00  0.00    +0.259 C 
ATOM     13  O   UNL     1       0.083  -4.553  -2.300  0.00  0.00    -0.269 OA
ENDROOT
BRANCH   1  18
ATOM     14  C   UNL     1       0.530   0.741   0.682  0.00  0.00    +0.044 C 
ATOM     15  C   UNL     1       0.524  -0.749   0.461  0.00  0.00    -0.047 A 
ATOM     16  C   UNL     1      -0.459  -1.530   1.041  0.00  0.00    +0.005 A 
ATOM     17  C   UNL     1      -0.467  -2.896   0.840  0.00  0.00    +0.024 A 
ATOM     18  C   UNL     1       0.515  -3.486   0.055  0.00  0.00    +0.045 A 
ATOM     19  C   UNL     1       1.501  -2.700  -0.526  0.00  0.00    +0.027 A 
ATOM     20  C   UNL     1       1.500  -1.333  -0.326  0.00  0.00    -0.046 A 
ATOM     21  C   UNL     1       2.567  -0.479  -0.960  0.00  0.00    +0.044 C 
ENDBRANCH   1  18
BRANCH  11  22
ATOM     22  N   UNL     1      -0.026  -6.406  -3.979  0.00  0.00    -0.318 N 
ATOM     23  H   UNL     1       0.170  -5.465  -3.851  0.00  0.00    +0.152 HD
BRANCH  22  24
ATOM     24  C   UNL     1      -0.378  -6.881  -5.245  0.00  0.00    +0.058 A 
ATOM     25  C   UNL     1      -0.552  -8.243  -5.455  0.00  0.00    +0.025 A 
ATOM     26  C   UNL     1      -0.900  -8.709  -6.707  0.00  0.00    +0.002 A 
ATOM     27  C   UNL     1      -1.075  -7.821  -7.753  0.00  0.00    +0.002 A 
ATOM     28  C   UNL     1      -0.902  -6.464  -7.548  0.00  0.00    +0.031 A 
ATOM     29  C   UNL     1      -0.559  -5.991  -6.296  0.00  0.00    +0.129 A 
BRANCH  29  30
ATOM     30  S   UNL     1      -0.347  -4.262  -6.035  0.00  0.00    +0.074 S 
ATOM     31  O   UNL     1      -0.543  -3.633  -7.294  0.00  0.00    -0.150 OA
ATOM     32  O   UNL     1      -1.116  -3.927  -4.888  0.00  0.00    -0.150 OA
BRANCH  30  33
ATOM     33  N   UNL     1       1.240  -4.020  -5.628  0.00  0.00    -0.216 N 
ATOM     34  H   UNL     1       1.471  -3.715  -4.736  0.00  0.00    +0.174 HD
BRANCH  33  35
ATOM     35  C   UNL     1       2.246  -4.254  -6.568  0.00  0.00    +0.048 A 
ATOM     36  C   UNL     1       2.224  -5.411  -7.337  0.00  0.00    +0.024 A 
ATOM     37  C   UNL     1       3.220  -5.639  -8.266  0.00  0.00    +0.002 A 
ATOM     38  C   UNL     1       4.239  -4.718  -8.431  0.00  0.00    +0.000 A 
ATOM     39  C   UNL     1       4.263  -3.566  -7.667  0.00  0.00    +0.002 A 
ATOM     40  C   UNL     1       3.268  -3.329  -6.740  0.00  0.00    +0.024 A 
ENDBRANCH  33  35
ENDBRANCH  30  33
ENDBRANCH  29  30
ENDBRANCH  22  24
ENDBRANCH  11  22
TORSDOF 6
