REMARK  Name = ZINC10514670
REMARK  6 active torsions:
REMARK  status: ('A' for Active; 'I' for Inactive)
REMARK    1  A    between atoms: C_1  and  C_2
REMARK    2  A    between atoms: C_2  and  C_3
REMARK    3  A    between atoms: C_6  and  S_9
REMARK    4  A    between atoms: S_9  and  N_12
REMARK    5  A    between atoms: C_20  and  S_22
REMARK    6  A    between atoms: S_22  and  N_25
REMARK                            x       y       z     vdW  Elec       q    Type
REMARK                         _______ _______ _______ _____ _____    ______ ____
ROOT
ATOM      1  N   UNL     1       3.300  -0.612  -5.813  0.00  0.00    -0.203 N 
ATOM      2  C   UNL     1       2.459  -0.076  -6.892  0.00  0.00    +0.132 C 
ATOM      3  C   UNL     1       3.371   0.245  -8.083  0.00  0.00    +0.025 C 
ATOM      4  C   UNL     1       4.356   1.338  -7.670  0.00  0.00    +0.039 C 
ATOM      5  C   UNL     1       5.048   0.966  -6.385  0.00  0.00    -0.023 A 
ATOM      6  C   UNL     1       4.506   0.031  -5.514  0.00  0.00    +0.055 A 
ATOM      7  C   UNL     1       5.165  -0.282  -4.330  0.00  0.00    +0.027 A 
ATOM      8  C   UNL     1       6.357   0.339  -4.017  0.00  0.00    +0.030 A 
ATOM      9  C   UNL     1       6.896   1.273  -4.883  0.00  0.00    +0.105 A 
ATOM     10  C   UNL     1       6.247   1.580  -6.068  0.00  0.00    +0.034 A 
ENDROOT
BRANCH   1  11
ATOM     11  S   UNL     1       2.826  -1.951  -4.962  0.00  0.00    +0.075 S 
ATOM     12  O   UNL     1       4.014  -2.597  -4.527  0.00  0.00    -0.150 OA
ATOM     13  O   UNL     1       1.846  -2.609  -5.753  0.00  0.00    -0.150 OA
BRANCH  11  17
ATOM     14  C   UNL     1       0.712  -0.490  -1.235  0.00  0.00    -0.048 A 
ATOM     15  C   UNL     1      -0.007  -0.718  -2.393  0.00  0.00    +0.005 A 
ATOM     16  C   UNL     1       0.638  -1.163  -3.532  0.00  0.00    +0.029 A 
ATOM     17  C   UNL     1       2.003  -1.381  -3.512  0.00  0.00    +0.109 A 
ATOM     18  C   UNL     1       2.723  -1.153  -2.353  0.00  0.00    +0.029 A 
ATOM     19  C   UNL     1       2.078  -0.703  -1.217  0.00  0.00    +0.005 A 
BRANCH  14  21
ATOM     20  C   UNL     1      -0.011   1.526   0.015  0.00  0.00    +0.009 C 
ATOM     21  C   UNL     1       0.009  -0.004   0.006  0.00  0.00    +0.032 C 
ENDBRANCH  14  21
ENDBRANCH  11  17
ENDBRANCH   1  11
BRANCH   9  22
ATOM     22  S   UNL     1       8.419   2.064  -4.485  0.00  0.00    +0.056 S 
ATOM     23  O   UNL     1       8.435   3.295  -5.195  0.00  0.00    -0.153 OA
ATOM     24  O   UNL     1       8.555   1.998  -3.072  0.00  0.00    -0.153 OA
BRANCH  22  25
ATOM     25  N   UNL     1       9.634   1.135  -5.121  0.00  0.00    -0.204 NA
ATOM     26  H   UNL     1       9.421   0.323  -5.605  0.00  0.00    +0.144 HD
ATOM     27  H   UNL     1      10.559   1.404  -5.008  0.00  0.00    +0.144 HD
ENDBRANCH  22  25
ENDBRANCH   9  22
TORSDOF 5
