REMARK  Name = ZINC14472399
REMARK  5 active torsions:
REMARK  status: ('A' for Active; 'I' for Inactive)
REMARK    1  A    between atoms: C_1  and  C_2
REMARK    2  A    between atoms: C_2  and  C_3
REMARK    3  A    between atoms: N_5  and  C_6
REMARK    4  A    between atoms: C_19  and  C_22
REMARK    5  A    between atoms: C_26  and  N_28
REMARK                            x       y       z     vdW  Elec       q    Type
REMARK                         _______ _______ _______ _____ _____    ______ ____
ROOT
ATOM      1  C   UNL     1      -8.371   4.837   1.079  0.00  0.00    +0.034 A 
ATOM      2  C   UNL     1      -8.551   4.514  -0.259  0.00  0.00    +0.025 A 
ATOM      3  C   UNL     1      -7.771   3.541  -0.847  0.00  0.00    +0.025 A 
ATOM      4  C   UNL     1      -6.798   2.878  -0.108  0.00  0.00    +0.031 A 
ATOM      5  C   UNL     1      -6.609   3.217   1.236  0.00  0.00    -0.018 A 
ATOM      6  C   UNL     1      -7.397   4.184   1.822  0.00  0.00    +0.029 A 
ATOM      7  C   UNL     1      -5.534   2.518   1.973  0.00  0.00    +0.049 C 
ATOM      8  C   UNL     1      -5.591   2.321   3.444  0.00  0.00    -0.023 C 
ATOM      9  C   UNL     1      -4.967   1.188   3.745  0.00  0.00    -0.030 C 
ATOM     10  C   UNL     1      -4.466   0.512   2.468  0.00  0.00    +0.033 C 
ATOM     11  C   UNL     1      -5.461   1.052   1.441  0.00  0.00    +0.029 C 
ATOM     12  C   UNL     1      -4.964   1.168   0.011  0.00  0.00    +0.105 C 
ATOM     13  N   UNL     1      -6.028   1.881  -0.727  0.00  0.00    -0.336 N 
ATOM     14  H   UNL     1      -6.198   1.656  -1.655  0.00  0.00    +0.147 HD
ENDROOT
BRANCH  12  15
ATOM     15  C   UNL     1      -3.681   1.957  -0.032  0.00  0.00    -0.025 A 
ATOM     16  C   UNL     1      -3.720   3.332  -0.174  0.00  0.00    +0.005 A 
ATOM     17  C   UNL     1      -2.543   4.056  -0.213  0.00  0.00    +0.003 A 
ATOM     18  C   UNL     1      -1.328   3.407  -0.106  0.00  0.00    +0.033 A 
ATOM     19  C   UNL     1      -1.289   2.032   0.032  0.00  0.00    +0.127 A 
ATOM     20  C   UNL     1      -2.466   1.307   0.072  0.00  0.00    +0.038 A 
BRANCH  19  21
ATOM     21  N   UNL     1       0.013   1.336   0.143  0.00  0.00    +0.056 N 
ATOM     22  O   UNL     1       0.047   0.125   0.270  0.00  0.00    -0.126 OA
ATOM     23  O   UNL     1       1.050   1.974   0.103  0.00  0.00    -0.126 OA
ENDBRANCH  19  21
ENDBRANCH  12  15
BRANCH   1  26
ATOM     24  C   UNL     1     -10.448   5.982   1.285  0.00  0.00    +0.217 C 
ATOM     25  O   UNL     1     -10.937   5.217   0.480  0.00  0.00    -0.275 OA
ATOM     26  N   UNL     1      -9.169   5.821   1.678  0.00  0.00    -0.285 N 
ATOM     27  H   UNL     1      -8.802   6.386   2.376  0.00  0.00    +0.155 HD
BRANCH  24  29
ATOM     28  C   UNL     1     -12.676   7.070   1.238  0.00  0.00    +0.013 C 
ATOM     29  C   UNL     1     -11.272   7.113   1.845  0.00  0.00    +0.093 C 
ENDBRANCH  24  29
ENDBRANCH   1  26
TORSDOF 4
