REMARK  Name = ZINC36548331
REMARK  7 active torsions:
REMARK  status: ('A' for Active; 'I' for Inactive)
REMARK    1  A    between atoms: C_5  and  N_7
REMARK    2  A    between atoms: N_7  and  C_8
REMARK    3  A    between atoms: C_8  and  C_10
REMARK    4  A    between atoms: C_8  and  C_17
REMARK    5  A    between atoms: C_13  and  O_16
REMARK    6  A    between atoms: N_19  and  C_20
REMARK    7  A    between atoms: C_26  and  C_28
REMARK                            x       y       z     vdW  Elec       q    Type
REMARK                         _______ _______ _______ _____ _____    ______ ____
ROOT
ATOM      1  C   UNL     1       1.168  -2.726  -1.335  0.00  0.00    +0.197 C 
ENDROOT
BRANCH   1   2
ATOM      2  C   UNL     1       0.104  -1.666  -1.454  0.00  0.00    -0.018 A 
ATOM      3  C   UNL     1       0.253  -0.462  -0.791  0.00  0.00    +0.009 A 
ATOM      4  C   UNL     1      -0.721   0.512  -0.898  0.00  0.00    +0.046 A 
ATOM      5  C   UNL     1      -1.849   0.281  -1.673  0.00  0.00    +0.117 A 
ATOM      6  C   UNL     1      -1.995  -0.927  -2.338  0.00  0.00    +0.046 A 
ATOM      7  C   UNL     1      -1.016  -1.896  -2.232  0.00  0.00    +0.009 A 
BRANCH   5   8
ATOM      8  O   UNL     1      -2.808   1.238  -1.780  0.00  0.00    -0.507 OA
ATOM      9  H   UNL     1      -2.672   1.852  -2.514  0.00  0.00    +0.292 HD
ENDBRANCH   5   8
ENDBRANCH   1   2
BRANCH   1  10
ATOM     10  C   UNL     1       2.359  -2.340  -2.174  0.00  0.00    +0.239 C 
ATOM     11  O   UNL     1       3.156  -1.526  -1.758  0.00  0.00    -0.273 OA
ATOM     12  N   UNL     1       2.538  -2.899  -3.388  0.00  0.00    -0.311 N 
ATOM     13  H   UNL     1       1.901  -3.550  -3.721  0.00  0.00    +0.149 HD
BRANCH  12  14
ATOM     14  C   UNL     1       3.696  -2.524  -4.203  0.00  0.00    +0.073 C 
ATOM     15  C   UNL     1       3.371  -1.257  -4.997  0.00  0.00    +0.022 C 
ATOM     16  C   UNL     1       4.580  -0.865  -5.849  0.00  0.00    +0.002 C 
ATOM     17  C   UNL     1       4.912  -2.002  -6.817  0.00  0.00    +0.000 C 
ATOM     18  C   UNL     1       5.237  -3.269  -6.023  0.00  0.00    +0.002 C 
ATOM     19  C   UNL     1       4.029  -3.661  -5.171  0.00  0.00    +0.022 C 
ENDBRANCH  12  14
ENDBRANCH   1  10
BRANCH   1  20
ATOM     20  N   UNL     1       1.578  -2.852   0.066  0.00  0.00    -0.252 N 
ATOM     21  C   UNL     1       0.659  -3.117   1.015  0.00  0.00    +0.241 C 
ATOM     22  O   UNL     1      -0.507  -3.252   0.710  0.00  0.00    -0.273 OA
BRANCH  20  27
ATOM     23  C   UNL     1       4.719  -1.313   1.201  0.00  0.00    +0.002 A 
ATOM     24  C   UNL     1       5.585  -2.388   1.113  0.00  0.00    +0.002 A 
ATOM     25  C   UNL     1       5.124  -3.617   0.678  0.00  0.00    +0.022 A 
ATOM     26  C   UNL     1       3.796  -3.775   0.330  0.00  0.00    +0.062 A 
ATOM     27  C   UNL     1       2.924  -2.696   0.418  0.00  0.00    +0.056 A 
ATOM     28  C   UNL     1       3.390  -1.464   0.855  0.00  0.00    +0.025 A 
ATOM     29 CL   UNL     1       3.218  -5.317  -0.216  0.00  0.00    -0.082 Cl
ENDBRANCH  20  27
BRANCH  21  30
ATOM     30  C   UNL     1       1.081  -3.246   2.456  0.00  0.00    +0.160 C 
ATOM     31  C   UNL     1       1.651  -4.657   2.722  0.00  0.00    +0.041 C 
ATOM     32  C   UNL     1       0.401  -5.413   3.227  0.00  0.00    +0.098 C 
ATOM     33  C   UNL     1      -0.491  -4.325   3.783  0.00  0.00    +0.214 C 
ATOM     34  O   UNL     1      -1.436  -4.511   4.521  0.00  0.00    -0.276 OA
ATOM     35  N   UNL     1      -0.085  -3.121   3.340  0.00  0.00    -0.304 N 
ATOM     36  H   UNL     1      -0.506  -2.279   3.573  0.00  0.00    +0.149 HD
ENDBRANCH  21  30
ENDBRANCH   1  20
TORSDOF 7
