REMARK  Name = ZINC12544827
REMARK  12 active torsions:
REMARK  status: ('A' for Active; 'I' for Inactive)
REMARK    1  A    between atoms: C_1  and  C_2
REMARK    2  A    between atoms: C_2  and  C_3
REMARK    3  A    between atoms: N_5  and  C_6
REMARK    4  A    between atoms: C_10  and  N_13
REMARK    5  A    between atoms: C_11  and  C_12
REMARK    6  A    between atoms: N_13  and  S_14
REMARK    7  A    between atoms: S_14  and  C_17
REMARK    8  A    between atoms: C_18  and  C_27
REMARK    9  A    between atoms: C_19  and  C_26
REMARK   10  A    between atoms: C_20  and  C_25
REMARK   11  A    between atoms: C_21  and  C_24
REMARK   12  A    between atoms: C_22  and  C_23
REMARK                            x       y       z     vdW  Elec       q    Type
REMARK                         _______ _______ _______ _____ _____    ______ ____
ROOT
ATOM      1  N   UNL     1      -5.036   1.275  -0.114  0.00  0.00    -0.216 N 
ATOM      2  H   UNL     1      -4.870   2.042  -0.684  0.00  0.00    +0.174 HD
ENDROOT
BRANCH   1   7
ATOM      3  C   UNL     1      -1.648   0.161   0.790  0.00  0.00    +0.038 A 
ATOM      4  C   UNL     1      -1.878  -1.183   1.054  0.00  0.00    +0.024 A 
ATOM      5  C   UNL     1      -3.151  -1.704   0.931  0.00  0.00    +0.004 A 
ATOM      6  C   UNL     1      -4.200  -0.891   0.544  0.00  0.00    +0.025 A 
ATOM      7  C   UNL     1      -3.976   0.454   0.278  0.00  0.00    +0.053 A 
ATOM      8  C   UNL     1      -2.699   0.982   0.406  0.00  0.00    -0.007 A 
ATOM      9  C   UNL     1      -2.453   2.442   0.125  0.00  0.00    +0.047 C 
BRANCH   3  12
ATOM     10  C   UNL     1       0.539   0.091   1.726  0.00  0.00    +0.217 C 
ATOM     11  O   UNL     1       0.199  -0.842   2.422  0.00  0.00    -0.275 OA
ATOM     12  N   UNL     1      -0.358   0.689   0.915  0.00  0.00    -0.285 N 
ATOM     13  H   UNL     1      -0.108   1.484   0.420  0.00  0.00    +0.155 HD
BRANCH  10  15
ATOM     14  C   UNL     1       2.768  -0.270   2.749  0.00  0.00    +0.013 C 
ATOM     15  C   UNL     1       1.964   0.577   1.760  0.00  0.00    +0.093 C 
ENDBRANCH  10  15
ENDBRANCH   3  12
ENDBRANCH   1   7
BRANCH   1  16
ATOM     16  S   UNL     1      -6.575   0.938   0.394  0.00  0.00    +0.073 S 
ATOM     17  O   UNL     1      -7.393   2.012  -0.050  0.00  0.00    -0.150 OA
ATOM     18  O   UNL     1      -6.834  -0.413   0.040  0.00  0.00    -0.150 OA
BRANCH  16  19
ATOM     19  C   UNL     1      -6.569   1.005   2.155  0.00  0.00    +0.115 A 
ATOM     20  C   UNL     1      -6.774  -0.147   2.891  0.00  0.00    -0.020 A 
ATOM     21  C   UNL     1      -6.764  -0.095   4.272  0.00  0.00    -0.043 A 
ATOM     22  C   UNL     1      -6.560   1.110   4.918  0.00  0.00    -0.044 A 
ATOM     23  C   UNL     1      -6.360   2.263   4.181  0.00  0.00    -0.043 A 
ATOM     24  C   UNL     1      -6.365   2.210   2.800  0.00  0.00    -0.020 A 
ATOM     25  C   UNL     1      -6.147   3.467   1.998  0.00  0.00    +0.046 C 
ATOM     26  C   UNL     1      -6.137   3.577   4.885  0.00  0.00    +0.044 C 
ATOM     27  C   UNL     1      -6.554   1.167   6.424  0.00  0.00    +0.044 C 
ATOM     28  C   UNL     1      -6.982  -1.352   5.075  0.00  0.00    +0.044 C 
ATOM     29  C   UNL     1      -7.002  -1.460   2.188  0.00  0.00    +0.046 C 
ENDBRANCH  16  19
ENDBRANCH   1  16
TORSDOF 5
