REMARK  Name = ZINC26741635
REMARK  6 active torsions:
REMARK  status: ('A' for Active; 'I' for Inactive)
REMARK    1  A    between atoms: C_1  and  S_2
REMARK    2  A    between atoms: S_2  and  N_5
REMARK    3  A    between atoms: N_5  and  C_6
REMARK    4  A    between atoms: N_16  and  C_19
REMARK    5  A    between atoms: C_19  and  C_20
REMARK    6  A    between atoms: C_20  and  C_21
REMARK                            x       y       z     vdW  Elec       q    Type
REMARK                         _______ _______ _______ _____ _____    ______ ____
ROOT
ATOM      1  C   UNL     1      -3.328  -0.504  -3.738  0.00  0.00    +0.051 A 
ATOM      2  C   UNL     1      -3.684  -1.733  -3.182  0.00  0.00    +0.025 A 
ATOM      3  C   UNL     1      -2.811  -2.401  -2.374  0.00  0.00    +0.017 A 
ATOM      4  C   UNL     1      -1.554  -1.851  -2.103  0.00  0.00    +0.059 A 
ATOM      5  C   UNL     1      -1.184  -0.614  -2.662  0.00  0.00    +0.134 A 
ATOM      6  C   UNL     1      -2.082   0.053  -3.478  0.00  0.00    +0.070 A 
ATOM      7  O   UNL     1       0.034  -0.077  -2.415  0.00  0.00    -0.485 OA
ATOM      8  C   UNL     1       0.739  -0.493  -1.247  0.00  0.00    +0.114 C 
ATOM      9  C   UNL     1       0.002  -0.004   0.002  0.00  0.00    +0.030 C 
ATOM     10  C   UNL     1      -0.019   1.526   0.010  0.00  0.00    -0.075 C 
ATOM     11  N   UNL     1       1.359   2.035   0.000  0.00  0.00    +0.380 N 
ATOM     12  C   UNL     1       2.070   1.619  -1.216  0.00  0.00    -0.075 C 
ATOM     13  C   UNL     1       2.153   0.091  -1.262  0.00  0.00    +0.030 C 
ATOM     14  C   UNL     1       0.823  -2.025  -1.218  0.00  0.00    +0.127 C 
ATOM     15  C   UNL     1      -0.601  -2.552  -1.230  0.00  0.00    +0.170 C 
ATOM     16  O   UNL     1      -0.935  -3.504  -0.555  0.00  0.00    -0.292 OA
ATOM     17  H   UNL     1       1.884   1.598   0.862  0.00  0.00    -0.082 HD
ENDROOT
BRANCH   1  18
ATOM     18  N   UNL     1      -4.226   0.168  -4.557  0.00  0.00    -0.221 N 
ATOM     19  H   UNL     1      -3.881   0.615  -5.502  0.00  0.00    +0.173 HD
BRANCH  18  21
ATOM     20  C   UNL     1      -5.799   1.310  -2.608  0.00  0.00    +0.218 C 
ATOM     21  S   UNL     1      -5.816   0.296  -4.113  0.00  0.00    +0.040 S 
ATOM     22  O   UNL     1      -6.433   1.009  -5.176  0.00  0.00    -0.155 OA
ATOM     23  O   UNL     1      -6.215  -1.032  -3.804  0.00  0.00    -0.155 OA
ENDBRANCH  18  21
ENDBRANCH   1  18
BRANCH  11  24
ATOM     24  C   UNL     1       1.381   3.497   0.148  0.00  0.00    -0.074 C 
BRANCH  24  25
ATOM     25  C   UNL     1       2.819   3.964   0.383  0.00  0.00    +0.017 C 
BRANCH  25  26
ATOM     26  C   UNL     1       2.842   5.463   0.535  0.00  0.00    -0.041 A 
ATOM     27  C   UNL     1       3.105   6.256  -0.539  0.00  0.00    +0.004 A 
ATOM     28  C   UNL     1       3.130   7.644  -0.418  0.00  0.00    +0.001 A 
ATOM     29  C   UNL     1       2.892   8.247   0.779  0.00  0.00    +0.008 A 
ATOM     30  C   UNL     1       2.616   7.461   1.911  0.00  0.00    -0.018 A 
ATOM     31  C   UNL     1       2.586   6.050   1.786  0.00  0.00    -0.015 A 
ATOM     32  C   UNL     1       2.314   5.264   2.919  0.00  0.00    +0.009 A 
ATOM     33  C   UNL     1       2.076   5.867   4.116  0.00  0.00    +0.001 A 
ATOM     34  C   UNL     1       2.102   7.255   4.237  0.00  0.00    +0.001 A 
ATOM     35  C   UNL     1       2.366   8.048   3.163  0.00  0.00    +0.008 A 
ENDBRANCH  25  26
ENDBRANCH  24  25
ENDBRANCH  11  24
TORSDOF 5
