REMARK  Name = ZINC20615210
REMARK  3 active torsions:
REMARK  status: ('A' for Active; 'I' for Inactive)
REMARK    1  A    between atoms: C_12  and  C_29
REMARK    2  A    between atoms: N_14  and  N_15
REMARK    3  A    between atoms: C_16  and  C_18
REMARK                            x       y       z     vdW  Elec       q    Type
REMARK                         _______ _______ _______ _____ _____    ______ ____
ROOT
ATOM      1  C   UNL     1       2.100   1.855  -0.256  0.00  0.00    +0.001 A 
ATOM      2  C   UNL     1       0.842   2.370  -0.553  0.00  0.00    +0.001 A 
ATOM      3  C   UNL     1      -0.266   1.574  -0.514  0.00  0.00    +0.009 A 
ATOM      4  C   UNL     1      -0.138   0.225  -0.172  0.00  0.00    -0.007 A 
ATOM      5  C   UNL     1       1.142  -0.303   0.128  0.00  0.00    -0.017 A 
ATOM      6  C   UNL     1       2.261   0.545   0.080  0.00  0.00    +0.008 A 
ATOM      7  C   UNL     1       1.270  -1.663   0.467  0.00  0.00    +0.012 A 
ATOM      8  C   UNL     1       0.185  -2.481   0.502  0.00  0.00    +0.047 A 
ATOM      9  C   UNL     1      -1.097  -2.013   0.212  0.00  0.00    +0.138 A 
ATOM     10  C   UNL     1      -1.297  -0.665  -0.112  0.00  0.00    +0.026 A 
ATOM     11  C   UNL     1      -2.598  -0.180  -0.381  0.00  0.00    +0.030 A 
ATOM     12  C   UNL     1      -3.677  -1.010  -0.114  0.00  0.00    +0.098 A 
ATOM     13  C   UNL     1      -3.378  -2.338   0.468  0.00  0.00    +0.224 A 
ATOM     14  N   UNL     1      -4.261  -2.976   1.191  0.00  0.00    -0.273 N 
ATOM     15  O   UNL     1      -2.149  -2.871   0.220  0.00  0.00    -0.437 OA
ATOM     16  H   UNL     1      -4.080  -4.020   1.485  0.00  0.00    +0.188 HD
ENDROOT
BRANCH  12  17
ATOM     17  C   UNL     1      -5.058  -0.589  -0.397  0.00  0.00    +0.247 C 
ATOM     18  O   UNL     1      -5.386   0.571  -0.231  0.00  0.00    -0.270 OA
ATOM     19  N   UNL     1      -5.959  -1.488  -0.839  0.00  0.00    -0.325 N 
ATOM     20  H   UNL     1      -6.992  -1.173  -1.050  0.00  0.00    +0.145 HD
ATOM     21  H   UNL     1      -5.662  -2.537  -0.988  0.00  0.00    +0.145 HD
ENDBRANCH  12  17
BRANCH  14  22
ATOM     22  N   UNL     1      -5.437  -2.329   1.592  0.00  0.00    -0.222 N 
ATOM     23  C   UNL     1      -6.400  -3.019   2.234  0.00  0.00    +0.280 C 
ATOM     24  O   UNL     1      -6.248  -4.204   2.466  0.00  0.00    -0.267 OA
ATOM     25  H   UNL     1      -5.575  -1.258   1.382  0.00  0.00    +0.176 HD
BRANCH  23  26
ATOM     26  C   UNL     1      -7.644  -2.335   2.658  0.00  0.00    +0.128 A 
ATOM     27  C   UNL     1      -8.639  -3.071   3.320  0.00  0.00    +0.034 A 
ATOM     28  C   UNL     1      -9.787  -2.451   3.721  0.00  0.00    +0.012 A 
ATOM     29  C   UNL     1      -9.937  -1.079   3.440  0.00  0.00    +0.000 A 
ATOM     30  C   UNL     1     -11.095  -0.381   3.817  0.00  0.00    +0.010 A 
ATOM     31  C   UNL     1     -11.207   0.945   3.529  0.00  0.00    +0.001 A 
ATOM     32  C   UNL     1     -10.185   1.621   2.862  0.00  0.00    +0.002 A 
ATOM     33  C   UNL     1      -9.049   0.977   2.482  0.00  0.00    +0.028 A 
ATOM     34  C   UNL     1      -8.896  -0.395   2.761  0.00  0.00    +0.072 A 
ATOM     35  N   UNL     1      -7.794  -1.050   2.399  0.00  0.00    -0.242 NA
ENDBRANCH  23  26
ENDBRANCH  14  22
TORSDOF 3
