REMARK  Name = ZINC08790129
REMARK  5 active torsions:
REMARK  status: ('A' for Active; 'I' for Inactive)
REMARK    1  A    between atoms: C_4  and  C_7
REMARK    2  A    between atoms: N_25  and  C_28
REMARK    3  A    between atoms: C_33  and  C_34
REMARK    4  A    between atoms: N_36  and  C_37
REMARK    5  A    between atoms: C_37  and  C_38
REMARK                            x       y       z     vdW  Elec       q    Type
REMARK                         _______ _______ _______ _____ _____    ______ ____
ROOT
ATOM      1  C   UNL     1       1.973  -1.683   0.146  0.00  0.00    +0.155 C 
ATOM      2  C   UNL     1       1.060  -2.422   1.104  0.00  0.00    +0.046 A 
ATOM      3  C   UNL     1      -0.087  -1.906   1.593  0.00  0.00    -0.015 A 
ATOM      4  C   UNL     1      -0.665  -2.917   2.459  0.00  0.00    +0.003 A 
ATOM      5  C   UNL     1      -1.835  -2.949   3.224  0.00  0.00    +0.010 A 
ATOM      6  C   UNL     1      -2.076  -4.097   3.939  0.00  0.00    +0.001 A 
ATOM      7  C   UNL     1      -1.210  -5.177   3.911  0.00  0.00    +0.002 A 
ATOM      8  C   UNL     1      -0.046  -5.172   3.163  0.00  0.00    +0.026 A 
ATOM      9  C   UNL     1       0.225  -4.020   2.426  0.00  0.00    +0.047 A 
ATOM     10  N   UNL     1       1.258  -3.684   1.599  0.00  0.00    -0.356 N 
ATOM     11  H   UNL     1       2.016  -4.252   1.394  0.00  0.00    +0.166 HD
ATOM     12  C   UNL     1      -0.638  -0.535   1.290  0.00  0.00    +0.069 C 
ATOM     13  C   UNL     1       0.002  -0.004   0.002  0.00  0.00    +0.170 C 
ATOM     14  N   UNL     1       1.448  -0.316   0.049  0.00  0.00    -0.260 N 
ATOM     15  C   UNL     1       2.105   0.845   0.007  0.00  0.00    +0.317 C 
ATOM     16  O   UNL     1       3.317   0.937  -0.021  0.00  0.00    -0.252 OA
ATOM     17  N   UNL     1       1.274   1.897   0.000  0.00  0.00    -0.192 N 
ATOM     18  C   UNL     1      -0.018   1.511   0.010  0.00  0.00    +0.248 C 
ATOM     19  O   UNL     1      -0.996   2.229   0.019  0.00  0.00    -0.273 OA
ENDROOT
BRANCH   1  23
ATOM     20  C   UNL     1       5.961  -1.618   1.673  0.00  0.00    +0.000 A 
ATOM     21  C   UNL     1       5.626  -2.489   0.653  0.00  0.00    +0.000 A 
ATOM     22  C   UNL     1       4.335  -2.510   0.159  0.00  0.00    +0.006 A 
ATOM     23  C   UNL     1       3.380  -1.660   0.685  0.00  0.00    -0.021 A 
ATOM     24  C   UNL     1       3.717  -0.785   1.701  0.00  0.00    +0.006 A 
ATOM     25  C   UNL     1       5.006  -0.768   2.198  0.00  0.00    +0.000 A 
ENDBRANCH   1  23
BRANCH  17  26
ATOM     26  C   UNL     1       1.694   3.228  -0.016  0.00  0.00    +0.058 A 
ATOM     27  C   UNL     1       1.910   3.906   1.175  0.00  0.00    +0.025 A 
ATOM     28  C   UNL     1       2.326   5.222   1.157  0.00  0.00    +0.002 A 
ATOM     29  C   UNL     1       2.531   5.876  -0.047  0.00  0.00    +0.001 A 
ATOM     30  C   UNL     1       2.321   5.219  -1.240  0.00  0.00    +0.015 A 
ATOM     31  C   UNL     1       1.906   3.885  -1.237  0.00  0.00    +0.059 A 
BRANCH  31  32
ATOM     32  C   UNL     1       1.686   3.173  -2.510  0.00  0.00    +0.246 C 
ATOM     33  O   UNL     1       1.320   2.014  -2.504  0.00  0.00    -0.270 OA
ATOM     34  N   UNL     1       1.891   3.808  -3.682  0.00  0.00    -0.309 N 
ATOM     35  H   UNL     1       2.183   4.733  -3.687  0.00  0.00    +0.149 HD
BRANCH  34  36
ATOM     36  C   UNL     1       1.673   3.102  -4.946  0.00  0.00    +0.136 C 
BRANCH  36  37
ATOM     37  C   UNL     1       1.974   4.042  -6.115  0.00  0.00    +0.135 C 
ATOM     38  C   UNL     1       1.747   3.308  -7.450  0.00  0.00    +0.035 C 
ATOM     39  C   UNL     1       0.676   4.160  -8.174  0.00  0.00    +0.031 C 
ATOM     40  C   UNL     1       0.809   5.527  -7.456  0.00  0.00    +0.160 C 
ATOM     41  O   UNL     1       1.074   5.163  -6.085  0.00  0.00    -0.375 OA
ENDBRANCH  36  37
ENDBRANCH  34  36
ENDBRANCH  31  32
ENDBRANCH  17  26
TORSDOF 5
