REMARK  Name = ZINC20106494
REMARK  5 active torsions:
REMARK  status: ('A' for Active; 'I' for Inactive)
REMARK    1  A    between atoms: C_6  and  N_7
REMARK    2  A    between atoms: C_8  and  C_10
REMARK    3  A    between atoms: N_21  and  C_33
REMARK    4  A    between atoms: C_22  and  C_24
REMARK    5  A    between atoms: N_26  and  C_27
REMARK                            x       y       z     vdW  Elec       q    Type
REMARK                         _______ _______ _______ _____ _____    ______ ____
ROOT
ATOM      1  C   UNL     1       0.067   1.226   0.001  0.00  0.00    +0.123 C 
ATOM      2  C   UNL     1       1.572   1.632  -0.109  0.00  0.00    +0.155 C 
ATOM      3  C   UNL     1       1.611   3.153  -0.297  0.00  0.00    +0.004 C 
ATOM      4  C   UNL     1       1.292   3.708   0.879  0.00  0.00    +0.009 C 
ATOM      5  C   UNL     1       1.022   2.540   1.758  0.00  0.00    +0.127 C 
ATOM      6  C   UNL     1      -0.353   1.924   1.308  0.00  0.00    +0.128 C 
ATOM      7  C   UNL     1      -0.641   0.998   2.455  0.00  0.00    +0.224 C 
ATOM      8  O   UNL     1      -1.331   0.003   2.398  0.00  0.00    -0.275 OA
ATOM      9  N   UNL     1      -0.006   1.451   3.566  0.00  0.00    -0.283 N 
ATOM     10  C   UNL     1       0.856   2.614   3.244  0.00  0.00    +0.199 C 
ATOM     11  O   UNL     1       1.966   1.531   1.308  0.00  0.00    -0.358 OA
ENDROOT
BRANCH   9  12
ATOM     12  C   UNL     1      -0.152   0.869   4.903  0.00  0.00    +0.077 C 
ATOM     13  C   UNL     1       0.292  -0.595   4.873  0.00  0.00    +0.022 C 
ATOM     14  C   UNL     1       0.139  -1.202   6.269  0.00  0.00    +0.002 C 
ATOM     15  C   UNL     1      -1.326  -1.122   6.703  0.00  0.00    +0.000 C 
ATOM     16  C   UNL     1      -1.770   0.342   6.732  0.00  0.00    +0.002 C 
ATOM     17  C   UNL     1      -1.618   0.949   5.336  0.00  0.00    +0.022 C 
ENDBRANCH   9  12
BRANCH   1  19
ATOM     18  N   UNL     1      -0.455   1.312  -2.415  0.00  0.00    -0.285 N 
ATOM     19  C   UNL     1      -0.721   1.755  -1.170  0.00  0.00    +0.224 C 
ATOM     20  O   UNL     1      -1.594   2.578  -0.992  0.00  0.00    -0.275 OA
ATOM     21  H   UNL     1       0.392   0.632  -2.588  0.00  0.00    +0.155 HD
BRANCH  18  27
ATOM     22  C   UNL     1      -2.613   1.947  -3.295  0.00  0.00    +0.025 A 
ATOM     23  C   UNL     1      -3.401   2.352  -4.355  0.00  0.00    +0.022 A 
ATOM     24  C   UNL     1      -2.843   2.520  -5.610  0.00  0.00    +0.041 A 
ATOM     25  C   UNL     1      -1.493   2.287  -5.806  0.00  0.00    +0.022 A 
ATOM     26  C   UNL     1      -0.699   1.887  -4.748  0.00  0.00    +0.025 A 
ATOM     27  C   UNL     1      -1.257   1.718  -3.488  0.00  0.00    +0.033 A 
ATOM     28 CL   UNL     1      -3.838   3.022  -6.940  0.00  0.00    -0.084 Cl
ENDBRANCH  18  27
ENDBRANCH   1  19
BRANCH  10  29
ATOM     29  C   UNL     1       0.179   3.901   3.636  0.00  0.00    +0.237 C 
ATOM     30  O   UNL     1      -1.008   3.911   3.889  0.00  0.00    -0.274 OA
ATOM     31  N   UNL     1       0.891   5.043   3.707  0.00  0.00    -0.311 N 
ATOM     32  H   UNL     1       1.967   5.035   3.478  0.00  0.00    +0.149 HD
BRANCH  31  33
ATOM     33  C   UNL     1       0.233   6.295   4.088  0.00  0.00    +0.073 C 
ATOM     34  C   UNL     1      -0.397   6.938   2.851  0.00  0.00    +0.022 C 
ATOM     35  C   UNL     1      -1.085   8.245   3.250  0.00  0.00    +0.002 C 
ATOM     36  C   UNL     1      -0.052   9.201   3.851  0.00  0.00    +0.000 C 
ATOM     37  C   UNL     1       0.578   8.559   5.088  0.00  0.00    +0.002 C 
ATOM     38  C   UNL     1       1.266   7.251   4.689  0.00  0.00    +0.022 C 
ENDBRANCH  31  33
ENDBRANCH  10  29
TORSDOF 5
