REMARK  Name = ZINC39560024
REMARK  6 active torsions:
REMARK  status: ('A' for Active; 'I' for Inactive)
REMARK    1  A    between atoms: C_1  and  C_2
REMARK    2  A    between atoms: C_2  and  C_3
REMARK    3  A    between atoms: C_2  and  C_4
REMARK    4  A    between atoms: C_2  and  C_6
REMARK    5  A    between atoms: CA_13  and  CB_27
REMARK    6  A    between atoms: CB_27  and  CG_28
REMARK                            x       y       z     vdW  Elec       q    Type
REMARK                         _______ _______ _______ _____ _____    ______ ____
ROOT
ATOM      1  C   UNK A   2       1.039   0.108   0.194  0.00  0.00    +0.043 C 
ATOM      2  C   UNK A   2       0.529   0.766  -1.056  0.00  0.00    +0.048 C 
ATOM      3  C   UNK A   2      -0.075  -0.452  -1.725  0.00  0.00    +0.165 C 
ATOM      4  C   UNK A   2      -0.386  -0.536  -3.147  0.00  0.00    +0.234 C 
ATOM      5  O   UNK A   2      -0.333   0.438  -3.868  0.00  0.00    -0.274 OA
ATOM      6  N   TRP A   1      -0.741  -1.769  -3.631  0.00  0.00    -0.302 N 
ATOM      7  CA  TRP A   1      -0.939  -2.876  -2.683  0.00  0.00    +0.163 C 
ATOM      8  C   TRP A   1       0.178  -2.889  -1.651  0.00  0.00    +0.238 C 
ATOM      9  O   TRP A   1       0.671  -3.918  -1.241  0.00  0.00    -0.273 OA
ATOM     10  N   UNK A   2       0.595  -1.674  -1.238  0.00  0.00    -0.269 N 
ATOM     11  C   UNK A   2       1.690  -1.214  -0.409  0.00  0.00    +0.173 C 
ATOM     12  N   UNK A   2       1.973  -1.816   0.904  0.00  0.00    -0.325 N 
ATOM     13  C   UNK A   2       2.604  -0.741   1.594  0.00  0.00    +0.032 A 
ATOM     14  C   UNK A   2       2.067   0.492   1.154  0.00  0.00    -0.016 A 
ATOM     15  C   UNK A   2       2.573   1.664   1.671  0.00  0.00    +0.006 A 
ATOM     16  C   UNK A   2       3.573   1.643   2.624  0.00  0.00    +0.000 A 
ATOM     17  C   UNK A   2       4.081   0.438   3.073  0.00  0.00    +0.002 A 
ATOM     18  C   UNK A   2       3.596  -0.747   2.558  0.00  0.00    +0.023 A 
ATOM     19  H   TRP A   1      -0.860  -1.909  -4.583  0.00  0.00    +0.150 HD
ATOM     20  H   UNK A   2       1.780  -2.713   1.218  0.00  0.00    +0.148 HD
ENDROOT
BRANCH   1  22
ATOM     21  C   UNK A   2      -1.018   0.836   1.412  0.00  0.00    +0.016 C 
ATOM     22  C   UNK A   2      -0.177  -0.371   0.990  0.00  0.00    -0.004 C 
ATOM     23  C   UNK A   2       0.293  -1.126   2.235  0.00  0.00    +0.016 C 
BRANCH  22  24
ATOM     24  C   UNK A   2      -1.010  -1.288   0.131  0.00  0.00    -0.027 C 
ATOM     25  C   UNK A   2      -2.291  -1.060  -0.019  0.00  0.00    +0.004 C 
ENDBRANCH  22  24
ENDBRANCH   1  22
BRANCH   7  26
ATOM     26  CB  TRP A   1      -2.281  -2.700  -1.971  0.00  0.00    +0.069 C 
BRANCH  26  27
ATOM     27  CG  TRP A   1      -3.397  -3.127  -2.890  0.00  0.00    -0.020 A 
ATOM     28  CD2 TRP A   1      -3.896  -4.491  -3.078  0.00  0.00    +0.003 A 
ATOM     29  CE3 TRP A   1      -3.556  -5.732  -2.537  0.00  0.00    +0.010 A 
ATOM     30  CZ3 TRP A   1      -4.233  -6.853  -2.931  0.00  0.00    +0.001 A 
ATOM     31  CH2 TRP A   1      -5.256  -6.766  -3.865  0.00  0.00    +0.002 A 
ATOM     32  CZ2 TRP A   1      -5.608  -5.551  -4.411  0.00  0.00    +0.026 A 
ATOM     33  CE2 TRP A   1      -4.933  -4.399  -4.025  0.00  0.00    +0.047 A 
ATOM     34  NE1 TRP A   1      -5.044  -3.072  -4.377  0.00  0.00    -0.360 N 
ATOM     35  CD1 TRP A   1      -4.125  -2.329  -3.686  0.00  0.00    +0.087 A 
ATOM     36  HE1 TRP A   1      -5.682  -2.716  -5.016  0.00  0.00    +0.165 HD
ENDBRANCH  26  27
ENDBRANCH   7  26
TORSDOF 4
