REMARK  Name = ZINC02844360
REMARK  7 active torsions:
REMARK  status: ('A' for Active; 'I' for Inactive)
REMARK    1  A    between atoms: C_1  and  C_2
REMARK    2  A    between atoms: C_3  and  C_29
REMARK    3  A    between atoms: C_4  and  C_20
REMARK    4  A    between atoms: C_10  and  C_15
REMARK    5  A    between atoms: C_29  and  O_31
REMARK    6  A    between atoms: O_31  and  C_32
REMARK    7  A    between atoms: C_32  and  C_33
REMARK                            x       y       z     vdW  Elec       q    Type
REMARK                         _______ _______ _______ _____ _____    ______ ____
ROOT
ATOM      1  C   UNL     1      -3.878   5.990   3.949  0.00  0.00    +0.061 C 
ATOM      2  C   UNL     1      -3.733   5.401   2.570  0.00  0.00    +0.016 C 
ATOM      3  C   UNL     1      -4.399   5.947   1.537  0.00  0.00    +0.065 C 
ATOM      4  C   UNL     1      -4.286   5.383   0.152  0.00  0.00    +0.092 C 
ATOM      5  C   UNL     1      -3.075   4.492   0.027  0.00  0.00    +0.024 C 
ATOM      6  C   UNL     1      -2.462   4.004   1.127  0.00  0.00    +0.016 C 
ATOM      7  N   UNL     1      -2.926   4.315   2.377  0.00  0.00    -0.321 N 
ATOM      8  C   UNL     1      -1.253   3.110   1.010  0.00  0.00    +0.062 C 
ATOM      9  C   UNL     1      -1.336   2.300  -0.287  0.00  0.00    +0.068 C 
ATOM     10  C   UNL     1      -1.426   3.273  -1.467  0.00  0.00    +0.091 C 
ATOM     11  C   UNL     1      -2.608   4.182  -1.262  0.00  0.00    +0.162 C 
ATOM     12  O   UNL     1      -3.170   4.654  -2.230  0.00  0.00    -0.292 OA
ATOM     13  H   UNL     1      -2.644   3.681   3.230  0.00  0.00    +0.152 HD
ENDROOT
BRANCH   4  14
ATOM     14  C   UNL     1      -5.524   4.581  -0.159  0.00  0.00    -0.032 A 
ATOM     15  C   UNL     1      -5.838   3.473   0.606  0.00  0.00    +0.008 A 
ATOM     16  C   UNL     1      -6.972   2.735   0.325  0.00  0.00    +0.050 A 
ATOM     17  C   UNL     1      -7.797   3.104  -0.724  0.00  0.00    +0.166 A 
ATOM     18  C   UNL     1      -7.481   4.220  -1.494  0.00  0.00    +0.167 A 
ATOM     19  C   UNL     1      -6.346   4.959  -1.204  0.00  0.00    +0.054 A 
ATOM     20  O   UNL     1      -8.439   4.373  -2.455  0.00  0.00    -0.453 OA
ATOM     21  C   UNL     1      -9.558   3.584  -2.011  0.00  0.00    +0.466 C 
ATOM     22  O   UNL     1      -8.953   2.557  -1.202  0.00  0.00    -0.453 OA
ENDBRANCH   4  14
BRANCH   9  23
ATOM     23  C   UNL     1      -0.104   1.444  -0.429  0.00  0.00    +0.109 A 
ATOM     24  C   UNL     1      -0.086   0.102  -0.519  0.00  0.00    +0.045 A 
ATOM     25  C   UNL     1       1.270  -0.281  -0.645  0.00  0.00    +0.041 A 
ATOM     26  C   UNL     1       1.998   0.850  -0.625  0.00  0.00    +0.195 A 
ATOM     27  O   UNL     1       1.160   1.892  -0.494  0.00  0.00    -0.468 OA
ENDBRANCH   9  23
BRANCH   3  28
ATOM     28  C   UNL     1      -5.221   7.076   1.762  0.00  0.00    +0.338 C 
ATOM     29  O   UNL     1      -5.406   7.479   2.895  0.00  0.00    -0.245 OA
BRANCH  28  30
ATOM     30  O   UNL     1      -5.801   7.706   0.719  0.00  0.00    -0.457 OA
BRANCH  30  31
ATOM     31  C   UNL     1      -6.619   8.839   1.018  0.00  0.00    +0.268 C 
BRANCH  31  32
ATOM     32  C   UNL     1      -7.178   9.408  -0.260  0.00  0.00    -0.010 A 
ATOM     33  C   UNL     1      -6.482  10.388  -0.943  0.00  0.00    +0.007 A 
ATOM     34  C   UNL     1      -6.991  10.906  -2.119  0.00  0.00    +0.000 A 
ATOM     35  C   UNL     1      -8.203  10.452  -2.606  0.00  0.00    +0.000 A 
ATOM     36  C   UNL     1      -8.901   9.476  -1.921  0.00  0.00    +0.000 A 
ATOM     37  C   UNL     1      -8.389   8.954  -0.748  0.00  0.00    +0.007 A 
ENDBRANCH  31  32
ENDBRANCH  30  31
ENDBRANCH  28  30
ENDBRANCH   3  28
TORSDOF 6
