REMARK  Name = ZINC63426770
REMARK  15 active torsions:
REMARK  status: ('A' for Active; 'I' for Inactive)
REMARK    1  A    between atoms: C_1  and  C_2
REMARK    2  A    between atoms: C_5  and  N_9
REMARK    3  A    between atoms: C_6  and  C_8
REMARK    4  A    between atoms: C_10  and  C_12
REMARK    5  A    between atoms: C_12  and  S_13
REMARK    6  A    between atoms: S_13  and  C_14
REMARK    7  A    between atoms: C_18  and  C_21
REMARK    8  A    between atoms: C_21  and  C_23
REMARK    9  A    between atoms: C_21  and  N_33
REMARK   10  A    between atoms: C_23  and  C_24
REMARK   11  A    between atoms: C_34  and  O_36
REMARK   12  A    between atoms: O_36  and  C_37
REMARK   13  A    between atoms: C_37  and  C_38
REMARK   14  A    between atoms: C_37  and  C_39
REMARK   15  A    between atoms: C_37  and  C_40
REMARK                            x       y       z     vdW  Elec       q    Type
REMARK                         _______ _______ _______ _____ _____    ______ ____
ROOT
ATOM      1  C   UNL     1      -1.584 -10.261   0.232  0.00  0.00    +0.133 C 
ENDROOT
BRANCH   1   5
ATOM      2  C   UNL     1      -0.359  -8.743  -2.723  0.00  0.00    +0.319 C 
ATOM      3  N   UNL     1       0.807  -9.253  -1.990  0.00  0.00    -0.146 NA
ATOM      4  N   UNL     1       0.449 -10.082  -1.144  0.00  0.00    -0.155 NA
ATOM      5  C   UNL     1      -1.010 -10.248  -1.186  0.00  0.00    +0.280 C 
ATOM      6  O   UNL     1      -1.501  -9.104  -1.919  0.00  0.00    -0.316 OA
BRANCH   2   7
ATOM      7  S   UNL     1      -0.255  -6.941  -2.895  0.00  0.00    -0.095 S 
BRANCH   7   8
ATOM      8  C   UNL     1      -0.134  -6.343  -1.187  0.00  0.00    +0.169 C 
BRANCH   8  10
ATOM      9  N   UNL     1       0.059  -4.170  -0.021  0.00  0.00    -0.285 N 
ATOM     10  C   UNL     1      -0.040  -4.839  -1.187  0.00  0.00    +0.227 C 
ATOM     11  O   UNL     1      -0.054  -4.230  -2.236  0.00  0.00    -0.275 OA
ATOM     12  H   UNL     1       0.135  -4.658   0.814  0.00  0.00    +0.155 HD
BRANCH   9  17
ATOM     13  C   UNL     1       0.025   1.503   0.005  0.00  0.00    +0.044 C 
ATOM     14  C   UNL     1       0.034  -0.004  -0.002  0.00  0.00    -0.050 A 
ATOM     15  C   UNL     1       0.632  -0.685  -1.046  0.00  0.00    +0.005 A 
ATOM     16  C   UNL     1       0.641  -2.066  -1.055  0.00  0.00    +0.024 A 
ATOM     17  C   UNL     1       0.051  -2.771  -0.014  0.00  0.00    +0.036 A 
ATOM     18  C   UNL     1      -0.548  -2.083   1.033  0.00  0.00    -0.029 A 
ATOM     19  C   UNL     1      -0.550  -0.702   1.039  0.00  0.00    +0.008 A 
ATOM     20  C   UNL     1      -1.190  -2.843   2.165  0.00  0.00    +0.045 C 
ENDBRANCH   9  17
ENDBRANCH   8  10
ENDBRANCH   7   8
ENDBRANCH   2   7
ENDBRANCH   1   5
BRANCH   1  21
ATOM     21  N   UNL     1      -3.042 -10.392   0.167  0.00  0.00    -0.274 N 
ATOM     22  C   UNL     1      -3.595 -11.472  -0.418  0.00  0.00    +0.401 C 
ATOM     23  O   UNL     1      -2.886 -12.337  -0.892  0.00  0.00    -0.226 OA
ATOM     24  H   UNL     1      -3.608  -9.701   0.546  0.00  0.00    +0.152 HD
BRANCH  22  25
ATOM     25  O   UNL     1      -4.935 -11.593  -0.477  0.00  0.00    -0.445 OA
BRANCH  25  26
ATOM     26  C   UNL     1      -5.453 -12.764  -1.112  0.00  0.00    +0.107 C 
ATOM     27  C   UNL     1      -4.961 -14.007  -0.368  0.00  0.00    +0.055 C 
ATOM     28  C   UNL     1      -6.983 -12.725  -1.083  0.00  0.00    +0.055 C 
ATOM     29  C   UNL     1      -4.971 -12.813  -2.563  0.00  0.00    +0.055 C 
ENDBRANCH  25  26
ENDBRANCH  22  25
ENDBRANCH   1  21
BRANCH   1  30
ATOM     30  C   UNL     1      -0.999 -11.442   1.008  0.00  0.00    +0.060 C 
BRANCH  30  31
ATOM     31  C   UNL     1      -1.469 -11.384   2.439  0.00  0.00    -0.040 C 
ATOM     32  C   UNL     1      -2.530 -12.031   2.974  0.00  0.00    -0.001 A 
ATOM     33  C   UNL     1      -3.527 -12.945   2.405  0.00  0.00    +0.010 A 
ATOM     34  C   UNL     1      -4.494 -13.443   3.208  0.00  0.00    +0.001 A 
ATOM     35  C   UNL     1      -4.569 -13.108   4.567  0.00  0.00    +0.002 A 
ATOM     36  C   UNL     1      -3.689 -12.275   5.162  0.00  0.00    +0.026 A 
ATOM     37  C   UNL     1      -2.630 -11.693   4.412  0.00  0.00    +0.043 A 
ATOM     38  N   UNL     1      -1.668 -10.870   4.753  0.00  0.00    -0.380 N 
ATOM     39  C   UNL     1      -0.845 -10.597   3.570  0.00  0.00    +0.144 C 
ATOM     40  H   UNL     1      -1.523 -10.506   5.640  0.00  0.00    +0.160 HD
ENDBRANCH  30  31
ENDBRANCH   1  30
TORSDOF 10
