REMARK  Name = ZINC09172732
REMARK  6 active torsions:
REMARK  status: ('A' for Active; 'I' for Inactive)
REMARK    1  A    between atoms: C_1  and  C_2
REMARK    2  A    between atoms: C_2  and  C_3
REMARK    3  A    between atoms: C_3  and  C_4
REMARK    4  A    between atoms: C_4  and  C_5
REMARK    5  A    between atoms: C_5  and  C_6
REMARK    6  A    between atoms: C_6  and  N_7
REMARK                            x       y       z     vdW  Elec       q    Type
REMARK                         _______ _______ _______ _____ _____    ______ ____
ROOT
ATOM      1  N   UNL     1      -2.694   5.787  -2.235  0.00  0.00    -0.225 N 
ATOM      2  C   UNL     1      -3.080   5.071  -1.169  0.00  0.00    +0.241 C 
ATOM      3  O   UNL     1      -4.216   4.649  -1.123  0.00  0.00    -0.274 OA
ATOM      4  C   UNL     1      -2.146   4.777  -0.031  0.00  0.00    +0.150 C 
ATOM      5  C   UNL     1      -2.727   5.346   1.268  0.00  0.00    +0.072 C 
ATOM      6  C   UNL     1      -2.027   4.739   2.456  0.00  0.00    +0.057 A 
ATOM      7  C   UNL     1      -1.220   3.615   2.349  0.00  0.00    +0.109 A 
ATOM      8  N   UNL     1      -0.640   3.118   3.447  0.00  0.00    -0.329 N 
ATOM      9  C   UNL     1      -0.810   3.679   4.639  0.00  0.00    +0.119 A 
ATOM     10  C   UNL     1      -0.179   3.119   5.767  0.00  0.00    +0.045 A 
ATOM     11  C   UNL     1      -0.352   3.698   6.987  0.00  0.00    +0.005 A 
ATOM     12  C   UNL     1      -1.156   4.842   7.104  0.00  0.00    +0.018 A 
ATOM     13  C   UNL     1      -1.755   5.365   6.011  0.00  0.00    +0.096 A 
ATOM     14  N   UNL     1      -1.589   4.793   4.785  0.00  0.00    -0.269 N 
ATOM     15  C   UNL     1      -2.201   5.329   3.709  0.00  0.00    +0.263 A 
ATOM     16  O   UNL     1      -2.901   6.323   3.831  0.00  0.00    -0.267 OA
ATOM     17  N   UNL     1      -0.969   3.014   1.139  0.00  0.00    -0.307 N 
ATOM     18  C   UNL     1      -2.010   3.262   0.145  0.00  0.00    +0.129 C 
ATOM     19  C   UNL     1      -1.657   2.604  -1.160  0.00  0.00    -0.022 A 
ATOM     20  C   UNL     1      -2.286   3.035  -2.318  0.00  0.00    +0.006 A 
ATOM     21  C   UNL     1      -2.000   2.440  -3.530  0.00  0.00    +0.000 A 
ATOM     22  C   UNL     1      -1.080   1.409  -3.589  0.00  0.00    +0.000 A 
ATOM     23  C   UNL     1      -0.449   0.983  -2.438  0.00  0.00    +0.004 A 
ATOM     24  C   UNL     1      -0.733   1.581  -1.219  0.00  0.00    -0.041 A 
ATOM     25  C   UNL     1      -0.013   1.086   0.008  0.00  0.00    +0.054 C 
ATOM     26  C   UNL     1      -0.720   1.575   1.273  0.00  0.00    +0.112 C 
ATOM     27  C   UNL     1      -0.793   5.380  -0.283  0.00  0.00    +0.238 C 
ATOM     28  O   UNL     1       0.082   5.229   0.542  0.00  0.00    -0.274 OA
ATOM     29  N   UNL     1      -0.527   6.080  -1.395  0.00  0.00    -0.239 N 
ATOM     30  C   UNL     1      -1.451   6.280  -2.346  0.00  0.00    +0.315 C 
ATOM     31  O   UNL     1      -1.155   6.923  -3.333  0.00  0.00    -0.252 OA
ATOM     32  H   UNL     1       0.474   6.509  -1.547  0.00  0.00    +0.159 HD
ATOM     33  H   UNL     1      -0.004   2.224   3.376  0.00  0.00    +0.168 HD
ENDROOT
BRANCH   1  34
ATOM     34  C   UNL     1      -3.657   6.037  -3.311  0.00  0.00    +0.118 C 
BRANCH  34  35
ATOM     35  C   UNL     1      -4.414   7.335  -3.025  0.00  0.00    +0.019 C 
BRANCH  35  36
ATOM     36  C   UNL     1      -5.420   7.597  -4.148  0.00  0.00    +0.002 C 
BRANCH  36  37
ATOM     37  C   UNL     1      -6.177   8.895  -3.862  0.00  0.00    -0.000 C 
BRANCH  37  39
ATOM     38  C   UNL     1      -7.940  10.455  -4.699  0.00  0.00    +0.004 C 
ATOM     39  C   UNL     1      -7.183   9.157  -4.985  0.00  0.00    -0.003 C 
ENDBRANCH  37  39
ENDBRANCH  36  37
ENDBRANCH  35  36
ENDBRANCH  34  35
ENDBRANCH   1  34
TORSDOF 5
