REMARK  Name = ZINC34997860
REMARK  13 active torsions:
REMARK  status: ('A' for Active; 'I' for Inactive)
REMARK    1  A    between atoms: C_1  and  C_2
REMARK    2  A    between atoms: C_2  and  C_3
REMARK    3  A    between atoms: C_3  and  C_4
REMARK    4  A    between atoms: C_4  and  N_5
REMARK    5  A    between atoms: N_11  and  C_14
REMARK    6  A    between atoms: C_14  and  C_15
REMARK    7  A    between atoms: C_15  and  N_16
REMARK    8  A    between atoms: N_16  and  C_17
REMARK    9  A    between atoms: C_17  and  C_18
REMARK   10  A    between atoms: C_26  and  C_27
REMARK   11  A    between atoms: C_26  and  C_28
REMARK   12  A    between atoms: C_29  and  C_31
REMARK   13  A    between atoms: C_34  and  C_37
REMARK                            x       y       z     vdW  Elec       q    Type
REMARK                         _______ _______ _______ _____ _____    ______ ____
ROOT
ATOM      1  N   UNL     1       6.514  -7.990  -7.695  0.00  0.00    -0.295 N 
ATOM      2  C   UNL     1       7.187  -7.551  -8.777  0.00  0.00    +0.247 C 
ATOM      3  O   UNL     1       8.390  -7.711  -8.851  0.00  0.00    -0.270 OA
ENDROOT
BRANCH   2   4
ATOM      4  C   UNL     1       6.463  -6.875  -9.874  0.00  0.00    +0.037 A 
ATOM      5  C   UNL     1       5.277  -6.187  -9.612  0.00  0.00    +0.013 A 
ATOM      6  C   UNL     1       4.606  -5.558 -10.640  0.00  0.00    +0.004 A 
ATOM      7  C   UNL     1       5.107  -5.607 -11.929  0.00  0.00    -0.050 A 
ATOM      8  C   UNL     1       6.282  -6.288 -12.196  0.00  0.00    +0.004 A 
ATOM      9  C   UNL     1       6.965  -6.916 -11.176  0.00  0.00    +0.013 A 
ATOM     10  C   UNL     1       4.369  -4.918 -13.048  0.00  0.00    +0.044 C 
ENDBRANCH   2   4
BRANCH   1  11
ATOM     11  C   UNL     1       5.054  -7.875  -7.644  0.00  0.00    +0.090 C 
BRANCH  11  12
ATOM     12  C   UNL     1       4.663  -6.787  -6.642  0.00  0.00    -0.059 C 
BRANCH  12  19
ATOM     13  N   UNL     1      -0.739  -5.556  -3.887  0.00  0.00    -0.299 N 
ATOM     14  C   UNL     1      -0.287  -6.690  -4.459  0.00  0.00    +0.302 C 
ATOM     15  O   UNL     1      -0.742  -7.765  -4.119  0.00  0.00    -0.253 OA
ATOM     16  N   UNL     1       0.668  -6.632  -5.407  0.00  0.00    -0.289 N 
ATOM     17  C   UNL     1       1.310  -5.355  -5.758  0.00  0.00    +0.091 C 
ATOM     18  C   UNL     1       2.829  -5.548  -5.721  0.00  0.00    -0.059 C 
ATOM     19  N   UNL     1       3.200  -6.671  -6.591  0.00  0.00    +0.383 N 
ATOM     20  C   UNL     1       2.630  -7.919  -6.067  0.00  0.00    -0.059 C 
ATOM     21  C   UNL     1       1.105  -7.844  -6.117  0.00  0.00    +0.091 C 
ATOM     22  H   UNL     1      -0.328  -4.706  -4.105  0.00  0.00    +0.150 HD
ATOM     23  H   UNL     1       2.845  -6.506  -7.521  0.00  0.00    -0.082 HD
BRANCH  13  24
ATOM     24  C   UNL     1      -1.853  -5.609  -2.937  0.00  0.00    +0.106 C 
BRANCH  24  25
ATOM     25  C   UNL     1      -2.167  -4.196  -2.440  0.00  0.00    +0.018 C 
BRANCH  25  27
ATOM     26  C   UNL     1      -3.643  -2.838  -0.951  0.00  0.00    +0.004 C 
ATOM     27  C   UNL     1      -3.330  -4.251  -1.448  0.00  0.00    -0.002 C 
ENDBRANCH  25  27
ENDBRANCH  24  25
ENDBRANCH  13  24
ENDBRANCH  12  19
ENDBRANCH  11  12
ENDBRANCH   1  11
BRANCH   1  28
ATOM     28  C   UNL     1       7.242  -8.583  -6.570  0.00  0.00    +0.138 C 
BRANCH  28  29
ATOM     29  C   UNL     1       7.269 -10.082  -6.723  0.00  0.00    -0.053 C 
ATOM     30  C   UNL     1       8.298 -10.694  -7.262  0.00  0.00    -0.025 C 
ATOM     31  C   UNL     1       8.282 -12.197  -7.404  0.00  0.00    +0.031 C 
ATOM     32  C   UNL     1       7.000 -12.762  -6.778  0.00  0.00    -0.000 C 
ATOM     33  C   UNL     1       6.680 -12.139  -5.408  0.00  0.00    +0.012 C 
ATOM     34  C   UNL     1       6.109 -10.944  -6.255  0.00  0.00    +0.022 C 
ATOM     35  C   UNL     1       5.756 -12.018  -7.307  0.00  0.00    -0.025 C 
ATOM     36  C   UNL     1       5.890 -11.539  -8.754  0.00  0.00    +0.012 C 
ATOM     37  C   UNL     1       4.437 -12.743  -7.033  0.00  0.00    +0.012 C 
ENDBRANCH  28  29
ENDBRANCH   1  28
TORSDOF 9
