REMARK  Name = ZINC38713562
REMARK  13 active torsions:
REMARK  status: ('A' for Active; 'I' for Inactive)
REMARK    1  A    between atoms: C_1  and  C_2
REMARK    2  A    between atoms: C_2  and  N_3
REMARK    3  A    between atoms: N_3  and  C_4
REMARK    4  A    between atoms: N_3  and  C_6
REMARK    5  A    between atoms: C_4  and  C_5
REMARK    6  A    between atoms: C_6  and  C_7
REMARK    7  A    between atoms: C_7  and  C_8
REMARK    8  A    between atoms: C_8  and  N_9
REMARK    9  A    between atoms: C_10  and  C_29
REMARK   10  A    between atoms: C_32  and  C_35
REMARK   11  A    between atoms: C_35  and  C_36
REMARK   12  A    between atoms: C_35  and  C_37
REMARK   13  A    between atoms: C_35  and  C_38
REMARK                            x       y       z     vdW  Elec       q    Type
REMARK                         _______ _______ _______ _____ _____    ______ ____
ROOT
ATOM      1  N   UNL     1       2.140  -4.425  -3.989  0.00  0.00    -0.284 N 
ATOM      2  C   UNL     1       1.669  -4.514  -5.381  0.00  0.00    +0.144 C 
ATOM      3  C   UNL     1       2.834  -5.011  -6.173  0.00  0.00    +0.072 A 
ATOM      4  C   UNL     1       2.977  -5.309  -7.601  0.00  0.00    +0.199 A 
ATOM      5  O   UNL     1       2.138  -5.009  -8.432  0.00  0.00    -0.287 OA
ATOM      6  C   UNL     1       4.240  -6.010  -7.938  0.00  0.00    +0.065 A 
ATOM      7  C   UNL     1       4.425  -6.544  -9.226  0.00  0.00    +0.016 A 
ATOM      8  C   UNL     1       5.569  -7.194  -9.549  0.00  0.00    +0.009 A 
ATOM      9  C   UNL     1       6.594  -7.342  -8.590  0.00  0.00    -0.014 A 
ATOM     10  C   UNL     1       7.783  -8.018  -8.908  0.00  0.00    +0.008 A 
ATOM     11  C   UNL     1       8.759  -8.146  -7.966  0.00  0.00    +0.001 A 
ATOM     12  C   UNL     1       8.597  -7.617  -6.689  0.00  0.00    +0.001 A 
ATOM     13  C   UNL     1       7.455  -6.957  -6.346  0.00  0.00    +0.012 A 
ATOM     14  C   UNL     1       6.429  -6.807  -7.291  0.00  0.00    +0.025 A 
ATOM     15  C   UNL     1       5.230  -6.128  -6.960  0.00  0.00    +0.147 A 
ATOM     16  O   UNL     1       5.088  -5.620  -5.718  0.00  0.00    -0.449 OA
ATOM     17  C   UNL     1       3.880  -5.184  -5.311  0.00  0.00    +0.199 A 
ATOM     18  C   UNL     1       3.431  -4.812  -3.958  0.00  0.00    +0.283 C 
ATOM     19  O   UNL     1       4.123  -4.851  -2.960  0.00  0.00    -0.267 OA
ENDROOT
BRANCH   2  20
ATOM     20  C   UNL     1       1.244  -3.155  -5.874  0.00  0.00    -0.022 A 
ATOM     21  C   UNL     1       1.985  -2.036  -5.542  0.00  0.00    +0.006 A 
ATOM     22  C   UNL     1       1.595  -0.790  -5.995  0.00  0.00    +0.004 A 
ATOM     23  C   UNL     1       0.465  -0.662  -6.780  0.00  0.00    -0.042 A 
ATOM     24  C   UNL     1      -0.275  -1.781  -7.113  0.00  0.00    +0.004 A 
ATOM     25  C   UNL     1       0.117  -3.028  -6.664  0.00  0.00    +0.006 A 
BRANCH  23  26
ATOM     26  C   UNL     1       0.040   0.697  -7.273  0.00  0.00    -0.013 C 
ATOM     27  C   UNL     1       1.154   1.302  -8.129  0.00  0.00    +0.015 C 
ATOM     28  C   UNL     1      -1.231   0.560  -8.114  0.00  0.00    +0.015 C 
ATOM     29  C   UNL     1      -0.237   1.610  -6.076  0.00  0.00    +0.015 C 
ENDBRANCH  23  26
ENDBRANCH   2  20
BRANCH   1  30
ATOM     30  C   UNL     1       1.345  -3.986  -2.838  0.00  0.00    +0.107 C 
BRANCH  30  31
ATOM     31  C   UNL     1       1.483  -2.471  -2.672  0.00  0.00    +0.000 C 
BRANCH  31  32
ATOM     32  C   UNL     1       0.654  -2.013  -1.470  0.00  0.00    -0.077 C 
BRANCH  32  33
ATOM     33  N   UNL     1       0.886  -0.582  -1.232  0.00  0.00    +0.379 N 
ATOM     34  H   UNL     1       1.876  -0.415  -1.127  0.00  0.00    -0.082 HD
BRANCH  33  36
ATOM     35  C   UNL     1       0.730   1.669  -2.182  0.00  0.00    -0.017 C 
ATOM     36  C   UNL     1       0.377   0.193  -2.372  0.00  0.00    -0.082 C 
ENDBRANCH  33  36
BRANCH  33  37
ATOM     37  C   UNL     1       0.187  -0.170  -0.008  0.00  0.00    -0.082 C 
ATOM     38  C   UNL     1       0.823  -0.860   1.200  0.00  0.00    -0.017 C 
ENDBRANCH  33  37
ENDBRANCH  32  33
ENDBRANCH  31  32
ENDBRANCH  30  31
ENDBRANCH   1  30
TORSDOF 8
