REMARK  Name = ZINC34762654
REMARK  12 active torsions:
REMARK  status: ('A' for Active; 'I' for Inactive)
REMARK    1  A    between atoms: C_1  and  C_2
REMARK    2  A    between atoms: C_2  and  C_3
REMARK    3  A    between atoms: C_4  and  C_33
REMARK    4  A    between atoms: C_8  and  N_23
REMARK    5  A    between atoms: C_10  and  S_12
REMARK    6  A    between atoms: S_12  and  C_13
REMARK    7  A    between atoms: C_13  and  C_14
REMARK    8  A    between atoms: N_16  and  C_17
REMARK    9  A    between atoms: N_26  and  C_29
REMARK   10  A    between atoms: C_29  and  C_30
REMARK   11  A    between atoms: C_30  and  C_31
REMARK   12  A    between atoms: C_30  and  C_32
REMARK                            x       y       z     vdW  Elec       q    Type
REMARK                         _______ _______ _______ _____ _____    ______ ____
ROOT
ATOM      1  C   UNL     1      -1.366  -0.631   0.140  0.00  0.00    -0.025 A 
ATOM      2  C   UNL     1      -1.910  -0.812   1.352  0.00  0.00    -0.007 A 
ATOM      3  S   UNL     1      -3.549  -1.412   0.989  0.00  0.00    -0.073 S 
ATOM      4  C   UNL     1      -3.460  -1.404  -0.782  0.00  0.00    +0.115 A 
ATOM      5  C   UNL     1      -2.156  -0.928  -1.044  0.00  0.00    +0.051 A 
ATOM      6  C   UNL     1      -1.810  -0.815  -2.418  0.00  0.00    +0.134 A 
ATOM      7  N   UNL     1      -2.698  -1.145  -3.340  0.00  0.00    -0.206 NA
ATOM      8  C   UNL     1      -3.912  -1.583  -3.025  0.00  0.00    +0.191 A 
ATOM      9  N   UNL     1      -4.287  -1.718  -1.760  0.00  0.00    -0.214 NA
ATOM     10  C   UNL     1      -1.284  -0.567   2.701  0.00  0.00    +0.052 C 
ENDROOT
BRANCH   6  11
ATOM     11  N   UNL     1      -0.556  -0.363  -2.788  0.00  0.00    -0.318 N 
ATOM     12  C   UNL     1       0.545  -1.306  -3.039  0.00  0.00    +0.088 C 
ATOM     13  C   UNL     1       1.175  -0.968  -4.394  0.00  0.00    -0.060 C 
ATOM     14  N   UNL     1       1.573   0.445  -4.409  0.00  0.00    +0.382 N 
ATOM     15  C   UNL     1       0.385   1.301  -4.301  0.00  0.00    -0.060 C 
ATOM     16  C   UNL     1      -0.286   1.075  -2.947  0.00  0.00    +0.088 C 
ATOM     17  H   UNL     1       2.189   0.628  -3.631  0.00  0.00    -0.082 HD
BRANCH  14  18
ATOM     18  C   UNL     1       2.275   0.741  -5.665  0.00  0.00    -0.076 C 
BRANCH  18  19
ATOM     19  C   UNL     1       2.800   2.178  -5.629  0.00  0.00    -0.034 C 
ATOM     20  C   UNL     1       3.859   2.308  -4.533  0.00  0.00    +0.005 C 
ATOM     21  C   UNL     1       3.421   2.527  -6.983  0.00  0.00    +0.005 C 
ENDBRANCH  18  19
ENDBRANCH  14  18
ENDBRANCH   6  11
BRANCH   1  23
ATOM     22  C   UNL     1       0.044   1.408   0.093  0.00  0.00    +0.009 C 
ATOM     23  C   UNL     1       0.045  -0.120   0.006  0.00  0.00    +0.033 C 
ENDBRANCH   1  23
BRANCH   8  24
ATOM     24  S   UNL     1      -5.040  -2.004  -4.311  0.00  0.00    -0.077 S 
BRANCH  24  25
ATOM     25  C   UNL     1      -6.532  -2.537  -3.429  0.00  0.00    +0.173 C 
BRANCH  25  26
ATOM     26  C   UNL     1      -7.592  -2.930  -4.425  0.00  0.00    +0.224 C 
ATOM     27  O   UNL     1      -7.363  -2.858  -5.614  0.00  0.00    -0.275 OA
ATOM     28  N   UNL     1      -8.794  -3.363  -3.996  0.00  0.00    -0.312 N 
ATOM     29  H   UNL     1      -8.977  -3.421  -3.045  0.00  0.00    +0.149 HD
BRANCH  28  30
ATOM     30  C   UNL     1      -9.824  -3.745  -4.965  0.00  0.00    +0.073 C 
ATOM     31  C   UNL     1     -10.594  -2.500  -5.409  0.00  0.00    +0.022 C 
ATOM     32  C   UNL     1     -11.670  -2.899  -6.421  0.00  0.00    +0.002 C 
ATOM     33  C   UNL     1     -12.636  -3.892  -5.773  0.00  0.00    +0.000 C 
ATOM     34  C   UNL     1     -11.866  -5.138  -5.329  0.00  0.00    +0.002 C 
ATOM     35  C   UNL     1     -10.791  -4.738  -4.317  0.00  0.00    +0.022 C 
ENDBRANCH  28  30
ENDBRANCH  25  26
ENDBRANCH  24  25
ENDBRANCH   8  24
TORSDOF 8
