REMARK  Name = ZINC05928145
REMARK  11 active torsions:
REMARK  status: ('A' for Active; 'I' for Inactive)
REMARK    1  A    between atoms: C_1  and  C_2
REMARK    2  A    between atoms: C_2  and  S_3
REMARK    3  A    between atoms: S_3  and  C_4
REMARK    4  A    between atoms: C_6  and  C_10
REMARK    5  A    between atoms: C_7  and  C_9
REMARK    6  A    between atoms: C_15  and  C_19
REMARK    7  A    between atoms: C_15  and  C_20
REMARK    8  A    between atoms: C_22  and  C_28
REMARK    9  A    between atoms: C_23  and  C_24
REMARK   10  A    between atoms: C_24  and  O_26
REMARK   11  A    between atoms: O_26  and  C_27
REMARK                            x       y       z     vdW  Elec       q    Type
REMARK                         _______ _______ _______ _____ _____    ______ ____
ROOT
ATOM      1  C   UNL     1       4.787   4.707  -0.090  0.00  0.00    +0.096 C 
ATOM      2  C   UNL     1       4.321   5.468  -1.306  0.00  0.00    +0.024 C 
ATOM      3  C   UNL     1       3.469   6.508  -1.184  0.00  0.00    +0.016 C 
ATOM      4  C   UNL     1       3.002   7.277  -2.395  0.00  0.00    +0.058 C 
ATOM      5  C   UNL     1       2.959   6.347  -3.609  0.00  0.00    -0.023 C 
ATOM      6  C   UNL     1       4.360   5.763  -3.824  0.00  0.00    +0.086 C 
ATOM      7  C   UNL     1       4.796   5.063  -2.566  0.00  0.00    +0.162 C 
ATOM      8  O   UNL     1       5.572   4.131  -2.639  0.00  0.00    -0.292 OA
ATOM      9  C   UNL     1       1.964   5.214  -3.354  0.00  0.00    +0.011 C 
ATOM     10  C   UNL     1       2.532   7.137  -4.848  0.00  0.00    +0.011 C 
ATOM     11  N   UNL     1       3.013   6.891   0.049  0.00  0.00    -0.321 N 
ATOM     12  C   UNL     1       3.685   6.528   1.183  0.00  0.00    +0.016 C 
ATOM     13  C   UNL     1       4.544   5.495   1.164  0.00  0.00    +0.065 C 
ATOM     14  C   UNL     1       3.460   7.291   2.463  0.00  0.00    +0.061 C 
ATOM     15  H   UNL     1       2.099   7.497   0.134  0.00  0.00    +0.152 HD
ENDROOT
BRANCH   1  18
ATOM     16  C   UNL     1       2.404   1.907   0.168  0.00  0.00    +0.162 A 
ATOM     17  C   UNL     1       2.642   3.240   0.131  0.00  0.00    +0.061 A 
ATOM     18  C   UNL     1       4.039   3.401  -0.006  0.00  0.00    +0.007 A 
ATOM     19  C   UNL     1       4.574   2.169  -0.054  0.00  0.00    +0.107 A 
ATOM     20  O   UNL     1       3.580   1.266   0.052  0.00  0.00    -0.454 OA
ATOM     21  C   UNL     1       6.040   1.850  -0.202  0.00  0.00    +0.086 C 
BRANCH  16  22
ATOM     22  S   UNL     1       0.825   1.143   0.332  0.00  0.00    -0.088 S 
BRANCH  22  24
ATOM     23  C   UNL     1      -0.112  -1.425   0.441  0.00  0.00    +0.016 C 
ATOM     24  C   UNL     1       1.191  -0.633   0.305  0.00  0.00    +0.074 C 
ENDBRANCH  22  24
ENDBRANCH  16  22
ENDBRANCH   1  18
BRANCH  13  25
ATOM     25  C   UNL     1       5.234   5.144   2.348  0.00  0.00    +0.337 C 
ATOM     26  O   UNL     1       5.141   5.846   3.337  0.00  0.00    -0.245 OA
BRANCH  25  27
ATOM     27  O   UNL     1       5.995   4.030   2.381  0.00  0.00    -0.465 OA
ATOM     28  C   UNL     1       6.662   3.736   3.610  0.00  0.00    +0.280 C 
ENDBRANCH  25  27
ENDBRANCH  13  25
TORSDOF 5
