REMARK  Name = ZINC34967011
REMARK  10 active torsions:
REMARK  status: ('A' for Active; 'I' for Inactive)
REMARK    1  A    between atoms: C_1  and  C_2
REMARK    2  A    between atoms: C_5  and  C_13
REMARK    3  A    between atoms: C_6  and  C_7
REMARK    4  A    between atoms: C_6  and  C_8
REMARK    5  A    between atoms: C_10  and  O_12
REMARK    6  A    between atoms: N_15  and  N_16
REMARK    7  A    between atoms: C_17  and  C_18
REMARK    8  A    between atoms: C_25  and  O_28
REMARK    9  A    between atoms: O_28  and  C_29
REMARK   10  A    between atoms: C_29  and  C_30
REMARK                            x       y       z     vdW  Elec       q    Type
REMARK                         _______ _______ _______ _____ _____    ______ ____
ROOT
ATOM      1  N   UNL     1       1.401  -5.562   2.086  0.00  0.00    -0.186 NA
ATOM      2  C   UNL     1       1.258  -6.807   1.749  0.00  0.00    +0.158 C 
ENDROOT
BRANCH   2   3
ATOM      3  C   UNL     1       1.800  -7.871   2.613  0.00  0.00    +0.084 A 
ATOM      4  C   UNL     1       1.641  -9.216   2.230  0.00  0.00    +0.030 A 
ATOM      5  C   UNL     1       2.138 -10.208   3.020  0.00  0.00    +0.012 A 
ATOM      6  C   UNL     1       2.803  -9.846   4.210  0.00  0.00    +0.004 A 
ATOM      7  C   UNL     1       3.339 -10.818   5.068  0.00  0.00    +0.010 A 
ATOM      8  C   UNL     1       3.976 -10.436   6.210  0.00  0.00    +0.004 A 
ATOM      9  C   UNL     1       4.105  -9.090   6.542  0.00  0.00    +0.048 A 
ATOM     10  C   UNL     1       3.597  -8.114   5.732  0.00  0.00    +0.147 A 
ATOM     11  C   UNL     1       2.931  -8.473   4.540  0.00  0.00    +0.113 A 
ATOM     12  N   UNL     1       2.429  -7.542   3.727  0.00  0.00    -0.242 NA
BRANCH  10  13
ATOM     13  O   UNL     1       3.731  -6.806   6.072  0.00  0.00    -0.485 OA
BRANCH  13  14
ATOM     14  C   UNL     1       4.417  -6.520   7.293  0.00  0.00    +0.264 C 
BRANCH  14  15
ATOM     15  C   UNL     1       4.468  -5.029   7.502  0.00  0.00    -0.010 A 
ATOM     16  C   UNL     1       5.527  -4.296   6.999  0.00  0.00    +0.007 A 
ATOM     17  C   UNL     1       5.574  -2.928   7.191  0.00  0.00    +0.000 A 
ATOM     18  C   UNL     1       4.562  -2.292   7.887  0.00  0.00    +0.000 A 
ATOM     19  C   UNL     1       3.503  -3.025   8.389  0.00  0.00    +0.000 A 
ATOM     20  C   UNL     1       3.454  -4.393   8.193  0.00  0.00    +0.007 A 
ENDBRANCH  14  15
ENDBRANCH  13  14
ENDBRANCH  10  13
ENDBRANCH   2   3
BRANCH   1  23
ATOM     21  C   UNL     1       1.035  -3.257   1.615  0.00  0.00    +0.239 C 
ATOM     22  O   UNL     1       1.615  -2.969   2.641  0.00  0.00    -0.273 OA
ATOM     23  N   UNL     1       0.886  -4.550   1.265  0.00  0.00    -0.206 N 
ATOM     24  H   UNL     1       0.423  -4.780   0.445  0.00  0.00    +0.177 HD
BRANCH  21  29
ATOM     25  C   UNL     1      -0.019   1.526   0.010  0.00  0.00    +0.014 C 
ATOM     26  C   UNL     1       0.002  -0.004   0.002  0.00  0.00    +0.000 C 
ATOM     27  C   UNL     1       0.744  -0.669  -1.197  0.00  0.00    +0.011 C 
ATOM     28  C   UNL     1       1.062  -2.103  -0.714  0.00  0.00    +0.017 C 
ATOM     29  C   UNL     1       0.481  -2.169   0.732  0.00  0.00    +0.057 C 
ATOM     30  C   UNL     1       0.727  -0.695   1.211  0.00  0.00    -0.013 C 
ATOM     31  C   UNL     1       0.031  -0.400   2.541  0.00  0.00    +0.012 C 
ATOM     32  C   UNL     1       2.216  -0.348   1.260  0.00  0.00    +0.012 C 
ATOM     33  C   UNL     1      -1.065  -2.153   0.533  0.00  0.00    +0.048 C 
ATOM     34  C   UNL     1      -1.389  -0.705   0.062  0.00  0.00    +0.122 C 
BRANCH  34  35
ATOM     35  O   UNL     1      -1.986  -0.739  -1.236  0.00  0.00    -0.391 OA
ATOM     36  H   UNL     1      -2.855  -1.164  -1.258  0.00  0.00    +0.210 HD
ENDBRANCH  34  35
ENDBRANCH  21  29
ENDBRANCH   1  23
TORSDOF 7
