REMARK  Name = ZINC39948560
REMARK  5 active torsions:
REMARK  status: ('A' for Active; 'I' for Inactive)
REMARK    1  A    between atoms: C_1  and  C_2
REMARK    2  A    between atoms: C_6  and  N_8
REMARK    3  A    between atoms: C_18  and  N_19
REMARK    4  A    between atoms: N_19  and  C_20
REMARK    5  A    between atoms: C_25  and  C_26
REMARK                            x       y       z     vdW  Elec       q    Type
REMARK                         _______ _______ _______ _____ _____    ______ ____
ROOT
ATOM      1  N   UNL     1      -0.045  -2.642   2.418  0.00  0.00    -0.186 N 
ATOM      2  C   UNL     1      -0.015  -1.898   3.536  0.00  0.00    +0.259 C 
ATOM      3  O   UNL     1      -0.052  -0.686   3.449  0.00  0.00    -0.269 OA
ATOM      4  C   UNL     1       0.063  -2.525   4.861  0.00  0.00    +0.046 A 
ATOM      5  C   UNL     1       0.094  -1.759   6.027  0.00  0.00    +0.014 A 
ATOM      6  C   UNL     1       0.166  -2.384   7.253  0.00  0.00    +0.001 A 
ATOM      7  C   UNL     1       0.209  -3.768   7.341  0.00  0.00    +0.001 A 
ATOM      8  C   UNL     1       0.180  -4.545   6.200  0.00  0.00    +0.009 A 
ATOM      9  C   UNL     1       0.106  -3.932   4.955  0.00  0.00    +0.000 A 
ATOM     10  C   UNL     1       0.071  -4.716   3.703  0.00  0.00    +0.059 C 
ATOM     11  C   UNL     1       0.111  -6.093   3.727  0.00  0.00    +0.085 C 
ATOM     12  C   UNL     1      -0.012  -3.984   2.434  0.00  0.00    +0.260 C 
ATOM     13  O   UNL     1      -0.047  -4.601   1.384  0.00  0.00    -0.269 OA
ENDROOT
BRANCH   1  19
ATOM     14  C   UNL     1      -2.780  -0.997  -1.156  0.00  0.00    +0.065 C 
ATOM     15  C   UNL     1      -1.414  -1.189  -0.549  0.00  0.00    +0.040 A 
ATOM     16  C   UNL     1      -0.299  -0.725  -1.219  0.00  0.00    +0.023 A 
ATOM     17  C   UNL     1       0.956  -0.906  -0.655  0.00  0.00    +0.005 A 
ATOM     18  C   UNL     1       1.044  -1.550   0.567  0.00  0.00    +0.044 A 
ATOM     19  C   UNL     1      -0.120  -1.991   1.185  0.00  0.00    +0.135 A 
ATOM     20  N   UNL     1      -1.299  -1.794   0.617  0.00  0.00    -0.236 NA
ENDBRANCH   1  19
BRANCH  11  21
ATOM     21  N   UNL     1       0.223  -6.790   2.565  0.00  0.00    -0.320 N 
ATOM     22  H   UNL     1       0.360  -6.319   1.728  0.00  0.00    +0.152 HD
BRANCH  21  23
ATOM     23  C   UNL     1       0.142  -8.185   2.577  0.00  0.00    +0.037 A 
ATOM     24  C   UNL     1      -0.059  -8.861   3.774  0.00  0.00    +0.023 A 
ATOM     25  C   UNL     1      -0.139 -10.239   3.782  0.00  0.00    +0.002 A 
ATOM     26  C   UNL     1      -0.018 -10.947   2.600  0.00  0.00    +0.000 A 
ATOM     27  C   UNL     1       0.183 -10.278   1.407  0.00  0.00    +0.008 A 
ATOM     28  C   UNL     1       0.257  -8.899   1.391  0.00  0.00    +0.006 A 
BRANCH  28  29
ATOM     29  C   UNL     1       0.469  -8.170   0.089  0.00  0.00    +0.214 C 
ATOM     30  C   UNL     1      -0.860  -7.571  -0.336  0.00  0.00    +0.247 C 
ATOM     31  O   UNL     1      -1.464  -6.792   0.370  0.00  0.00    -0.273 OA
ATOM     32  N   UNL     1      -1.334  -7.953  -1.546  0.00  0.00    -0.263 N 
ATOM     33  C   UNL     1      -0.633  -8.818  -2.297  0.00  0.00    +0.178 C 
ATOM     34  N   UNL     1       0.538  -9.348  -1.930  0.00  0.00    -0.123 NA
ATOM     35  N   UNL     1       1.102  -9.102  -0.858  0.00  0.00    -0.299 N 
ATOM     36  S   UNL     1      -1.277  -9.267  -3.818  0.00  0.00    -0.015 S 
ATOM     37  H   UNL     1       1.952  -9.518  -0.644  0.00  0.00    +0.181 HD
ATOM     38  H   UNL     1      -2.179  -7.603  -1.870  0.00  0.00    +0.157 HD
ENDBRANCH  28  29
ENDBRANCH  21  23
ENDBRANCH  11  21
TORSDOF 4
