REMARK  Name = ZINC43736379
REMARK  12 active torsions:
REMARK  status: ('A' for Active; 'I' for Inactive)
REMARK    1  A    between atoms: C_1  and  C_2
REMARK    2  A    between atoms: C_7  and  C_10
REMARK    3  A    between atoms: C_10  and  C_11
REMARK    4  A    between atoms: C_11  and  C_13
REMARK    5  A    between atoms: C_11  and  C_14
REMARK    6  A    between atoms: C_14  and  N_15
REMARK    7  A    between atoms: C_16  and  C_18
REMARK    8  A    between atoms: C_22  and  C_43
REMARK    9  A    between atoms: C_32  and  C_42
REMARK   10  A    between atoms: C_35  and  O_38
REMARK   11  A    between atoms: O_38  and  C_39
REMARK   12  A    between atoms: C_39  and  C_41
REMARK                            x       y       z     vdW  Elec       q    Type
REMARK                         _______ _______ _______ _____ _____    ______ ____
ROOT
ATOM      1  C   UNL     1      -0.150   1.375   0.071  0.00  0.00    +0.016 C 
ATOM      2  C   UNL     1      -0.109  -0.153  -0.019  0.00  0.00    +0.064 C 
ATOM      3  C   UNL     1       0.748  -0.700  -1.147  0.00  0.00    +0.032 C 
ATOM      4  C   UNL     1       2.163  -0.389  -0.651  0.00  0.00    -0.058 C 
ATOM      5  C   UNL     1       2.129  -0.430   0.671  0.00  0.00    -0.005 C 
ATOM      6  C   UNL     1       0.761  -0.648   1.158  0.00  0.00    +0.163 C 
ATOM      7  O   UNL     1       0.388  -1.100   2.207  0.00  0.00    -0.292 OA
ATOM      8  C   UNL     1       2.970  -0.160  -1.915  0.00  0.00    +0.035 C 
ATOM      9  C   UNL     1       1.938   0.519  -2.852  0.00  0.00    +0.003 C 
ATOM     10  C   UNL     1       0.635  -0.222  -2.579  0.00  0.00    -0.022 C 
ATOM     11  C   UNL     1       0.458  -1.447  -3.477  0.00  0.00    +0.008 C 
ATOM     12  C   UNL     1       0.761  -1.133  -4.934  0.00  0.00    +0.005 C 
ATOM     13  C   UNL     1       2.215  -0.688  -5.060  0.00  0.00    +0.003 C 
ATOM     14  C   UNL     1       2.436   0.589  -4.265  0.00  0.00    +0.001 C 
ATOM     15  C   UNL     1       3.936   0.914  -4.277  0.00  0.00    +0.031 C 
ATOM     16  C   UNL     1       4.456   0.902  -5.682  0.00  0.00    -0.027 C 
ATOM     17  C   UNL     1       3.883   0.273  -6.666  0.00  0.00    -0.064 C 
ATOM     18  C   UNL     1       2.609  -0.510  -6.519  0.00  0.00    -0.008 C 
ATOM     19  C   UNL     1       2.761  -1.883  -7.177  0.00  0.00    +0.015 C 
ATOM     20  C   UNL     1       3.306  -1.755  -8.597  0.00  0.00    +0.046 C 
ATOM     21  C   UNL     1       4.674  -1.075  -8.586  0.00  0.00    +0.180 C 
ATOM     22  C   UNL     1       4.534   0.346  -8.035  0.00  0.00    +0.075 C 
ATOM     23  C   UNL     1       1.505   0.256  -7.249  0.00  0.00    +0.016 C 
ATOM     24  C   UNL     1      -0.552   0.700  -2.839  0.00  0.00    +0.012 C 
ENDROOT
BRANCH   5  25
ATOM     25  C   UNL     1       3.333  -0.269   1.558  0.00  0.00    +0.043 C 
BRANCH  25  26
ATOM     26  C   UNL     1       3.450   1.192   1.998  0.00  0.00    +0.007 C 
ATOM     27  C   UNL     1       2.251   1.559   2.874  0.00  0.00    +0.009 C 
BRANCH  26  28
ATOM     28  C   UNL     1       4.742   1.381   2.796  0.00  0.00    +0.107 C 
BRANCH  28  29
ATOM     29  N   UNL     1       4.915   2.801   3.116  0.00  0.00    -0.315 N 
ATOM     30  C   UNL     1       5.990   3.207   3.819  0.00  0.00    +0.210 C 
ATOM     31  O   UNL     1       6.815   2.398   4.187  0.00  0.00    -0.276 OA
ATOM     32  C   UNL     1       6.168   4.667   4.147  0.00  0.00    +0.109 C 
ATOM     33  H   UNL     1       4.255   3.448   2.821  0.00  0.00    +0.149 HD
ENDBRANCH  28  29
ENDBRANCH  26  28
ENDBRANCH  25  26
ENDBRANCH   5  25
BRANCH  21  34
ATOM     34  O   UNL     1       5.576  -1.820  -7.769  0.00  0.00    -0.461 OA
BRANCH  34  35
ATOM     35  C   UNL     1       6.876  -1.777  -8.100  0.00  0.00    +0.304 C 
ATOM     36  O   UNL     1       7.235  -1.128  -9.054  0.00  0.00    -0.251 OA
ATOM     37  C   UNL     1       7.888  -2.539  -7.283  0.00  0.00    +0.136 C 
ENDBRANCH  34  35
ENDBRANCH  21  34
TORSDOF 6
