REMARK  Name = ZINC36523166
REMARK  18 active torsions:
REMARK  status: ('A' for Active; 'I' for Inactive)
REMARK    1  A    between atoms: C_1  and  C_2
REMARK    2  A    between atoms: C_2  and  C_3
REMARK    3  A    between atoms: C_2  and  C_4
REMARK    4  A    between atoms: C_2  and  C_5
REMARK    5  A    between atoms: C_5  and  C_6
REMARK    6  A    between atoms: C_6  and  C_7
REMARK    7  A    between atoms: C_6  and  C_8
REMARK    8  A    between atoms: C_6  and  N_9
REMARK    9  A    between atoms: C_10  and  C_12
REMARK   10  A    between atoms: C_12  and  C_14
REMARK   11  A    between atoms: C_12  and  N_23
REMARK   12  A    between atoms: C_15  and  O_22
REMARK   13  A    between atoms: C_17  and  O_21
REMARK   14  A    between atoms: C_19  and  O_20
REMARK   15  A    between atoms: N_23  and  C_24
REMARK   16  A    between atoms: C_25  and  C_27
REMARK   17  A    between atoms: C_27  and  C_35
REMARK   18  A    between atoms: C_28  and  C_29
REMARK                            x       y       z     vdW  Elec       q    Type
REMARK                         _______ _______ _______ _____ _____    ______ ____
ROOT
ATOM      1  C   UNL     1       5.742  -2.256  -3.075  0.00  0.00    +0.199 C 
ENDROOT
BRANCH   1   2
ATOM      2  C   UNL     1       5.844  -3.546  -3.847  0.00  0.00    +0.065 A 
ATOM      3  C   UNL     1       6.578  -4.605  -3.335  0.00  0.00    +0.129 A 
ATOM      4  C   UNL     1       6.673  -5.792  -4.045  0.00  0.00    +0.091 A 
ATOM      5  C   UNL     1       6.032  -5.920  -5.269  0.00  0.00    +0.124 A 
ATOM      6  C   UNL     1       5.296  -4.862  -5.781  0.00  0.00    +0.091 A 
ATOM      7  C   UNL     1       5.199  -3.677  -5.068  0.00  0.00    +0.129 A 
BRANCH   7   8
ATOM      8  O   UNL     1       4.474  -2.641  -5.567  0.00  0.00    -0.506 OA
ATOM      9  H   UNL     1       4.984  -2.037  -6.125  0.00  0.00    +0.292 HD
ENDBRANCH   7   8
BRANCH   5  10
ATOM     10  O   UNL     1       6.125  -7.083  -5.965  0.00  0.00    -0.507 OA
ATOM     11  H   UNL     1       5.430  -7.723  -5.757  0.00  0.00    +0.292 HD
ENDBRANCH   5  10
BRANCH   3  12
ATOM     12  O   UNL     1       7.206  -4.479  -2.136  0.00  0.00    -0.506 OA
ATOM     13  H   UNL     1       6.698  -4.821  -1.388  0.00  0.00    +0.292 HD
ENDBRANCH   3  12
ENDBRANCH   1   2
BRANCH   1  15
ATOM     14  N   UNL     1       4.208  -3.190  -1.373  0.00  0.00    -0.308 N 
ATOM     15  C   UNL     1       5.365  -2.555  -1.646  0.00  0.00    +0.239 C 
ATOM     16  O   UNL     1       6.102  -2.223  -0.743  0.00  0.00    -0.273 OA
ATOM     17  H   UNL     1       3.618  -3.456  -2.096  0.00  0.00    +0.149 HD
BRANCH  14  18
ATOM     18  C   UNL     1       3.842  -3.480   0.015  0.00  0.00    +0.030 C 
ATOM     19  C   UNL     1       3.804  -2.177   0.816  0.00  0.00    +0.031 C 
ATOM     20  C   UNL     1       4.876  -4.426   0.629  0.00  0.00    +0.031 C 
BRANCH  18  21
ATOM     21  C   UNL     1       2.462  -4.141   0.051  0.00  0.00    +0.031 C 
BRANCH  21  23
ATOM     22  C   UNL     1       1.540  -4.147  -2.271  0.00  0.00    +0.010 C 
ATOM     23  C   UNL     1       1.527  -3.422  -0.923  0.00  0.00    -0.036 C 
ATOM     24  C   UNL     1       2.000  -1.980  -1.115  0.00  0.00    +0.010 C 
ATOM     25  C   UNL     1       0.105  -3.422  -0.358  0.00  0.00    +0.010 C 
ENDBRANCH  21  23
ENDBRANCH  18  21
ENDBRANCH  14  18
ENDBRANCH   1  15
BRANCH   1  26
ATOM     26  N   UNL     1       7.033  -1.565  -3.105  0.00  0.00    -0.285 N 
ATOM     27  C   UNL     1       8.170  -2.104  -2.355  0.00  0.00    +0.133 C 
ATOM     28  C   UNL     1       7.175  -0.434  -3.823  0.00  0.00    +0.248 C 
ATOM     29  O   UNL     1       6.261  -0.037  -4.521  0.00  0.00    -0.270 OA
BRANCH  28  30
ATOM     30  C   UNL     1       8.436   0.323  -3.763  0.00  0.00    +0.045 C 
ATOM     31  C   UNL     1       9.526  -0.116  -4.448  0.00  0.00    +0.021 C 
BRANCH  31  32
ATOM     32  C   UNL     1       9.450  -1.357  -5.231  0.00  0.00    -0.024 A 
ATOM     33  C   UNL     1       8.280  -1.679  -5.928  0.00  0.00    +0.008 A 
ATOM     34  C   UNL     1       8.218  -2.845  -6.661  0.00  0.00    +0.001 A 
ATOM     35  C   UNL     1       9.308  -3.696  -6.709  0.00  0.00    +0.000 A 
ATOM     36  C   UNL     1      10.469  -3.385  -6.022  0.00  0.00    +0.001 A 
ATOM     37  C   UNL     1      10.550  -2.220  -5.289  0.00  0.00    +0.008 A 
ENDBRANCH  31  32
BRANCH  30  38
ATOM     38  C   UNL     1       8.519   1.562  -2.955  0.00  0.00    -0.013 A 
ATOM     39  C   UNL     1       8.328   1.512  -1.575  0.00  0.00    +0.008 A 
ATOM     40  C   UNL     1       8.406   2.670  -0.828  0.00  0.00    +0.001 A 
ATOM     41  C   UNL     1       8.673   3.878  -1.446  0.00  0.00    +0.000 A 
ATOM     42  C   UNL     1       8.862   3.934  -2.816  0.00  0.00    +0.001 A 
ATOM     43  C   UNL     1       8.793   2.782  -3.572  0.00  0.00    +0.008 A 
ENDBRANCH  30  38
ENDBRANCH  28  30
ENDBRANCH   1  26
TORSDOF 12
