REMARK  Name = ZINC27025166
REMARK  11 active torsions:
REMARK  status: ('A' for Active; 'I' for Inactive)
REMARK    1  A    between atoms: C_1  and  C_2
REMARK    2  A    between atoms: C_2  and  C_3
REMARK    3  A    between atoms: C_2  and  C_4
REMARK    4  A    between atoms: C_2  and  C_5
REMARK    5  A    between atoms: C_8  and  C_11
REMARK    6  A    between atoms: N_15  and  N_19
REMARK    7  A    between atoms: C_20  and  C_22
REMARK    8  A    between atoms: C_25  and  C_28
REMARK    9  A    between atoms: C_28  and  C_29
REMARK   10  A    between atoms: C_28  and  C_30
REMARK   11  A    between atoms: C_28  and  C_31
REMARK                            x       y       z     vdW  Elec       q    Type
REMARK                         _______ _______ _______ _____ _____    ______ ____
ROOT
ATOM      1  C   UNL     1       1.177   3.557   0.009  0.00  0.00    +0.028 C 
ATOM      2  C   UNL     1       2.343   4.243   0.104  0.00  0.00    +0.079 C 
ATOM      3  C   UNL     1       2.573   5.698   0.230  0.00  0.00    +0.275 C 
ATOM      4  O   UNL     1       1.651   6.491   0.264  0.00  0.00    -0.267 OA
ATOM      5  N   UNL     1       3.833   6.093   0.305  0.00  0.00    -0.169 N 
ATOM      6  C   UNL     1       4.852   5.211   0.267  0.00  0.00    +0.138 C 
ATOM      7  S   UNL     1       6.533   5.525   0.349  0.00  0.00    -0.026 S 
ATOM      8  S   UNL     1       4.025   3.636   0.120  0.00  0.00    -0.059 S 
ENDROOT
BRANCH   1  12
ATOM      9  C   UNL     1       1.223  -0.590  -0.875  0.00  0.00    -0.042 A 
ATOM     10  C   UNL     1       0.037   0.022  -0.507  0.00  0.00    +0.005 A 
ATOM     11  C   UNL     1       0.014   1.370  -0.218  0.00  0.00    +0.008 A 
ATOM     12  C   UNL     1       1.193   2.119  -0.297  0.00  0.00    -0.024 A 
ATOM     13  C   UNL     1       2.388   1.492  -0.670  0.00  0.00    +0.008 A 
ATOM     14  C   UNL     1       2.394   0.144  -0.956  0.00  0.00    +0.005 A 
BRANCH   9  16
ATOM     15  C   UNL     1       0.296  -2.345  -2.362  0.00  0.00    +0.015 C 
ATOM     16  C   UNL     1       1.239  -2.064  -1.190  0.00  0.00    -0.013 C 
ATOM     17  C   UNL     1       2.660  -2.489  -1.566  0.00  0.00    +0.015 C 
ATOM     18  C   UNL     1       0.778  -2.853   0.037  0.00  0.00    +0.015 C 
ENDBRANCH   9  16
ENDBRANCH   1  12
BRANCH   5  19
ATOM     19  N   UNL     1       4.115   7.460   0.425  0.00  0.00    -0.222 N 
ATOM     20  C   UNL     1       4.508   7.966   1.610  0.00  0.00    +0.261 C 
ATOM     21  O   UNL     1       4.619   7.236   2.576  0.00  0.00    -0.269 OA
ATOM     22  H   UNL     1       4.015   8.121  -0.449  0.00  0.00    +0.174 HD
BRANCH  20  23
ATOM     23  C   UNL     1       4.806   9.408   1.737  0.00  0.00    +0.038 A 
ATOM     24  C   UNL     1       4.686  10.249   0.629  0.00  0.00    +0.013 A 
ATOM     25  C   UNL     1       4.961  11.595   0.755  0.00  0.00    +0.005 A 
ATOM     26  C   UNL     1       5.364  12.110   1.974  0.00  0.00    -0.042 A 
ATOM     27  C   UNL     1       5.490  11.282   3.075  0.00  0.00    +0.005 A 
ATOM     28  C   UNL     1       5.214   9.935   2.964  0.00  0.00    +0.013 A 
BRANCH  26  29
ATOM     29  C   UNL     1       5.668  13.581   2.103  0.00  0.00    -0.013 C 
ATOM     30  C   UNL     1       7.122  13.764   2.542  0.00  0.00    +0.015 C 
ATOM     31  C   UNL     1       5.453  14.266   0.752  0.00  0.00    +0.015 C 
ATOM     32  C   UNL     1       4.738  14.204   3.145  0.00  0.00    +0.015 C 
ENDBRANCH  26  29
ENDBRANCH  20  23
ENDBRANCH   5  19
TORSDOF 5
