REMARK  Name = ZINC07658712
REMARK  4 active torsions:
REMARK  status: ('A' for Active; 'I' for Inactive)
REMARK    1  A    between atoms: N_11  and  C_15
REMARK    2  A    between atoms: C_15  and  C_16
REMARK    3  A    between atoms: C_16  and  O_18
REMARK    4  A    between atoms: O_18  and  C_19
REMARK                            x       y       z     vdW  Elec       q    Type
REMARK                         _______ _______ _______ _____ _____    ______ ____
ROOT
ATOM      1  C   UNL     1       5.088  -3.572   7.476  0.00  0.00    +0.002 A 
ATOM      2  C   UNL     1       5.321  -4.883   7.769  0.00  0.00    +0.009 A 
ATOM      3  C   UNL     1       6.020  -5.672   6.840  0.00  0.00    -0.014 A 
ATOM      4  C   UNL     1       6.310  -7.030   7.048  0.00  0.00    +0.009 A 
ATOM      5  C   UNL     1       6.995  -7.729   6.098  0.00  0.00    +0.003 A 
ATOM      6  C   UNL     1       7.420  -7.120   4.911  0.00  0.00    +0.029 A 
ATOM      7  C   UNL     1       7.152  -5.820   4.691  0.00  0.00    +0.118 A 
ATOM      8  C   UNL     1       6.451  -5.067   5.641  0.00  0.00    +0.031 A 
ATOM      9  C   UNL     1       6.219  -3.726   5.342  0.00  0.00    +0.061 A 
ATOM     10  C   UNL     1       5.516  -2.986   6.291  0.00  0.00    +0.025 A 
ATOM     11  N   UNL     1       6.712  -3.289   4.102  0.00  0.00    -0.192 N 
ATOM     12  S   UNL     1       7.450  -4.629   3.416  0.00  0.00    +0.076 S 
ATOM     13  O   UNL     1       6.687  -5.011   2.279  0.00  0.00    -0.150 OA
ATOM     14  O   UNL     1       8.849  -4.380   3.374  0.00  0.00    -0.150 OA
ENDROOT
BRANCH  11  15
ATOM     15  C   UNL     1       6.608  -1.944   3.530  0.00  0.00    +0.252 C 
BRANCH  15  16
ATOM     16  C   UNL     1       5.288  -1.802   2.817  0.00  0.00    +0.332 C 
ATOM     17  O   UNL     1       4.514  -2.729   2.788  0.00  0.00    -0.249 OA
BRANCH  16  18
ATOM     18  O   UNL     1       4.973  -0.646   2.212  0.00  0.00    -0.425 OA
BRANCH  18  19
ATOM     19  C   UNL     1       3.721  -0.542   1.692  0.00  0.00    +0.135 A 
ATOM     20  C   UNL     1       2.622  -0.481   2.536  0.00  0.00    +0.050 A 
ATOM     21  C   UNL     1       1.349  -0.376   2.009  0.00  0.00    +0.053 A 
ATOM     22  C   UNL     1       1.166  -0.331   0.637  0.00  0.00    +0.166 A 
ATOM     23  C   UNL     1       2.268  -0.393  -0.213  0.00  0.00    +0.170 A 
ATOM     24  C   UNL     1       3.543  -0.498   0.317  0.00  0.00    +0.096 A 
ATOM     25  O   UNL     1       1.828  -0.331  -1.504  0.00  0.00    -0.452 OA
ATOM     26  C   UNL     1       0.483   0.179  -1.428  0.00  0.00    +0.466 C 
ATOM     27  O   UNL     1       0.035  -0.231  -0.122  0.00  0.00    -0.453 OA
ENDBRANCH  18  19
ENDBRANCH  16  18
ENDBRANCH  15  16
ENDBRANCH  11  15
TORSDOF 4
