REMARK  Name = ZINC63648768
REMARK  13 active torsions:
REMARK  status: ('A' for Active; 'I' for Inactive)
REMARK    1  A    between atoms: C_1  and  C_2
REMARK    2  A    between atoms: C_2  and  O_3
REMARK    3  A    between atoms: O_3  and  C_4
REMARK    4  A    between atoms: C_7  and  C_13
REMARK    5  A    between atoms: C_9  and  O_10
REMARK    6  A    between atoms: O_10  and  C_11
REMARK    7  A    between atoms: C_11  and  C_12
REMARK    8  A    between atoms: C_19  and  C_26
REMARK    9  A    between atoms: C_20  and  C_25
REMARK   10  A    between atoms: C_23  and  C_24
REMARK   11  A    between atoms: N_28  and  C_29
REMARK   12  A    between atoms: C_29  and  C_30
REMARK   13  A    between atoms: C_30  and  C_31
REMARK                            x       y       z     vdW  Elec       q    Type
REMARK                         _______ _______ _______ _____ _____    ______ ____
ROOT
ATOM      1  C   UNL     1      -1.938  -6.222   0.105  0.00  0.00    +0.109 C 
ATOM      2  C   UNL     1      -1.284  -6.775  -1.171  0.00  0.00    +0.226 C 
ATOM      3  N   UNL     1      -0.827  -5.694  -2.046  0.00  0.00    -0.266 NA
ATOM      4  C   UNL     1       0.291  -5.818  -2.698  0.00  0.00    +0.121 C 
ATOM      5  C   UNL     1       1.119  -7.027  -2.582  0.00  0.00    +0.073 C 
ATOM      6  C   UNL     1       0.921  -7.863  -1.483  0.00  0.00    +0.042 C 
ATOM      7  N   UNL     1      -0.092  -7.478  -0.647  0.00  0.00    -0.203 N 
ATOM      8  N   UNL     1      -0.178  -7.538   0.733  0.00  0.00    -0.187 NA
ATOM      9  C   UNL     1      -1.149  -6.869   1.225  0.00  0.00    +0.045 C 
ATOM     10  C   UNL     1      -1.464  -6.741   2.693  0.00  0.00    +0.063 C 
ATOM     11  C   UNL     1       1.742  -9.104  -1.238  0.00  0.00    +0.063 C 
ENDROOT
BRANCH   1  15
ATOM     12  C   UNL     1      -1.554  -1.966   0.266  0.00  0.00    +0.162 A 
ATOM     13  C   UNL     1      -0.424  -2.764   0.177  0.00  0.00    +0.050 A 
ATOM     14  C   UNL     1      -0.552  -4.139   0.126  0.00  0.00    +0.008 A 
ATOM     15  C   UNL     1      -1.805  -4.722   0.162  0.00  0.00    -0.031 A 
ATOM     16  C   UNL     1      -2.936  -3.932   0.249  0.00  0.00    +0.053 A 
ATOM     17  C   UNL     1      -2.815  -2.553   0.308  0.00  0.00    +0.162 A 
BRANCH  12  18
ATOM     18  O   UNL     1      -1.431  -0.613   0.317  0.00  0.00    -0.489 OA
BRANCH  18  20
ATOM     19  C   UNL     1      -0.167   1.447   0.337  0.00  0.00    +0.048 C 
ATOM     20  C   UNL     1      -0.105  -0.080   0.269  0.00  0.00    +0.226 C 
ENDBRANCH  18  20
ENDBRANCH  12  18
BRANCH  17  21
ATOM     21  O   UNL     1      -3.926  -1.775   0.400  0.00  0.00    -0.489 OA
BRANCH  21  22
ATOM     22  C   UNL     1      -5.187  -2.447   0.438  0.00  0.00    +0.226 C 
ATOM     23  C   UNL     1      -6.312  -1.414   0.542  0.00  0.00    +0.048 C 
ENDBRANCH  21  22
ENDBRANCH  17  21
ENDBRANCH   1  15
BRANCH   5  24
ATOM     24  C   UNL     1       2.128  -7.348  -3.599  0.00  0.00    +0.247 C 
ATOM     25  O   UNL     1       2.870  -8.300  -3.442  0.00  0.00    -0.270 OA
ATOM     26  N   UNL     1       2.234  -6.587  -4.707  0.00  0.00    -0.311 N 
ATOM     27  H   UNL     1       1.643  -5.828  -4.832  0.00  0.00    +0.149 HD
BRANCH  26  28
ATOM     28  C   UNL     1       3.241  -6.907  -5.721  0.00  0.00    +0.109 C 
BRANCH  28  29
ATOM     29  C   UNL     1       3.150  -5.896  -6.867  0.00  0.00    +0.052 C 
BRANCH  29  30
ATOM     30  C   UNL     1       4.186  -6.225  -7.910  0.00  0.00    -0.040 C 
ATOM     31  C   UNL     1       4.006  -6.960  -9.031  0.00  0.00    -0.001 A 
ATOM     32  C   UNL     1       2.838  -7.647  -9.593  0.00  0.00    +0.010 A 
ATOM     33  C   UNL     1       2.969  -8.319 -10.760  0.00  0.00    +0.001 A 
ATOM     34  C   UNL     1       4.191  -8.374 -11.444  0.00  0.00    +0.002 A 
ATOM     35  C   UNL     1       5.309  -7.768 -10.992  0.00  0.00    +0.026 A 
ATOM     36  C   UNL     1       5.285  -7.033  -9.774  0.00  0.00    +0.043 A 
ATOM     37  N   UNL     1       6.219  -6.370  -9.136  0.00  0.00    -0.380 N 
ATOM     38  C   UNL     1       5.636  -5.795  -7.919  0.00  0.00    +0.144 C 
ATOM     39  H   UNL     1       7.140  -6.272  -9.424  0.00  0.00    +0.160 HD
ENDBRANCH  29  30
ENDBRANCH  28  29
ENDBRANCH  26  28
ENDBRANCH   5  24
TORSDOF 9
