REMARK  Name = ZINC20644587
REMARK  10 active torsions:
REMARK  status: ('A' for Active; 'I' for Inactive)
REMARK    1  A    between atoms: C_1  and  C_2
REMARK    2  A    between atoms: C_2  and  N_3
REMARK    3  A    between atoms: C_7  and  C_9
REMARK    4  A    between atoms: C_9  and  N_10
REMARK    5  A    between atoms: C_15  and  O_25
REMARK    6  A    between atoms: C_16  and  O_22
REMARK    7  A    between atoms: O_22  and  C_23
REMARK    8  A    between atoms: C_23  and  C_24
REMARK    9  A    between atoms: O_25  and  C_26
REMARK   10  A    between atoms: C_26  and  C_27
REMARK                            x       y       z     vdW  Elec       q    Type
REMARK                         _______ _______ _______ _____ _____    ______ ____
ROOT
ATOM      1  N   UNL     1       3.065  -1.573   0.194  0.00  0.00    -0.288 N 
ATOM      2  C   UNL     1       3.179  -2.029  -1.075  0.00  0.00    +0.262 A 
ATOM      3  O   UNL     1       2.670  -3.081  -1.415  0.00  0.00    -0.267 OA
ATOM      4  C   UNL     1       3.939  -1.209  -2.026  0.00  0.00    +0.069 A 
ATOM      5  C   UNL     1       4.109  -1.598  -3.357  0.00  0.00    +0.064 A 
ATOM      6  C   UNL     1       4.831  -0.794  -4.213  0.00  0.00    +0.163 A 
ATOM      7  C   UNL     1       5.390   0.405  -3.757  0.00  0.00    +0.164 A 
ATOM      8  C   UNL     1       5.230   0.802  -2.445  0.00  0.00    +0.078 A 
ATOM      9  C   UNL     1       4.503   0.002  -1.562  0.00  0.00    +0.083 A 
ATOM     10  N   UNL     1       4.324   0.359  -0.268  0.00  0.00    -0.222 NA
ATOM     11  C   UNL     1       3.636  -0.388   0.560  0.00  0.00    +0.183 A 
ATOM     12  S   UNL     1       3.447   0.157   2.225  0.00  0.00    -0.011 SA
ENDROOT
BRANCH   1  13
ATOM     13  C   UNL     1       2.317  -2.355   1.181  0.00  0.00    +0.112 C 
BRANCH  13  18
ATOM     14  N   UNL     1       4.067  -4.082   1.102  0.00  0.00    +0.383 N 
ATOM     15  C   UNL     1       3.778  -5.489   1.450  0.00  0.00    -0.078 C 
ATOM     16  C   UNL     1       3.314  -5.445   2.927  0.00  0.00    -0.020 C 
ATOM     17  C   UNL     1       2.503  -4.123   2.961  0.00  0.00    -0.015 C 
ATOM     18  C   UNL     1       3.289  -3.208   1.999  0.00  0.00    -0.048 C 
ATOM     19  H   UNL     1       3.800  -3.909   0.144  0.00  0.00    -0.081 HD
BRANCH  14  21
ATOM     20  C   UNL     1       6.297  -4.632   0.254  0.00  0.00    -0.017 C 
ATOM     21  C   UNL     1       5.501  -3.814   1.273  0.00  0.00    -0.082 C 
ENDBRANCH  14  21
ENDBRANCH  13  18
ENDBRANCH   1  13
BRANCH   7  22
ATOM     22  O   UNL     1       6.099   1.184  -4.615  0.00  0.00    -0.489 OA
BRANCH  22  23
ATOM     23  C   UNL     1       6.645   2.396  -4.089  0.00  0.00    +0.226 C 
ATOM     24  C   UNL     1       7.403   3.135  -5.194  0.00  0.00    +0.048 C 
ENDBRANCH  22  23
ENDBRANCH   7  22
BRANCH   6  25
ATOM     25  O   UNL     1       5.000  -1.169  -5.510  0.00  0.00    -0.489 OA
BRANCH  25  26
ATOM     26  C   UNL     1       4.404  -2.404  -5.911  0.00  0.00    +0.226 C 
ATOM     27  C   UNL     1       4.699  -2.656  -7.391  0.00  0.00    +0.048 C 
ENDBRANCH  25  26
ENDBRANCH   6  25
TORSDOF 7
