REMARK  Name = ZINC43218732
REMARK  8 active torsions:
REMARK  status: ('A' for Active; 'I' for Inactive)
REMARK    1  A    between atoms: C_1  and  C_2
REMARK    2  A    between atoms: C_2  and  O_4
REMARK    3  A    between atoms: O_4  and  C_5
REMARK    4  A    between atoms: C_8  and  C_11
REMARK    5  A    between atoms: N_19  and  C_22
REMARK    6  A    between atoms: C_28  and  C_30
REMARK    7  A    between atoms: C_28  and  C_41
REMARK    8  A    between atoms: C_30  and  C_31
REMARK                            x       y       z     vdW  Elec       q    Type
REMARK                         _______ _______ _______ _____ _____    ______ ____
ROOT
ATOM      1  C   UNL     1       0.213  -6.292  -1.411  0.00  0.00    -0.027 C 
ATOM      2  C   UNL     1      -1.147  -6.867  -1.798  0.00  0.00    +0.077 C 
ATOM      3  C   UNL     1      -0.638  -8.291  -2.241  0.00  0.00    +0.086 C 
ATOM      4  C   UNL     1      -1.859  -9.060  -2.233  0.00  0.00    +0.225 C 
ATOM      5  O   UNL     1      -2.160  -9.976  -2.968  0.00  0.00    -0.275 OA
ATOM      6  N   UNL     1      -2.606  -8.529  -1.210  0.00  0.00    -0.239 N 
ATOM      7  C   UNL     1      -2.118  -7.322  -0.754  0.00  0.00    +0.225 C 
ATOM      8  O   UNL     1      -2.404  -6.749   0.275  0.00  0.00    -0.275 OA
ATOM      9  C   UNL     1       0.497  -7.990  -3.122  0.00  0.00    +0.052 C 
ATOM     10  N   UNL     1       1.105  -6.740  -2.529  0.00  0.00    +0.396 N 
ATOM     11  H   UNL     1       1.153  -6.024  -3.237  0.00  0.00    -0.083 HD
ATOM     12  H   UNL     1       2.030  -6.933  -2.173  0.00  0.00    -0.083 HD
ENDROOT
BRANCH   1  16
ATOM     13  C   UNL     1       0.052  -2.026  -1.224  0.00  0.00    +0.132 A 
ATOM     14  C   UNL     1       0.030  -2.774  -0.056  0.00  0.00    +0.046 A 
ATOM     15  C   UNL     1       0.082  -4.153  -0.119  0.00  0.00    +0.005 A 
ATOM     16  C   UNL     1       0.156  -4.788  -1.345  0.00  0.00    -0.060 A 
ATOM     17  C   UNL     1       0.178  -4.045  -2.510  0.00  0.00    +0.005 A 
ATOM     18  C   UNL     1       0.120  -2.666  -2.453  0.00  0.00    +0.046 A 
BRANCH  13  19
ATOM     19  O   UNL     1       0.000  -0.669  -1.164  0.00  0.00    -0.426 OA
BRANCH  19  21
ATOM     20  C   UNL     1       1.145   1.497  -0.855  0.00  0.00    +0.136 C 
ATOM     21  C   UNL     1       1.120  -0.010  -0.827  0.00  0.00    +0.309 C 
ATOM     22  O   UNL     1       2.107  -0.625  -0.500  0.00  0.00    -0.251 OA
ENDBRANCH  19  21
ENDBRANCH  13  19
ENDBRANCH   1  16
BRANCH   6  23
ATOM     23  C   UNL     1      -3.806  -9.169  -0.666  0.00  0.00    +0.084 C 
ATOM     24  C   UNL     1      -5.006  -8.235  -0.841  0.00  0.00    +0.023 C 
ATOM     25  C   UNL     1      -6.259  -8.903  -0.272  0.00  0.00    +0.002 C 
ATOM     26  C   UNL     1      -6.052  -9.194   1.216  0.00  0.00    +0.000 C 
ATOM     27  C   UNL     1      -4.853 -10.127   1.391  0.00  0.00    +0.002 C 
ATOM     28  C   UNL     1      -3.599  -9.460   0.822  0.00  0.00    +0.023 C 
ENDBRANCH   6  23
BRANCH   9  29
ATOM     29  C   UNL     1       0.020  -7.754  -4.532  0.00  0.00    +0.347 C 
ATOM     30  O   UNL     1       0.229  -6.683  -5.075  0.00  0.00    -0.248 OA
ATOM     31  O   UNL     1      -0.576  -8.635  -5.129  0.00  0.00    -0.248 OA
ENDBRANCH   9  29
BRANCH   9  32
ATOM     32  C   UNL     1       1.517  -9.130  -3.086  0.00  0.00    +0.037 C 
BRANCH  32  33
ATOM     33  C   UNL     1       2.727  -8.747  -3.899  0.00  0.00    -0.023 A 
ATOM     34  C   UNL     1       2.954  -9.054  -5.186  0.00  0.00    +0.087 A 
ATOM     35  N   UNL     1       4.157  -8.537  -5.583  0.00  0.00    -0.360 N 
ATOM     36  H   UNL     1       4.536  -8.628  -6.471  0.00  0.00    +0.165 HD
ATOM     37  C   UNL     1       4.748  -7.868  -4.535  0.00  0.00    +0.047 A 
ATOM     38  C   UNL     1       3.876  -7.965  -3.436  0.00  0.00    +0.003 A 
ATOM     39  C   UNL     1       4.216  -7.367  -2.221  0.00  0.00    +0.010 A 
ATOM     40  C   UNL     1       5.396  -6.687  -2.107  0.00  0.00    +0.001 A 
ATOM     41  C   UNL     1       6.258  -6.585  -3.190  0.00  0.00    +0.002 A 
ATOM     42  C   UNL     1       5.946  -7.175  -4.395  0.00  0.00    +0.026 A 
ENDBRANCH  32  33
ENDBRANCH   9  32
TORSDOF 7
