REMARK  Name = ZINC02074438
REMARK  15 active torsions:
REMARK  status: ('A' for Active; 'I' for Inactive)
REMARK    1  A    between atoms: C_1  and  C_2
REMARK    2  A    between atoms: C_2  and  S_3
REMARK    3  A    between atoms: S_3  and  C_4
REMARK    4  A    between atoms: C_4  and  C_5
REMARK    5  A    between atoms: C_5  and  O_6
REMARK    6  A    between atoms: O_6  and  C_7
REMARK    7  A    between atoms: C_7  and  C_9
REMARK    8  A    between atoms: C_10  and  C_39
REMARK    9  A    between atoms: C_14  and  C_16
REMARK   10  A    between atoms: C_19  and  O_22
REMARK   11  A    between atoms: C_26  and  C_29
REMARK   12  A    between atoms: C_32  and  O_37
REMARK   13  A    between atoms: C_33  and  O_35
REMARK   14  A    between atoms: O_35  and  C_36
REMARK   15  A    between atoms: O_37  and  C_38
REMARK                            x       y       z     vdW  Elec       q    Type
REMARK                         _______ _______ _______ _____ _____    ______ ____
ROOT
ATOM      1  C   UNL     1      -1.375  -1.614  -1.230  0.00  0.00    +0.065 C 
ATOM      2  C   UNL     1      -1.134  -2.935  -1.196  0.00  0.00    +0.016 C 
ATOM      3  N   UNL     1      -0.814  -3.550  -0.018  0.00  0.00    -0.321 N 
ATOM      4  C   UNL     1      -1.113  -2.959   1.181  0.00  0.00    +0.016 C 
ATOM      5  C   UNL     1      -1.351  -1.632   1.249  0.00  0.00    +0.024 C 
ATOM      6  C   UNL     1      -1.293  -0.774   0.010  0.00  0.00    +0.092 C 
ATOM      7  C   UNL     1      -1.658  -1.012   2.473  0.00  0.00    +0.162 C 
ATOM      8  O   UNL     1      -1.883   0.182   2.498  0.00  0.00    -0.292 OA
ATOM      9  C   UNL     1      -1.713  -1.801   3.753  0.00  0.00    +0.088 C 
ATOM     10  C   UNL     1      -0.766  -3.001   3.640  0.00  0.00    +0.032 C 
ATOM     11  C   UNL     1      -1.171  -3.824   2.415  0.00  0.00    +0.059 C 
ATOM     12  C   UNL     1      -1.217  -3.745  -2.464  0.00  0.00    +0.061 C 
ATOM     13  H   UNL     1      -0.312  -4.529  -0.026  0.00  0.00    +0.152 HD
ENDROOT
BRANCH   6  14
ATOM     14  C   UNL     1       0.002  -0.004   0.002  0.00  0.00    -0.035 A 
ATOM     15  C   UNL     1      -0.017   1.378   0.010  0.00  0.00    +0.008 A 
ATOM     16  C   UNL     1       1.169   2.087   0.002  0.00  0.00    +0.046 A 
ATOM     17  C   UNL     1       2.380   1.409  -0.013  0.00  0.00    +0.117 A 
ATOM     18  C   UNL     1       2.396   0.022  -0.020  0.00  0.00    +0.046 A 
ATOM     19  C   UNL     1       1.207  -0.681  -0.013  0.00  0.00    +0.008 A 
BRANCH  17  20
ATOM     20  O   UNL     1       3.548   2.104  -0.021  0.00  0.00    -0.507 OA
ATOM     21  H   UNL     1       4.508   1.566  -0.033  0.00  0.00    +0.292 HD
ENDBRANCH  17  20
ENDBRANCH   6  14
BRANCH  10  22
ATOM     22  C   UNL     1      -0.870  -3.852   4.879  0.00  0.00    -0.040 A 
ATOM     23  C   UNL     1      -2.086  -4.404   5.237  0.00  0.00    +0.008 A 
ATOM     24  C   UNL     1      -2.187  -5.185   6.373  0.00  0.00    +0.049 A 
ATOM     25  C   UNL     1      -1.067  -5.417   7.155  0.00  0.00    +0.161 A 
ATOM     26  C   UNL     1       0.157  -4.862   6.795  0.00  0.00    +0.162 A 
ATOM     27  C   UNL     1       0.252  -4.083   5.653  0.00  0.00    +0.053 A 
BRANCH  26  28
ATOM     28  O   UNL     1       1.259  -5.086   7.560  0.00  0.00    -0.491 OA
ATOM     29  C   UNL     1       2.481  -4.484   7.129  0.00  0.00    +0.277 C 
ENDBRANCH  26  28
BRANCH  25  30
ATOM     30  O   UNL     1      -1.164  -6.185   8.274  0.00  0.00    -0.491 OA
ATOM     31  C   UNL     1      -2.452  -6.722   8.582  0.00  0.00    +0.277 C 
ENDBRANCH  25  30
ENDBRANCH  10  22
BRANCH   1  32
ATOM     32  C   UNL     1      -1.712  -1.004  -2.461  0.00  0.00    +0.338 C 
ATOM     33  O   UNL     1      -1.781  -1.675  -3.474  0.00  0.00    -0.245 OA
BRANCH  32  34
ATOM     34  O   UNL     1      -1.957   0.322  -2.511  0.00  0.00    -0.460 OA
BRANCH  34  35
ATOM     35  C   UNL     1      -2.291   0.872  -3.787  0.00  0.00    +0.243 C 
BRANCH  35  36
ATOM     36  C   UNL     1      -2.532   2.376  -3.647  0.00  0.00    +0.110 C 
BRANCH  36  37
ATOM     37  S   UNL     1      -2.957   3.074  -5.267  0.00  0.00    -0.158 S 
BRANCH  37  39
ATOM     38  C   UNL     1      -3.577   5.557  -6.232  0.00  0.00    +0.015 C 
ATOM     39  C   UNL     1      -3.208   4.839  -4.932  0.00  0.00    +0.066 C 
ENDBRANCH  37  39
ENDBRANCH  36  37
ENDBRANCH  35  36
ENDBRANCH  34  35
ENDBRANCH  32  34
ENDBRANCH   1  32
TORSDOF 11
