REMARK  Name = ZINC20709575
REMARK  7 active torsions:
REMARK  status: ('A' for Active; 'I' for Inactive)
REMARK    1  A    between atoms: C_1  and  C_2
REMARK    2  A    between atoms: C_2  and  C_4
REMARK    3  A    between atoms: C_2  and  N_10
REMARK    4  A    between atoms: C_11  and  C_13
REMARK    5  A    between atoms: C_20  and  C_29
REMARK    6  A    between atoms: C_31  and  N_36
REMARK    7  A    between atoms: C_34  and  O_35
REMARK                            x       y       z     vdW  Elec       q    Type
REMARK                         _______ _______ _______ _____ _____    ______ ____
ROOT
ATOM      1  C   UNL     1       2.005   1.138   4.029  0.00  0.00    +0.058 A 
ATOM      2  C   UNL     1       1.600  -0.039   4.659  0.00  0.00    +0.015 A 
ATOM      3  C   UNL     1       2.189  -0.413   5.846  0.00  0.00    +0.001 A 
ATOM      4  C   UNL     1       3.169   0.378   6.417  0.00  0.00    +0.006 A 
ATOM      5  C   UNL     1       3.581   1.556   5.810  0.00  0.00    -0.019 A 
ATOM      6  C   UNL     1       3.003   1.942   4.613  0.00  0.00    +0.044 A 
ATOM      7  N   UNL     1       3.372   3.104   3.953  0.00  0.00    -0.336 N 
ATOM      8  C   UNL     1       3.905   4.115   4.867  0.00  0.00    +0.108 C 
ATOM      9  C   UNL     1       5.114   3.541   5.611  0.00  0.00    +0.029 C 
ATOM     10  C   UNL     1       4.645   2.364   6.493  0.00  0.00    +0.049 C 
ATOM     11  C   UNL     1       4.094   3.028   7.733  0.00  0.00    -0.023 C 
ATOM     12  C   UNL     1       4.572   4.241   7.855  0.00  0.00    -0.030 C 
ATOM     13  C   UNL     1       5.520   4.556   6.715  0.00  0.00    +0.033 C 
ATOM     14  H   UNL     1       3.303   3.317   2.876  0.00  0.00    +0.147 HD
ENDROOT
BRANCH   8  15
ATOM     15  C   UNL     1       4.328   5.329   4.082  0.00  0.00    +0.017 A 
ATOM     16  C   UNL     1       5.667   5.556   3.827  0.00  0.00    +0.041 A 
ATOM     17  C   UNL     1       6.056   6.667   3.102  0.00  0.00    +0.127 A 
ATOM     18  C   UNL     1       5.107   7.561   2.640  0.00  0.00    +0.036 A 
ATOM     19  C   UNL     1       3.768   7.341   2.897  0.00  0.00    +0.048 A 
ATOM     20  C   UNL     1       3.375   6.224   3.619  0.00  0.00    +0.122 A 
BRANCH  17  21
ATOM     21  N   UNL     1       7.490   6.904   2.825  0.00  0.00    +0.056 N 
ATOM     22  O   UNL     1       7.834   7.886   2.191  0.00  0.00    -0.126 OA
ATOM     23  O   UNL     1       8.327   6.118   3.232  0.00  0.00    -0.126 OA
ENDBRANCH  17  21
BRANCH  20  24
ATOM     24  O   UNL     1       2.058   6.006   3.874  0.00  0.00    -0.506 OA
ATOM     25  H   UNL     1       1.302   6.716   3.506  0.00  0.00    +0.292 HD
ENDBRANCH  20  24
ENDBRANCH   8  15
BRANCH   1  27
ATOM     26  N   UNL     1       0.430   0.774   2.195  0.00  0.00    -0.305 N 
ATOM     27  C   UNL     1       1.385   1.543   2.754  0.00  0.00    +0.246 C 
ATOM     28  O   UNL     1       1.735   2.572   2.208  0.00  0.00    -0.270 OA
ATOM     29  H   UNL     1       0.113  -0.156   2.689  0.00  0.00    +0.150 HD
BRANCH  26  31
ATOM     30  C   UNL     1       0.679   0.693  -0.237  0.00  0.00    +0.033 C 
ATOM     31  C   UNL     1      -0.187   1.177   0.928  0.00  0.00    +0.100 C 
BRANCH  31  32
ATOM     32  C   UNL     1      -1.560   0.565   0.822  0.00  0.00    -0.027 A 
ATOM     33  C   UNL     1      -1.772  -0.735   1.241  0.00  0.00    +0.005 A 
ATOM     34  C   UNL     1      -3.033  -1.294   1.147  0.00  0.00    +0.000 A 
ATOM     35  C   UNL     1      -4.079  -0.556   0.625  0.00  0.00    +0.000 A 
ATOM     36  C   UNL     1      -3.866   0.742   0.201  0.00  0.00    +0.000 A 
ATOM     37  C   UNL     1      -2.606   1.302   0.298  0.00  0.00    +0.005 A 
ENDBRANCH  31  32
ENDBRANCH  26  31
ENDBRANCH   1  27
TORSDOF 6
