REMARK  Name = ZINC12152737
REMARK  8 active torsions:
REMARK  status: ('A' for Active; 'I' for Inactive)
REMARK    1  A    between atoms: C_1  and  O_2
REMARK    2  A    between atoms: O_2  and  C_3
REMARK    3  A    between atoms: C_3  and  C_5
REMARK    4  A    between atoms: C_6  and  N_20
REMARK    5  A    between atoms: C_10  and  C_14
REMARK    6  A    between atoms: C_14  and  N_54
REMARK    7  A    between atoms: C_21  and  C_23
REMARK    8  A    between atoms: C_24  and  C_25
REMARK                            x       y       z     vdW  Elec       q    Type
REMARK                         _______ _______ _______ _____ _____    ______ ____
ROOT
ATOM      1  C   UNL     1      -1.255  -2.180   0.629  0.00  0.00    +0.120 A 
ATOM      2  C   UNL     1      -2.349  -2.854   0.132  0.00  0.00    +0.064 A 
ATOM      3  C   UNL     1      -2.134  -4.138  -0.516  0.00  0.00    +0.030 A 
ATOM      4  C   UNL     1      -3.090  -5.005  -1.102  0.00  0.00    +0.014 A 
ATOM      5  C   UNL     1      -2.663  -6.186  -1.660  0.00  0.00    +0.022 A 
ATOM      6  C   UNL     1      -1.317  -6.522  -1.650  0.00  0.00    +0.026 A 
ATOM      7  N   UNL     1      -0.431  -5.713  -1.105  0.00  0.00    -0.246 NA
ATOM      8  C   UNL     1      -0.789  -4.571  -0.557  0.00  0.00    +0.111 A 
ATOM      9  S   UNL     1       0.106  -3.267   0.249  0.00  0.00    -0.060 S 
ENDROOT
BRANCH   2  10
ATOM     10  N   UNL     1      -3.627  -2.318   0.244  0.00  0.00    -0.280 N 
ATOM     11  C   UNL     1      -4.630  -3.067   0.741  0.00  0.00    +0.241 C 
ATOM     12  O   UNL     1      -4.405  -4.189   1.157  0.00  0.00    -0.270 OA
ATOM     13  H   UNL     1      -3.796  -1.405  -0.036  0.00  0.00    +0.155 HD
BRANCH  11  14
ATOM     14  C   UNL     1      -5.991  -2.532   0.782  0.00  0.00    +0.068 C 
ATOM     15  C   UNL     1      -6.996  -3.282   1.280  0.00  0.00    +0.016 C 
BRANCH  15  16
ATOM     16  C   UNL     1      -8.365  -2.744   1.321  0.00  0.00    +0.010 A 
ATOM     17  C   UNL     1      -8.629  -1.456   0.844  0.00  0.00    +0.011 A 
ATOM     18  C   UNL     1      -9.913  -0.959   0.886  0.00  0.00    +0.001 A 
ATOM     19  C   UNL     1     -10.943  -1.730   1.397  0.00  0.00    +0.003 A 
ATOM     20  C   UNL     1     -10.694  -3.005   1.871  0.00  0.00    +0.039 A 
ATOM     21  C   UNL     1      -9.412  -3.522   1.831  0.00  0.00    +0.131 A 
ATOM     22  F   UNL     1      -9.170  -4.770   2.289  0.00  0.00    -0.205 F 
ENDBRANCH  15  16
ENDBRANCH  11  14
ENDBRANCH   2  10
BRANCH   1  23
ATOM     23  C   UNL     1      -1.220  -0.927   1.290  0.00  0.00    +0.348 C 
ATOM     24  O   UNL     1      -2.259  -0.371   1.595  0.00  0.00    -0.244 OA
BRANCH  23  26
ATOM     25  C   UNL     1      -0.075   0.913   2.248  0.00  0.00    +0.280 C 
ATOM     26  O   UNL     1      -0.035  -0.350   1.581  0.00  0.00    -0.464 OA
ENDBRANCH  23  26
ENDBRANCH   1  23
BRANCH   6  27
ATOM     27  C   UNL     1      -0.866  -7.821  -2.267  0.00  0.00    -0.022 C 
BRANCH  27  33
ATOM     28  C   UNL     1      -1.558  -7.125  -4.477  0.00  0.00    -0.067 C 
ATOM     29  C   UNL     1      -1.027  -6.455  -5.750  0.00  0.00    +0.050 C 
ATOM     30  S   UNL     1      -0.075  -7.688  -6.691  0.00  0.00    -0.164 S 
ATOM     31  C   UNL     1       1.054  -8.366  -5.435  0.00  0.00    +0.050 C 
ATOM     32  C   UNL     1       0.227  -8.764  -4.207  0.00  0.00    -0.067 C 
ATOM     33  N   UNL     1      -0.412  -7.552  -3.643  0.00  0.00    +0.384 N 
ATOM     34  H   UNL     1       0.280  -6.794  -3.623  0.00  0.00    -0.081 HD
ENDBRANCH  27  33
ENDBRANCH   6  27
TORSDOF 7
