REMARK  Name = ZINC17287613
REMARK  10 active torsions:
REMARK  status: ('A' for Active; 'I' for Inactive)
REMARK    1  A    between atoms: C_1  and  C_2
REMARK    2  A    between atoms: C_2  and  N_69
REMARK    3  A    between atoms: C_3  and  C_4
REMARK    4  A    between atoms: C_3  and  N_69
REMARK    5  A    between atoms: C_5  and  C_6
REMARK    6  A    between atoms: C_5  and  N_69
REMARK    7  A    between atoms: C_6  and  N_7
REMARK    8  A    between atoms: C_18  and  C_20
REMARK    9  A    between atoms: C_23  and  S_26
REMARK   10  A    between atoms: S_26  and  N_29
REMARK                            x       y       z     vdW  Elec       q    Type
REMARK                         _______ _______ _______ _____ _____    ______ ____
ROOT
ATOM      1  N   UNL     1       0.262   0.629  -0.600  0.00  0.00    -0.248 N 
ATOM      2  C   UNL     1      -0.822  -0.125  -0.184  0.00  0.00    +0.168 A 
ATOM      3  N   UNL     1      -1.836   0.236   0.567  0.00  0.00    -0.224 NA
ATOM      4  C   UNL     1      -2.834  -0.613   0.896  0.00  0.00    +0.080 A 
ATOM      5  C   UNL     1      -3.974  -0.353   1.692  0.00  0.00    +0.032 A 
ATOM      6  C   UNL     1      -4.901  -1.334   1.931  0.00  0.00    +0.040 A 
ATOM      7  C   UNL     1      -4.756  -2.612   1.405  0.00  0.00    +0.125 A 
ATOM      8  C   UNL     1      -3.652  -2.901   0.622  0.00  0.00    +0.055 A 
ATOM      9  C   UNL     1      -2.720  -1.923   0.378  0.00  0.00    +0.043 A 
ATOM     10  S   UNL     1      -1.202  -1.835  -0.541  0.00  0.00    -0.052 S 
ATOM     11  F   UNL     1      -5.684  -3.562   1.655  0.00  0.00    -0.205 F 
ATOM     12  C   UNL     1       0.369   1.919  -0.226  0.00  0.00    +0.252 C 
ATOM     13  O   UNL     1      -0.507   2.433   0.441  0.00  0.00    -0.270 OA
ENDROOT
BRANCH  12  14
ATOM     14  C   UNL     1       1.548   2.711  -0.633  0.00  0.00    +0.037 A 
ATOM     15  C   UNL     1       2.772   2.079  -0.864  0.00  0.00    +0.015 A 
ATOM     16  C   UNL     1       3.867   2.824  -1.249  0.00  0.00    +0.029 A 
ATOM     17  C   UNL     1       3.759   4.195  -1.395  0.00  0.00    +0.106 A 
ATOM     18  C   UNL     1       2.551   4.829  -1.162  0.00  0.00    +0.029 A 
ATOM     19  C   UNL     1       1.446   4.096  -0.782  0.00  0.00    +0.015 A 
BRANCH  17  20
ATOM     20  S   UNL     1       5.165   5.140  -1.880  0.00  0.00    +0.061 S 
ATOM     21  O   UNL     1       6.035   4.250  -2.567  0.00  0.00    -0.153 OA
ATOM     22  O   UNL     1       4.669   6.330  -2.476  0.00  0.00    -0.153 OA
BRANCH  20  23
ATOM     23  N   UNL     1       5.951   5.595  -0.496  0.00  0.00    -0.177 NA
ATOM     24  C   UNL     1       5.587   6.849   0.127  0.00  0.00    +0.109 C 
ATOM     25  C   UNL     1       6.443   7.993  -0.457  0.00  0.00    +0.017 C 
ATOM     26  C   UNL     1       7.833   7.881   0.013  0.00  0.00    +0.001 C 
ATOM     27  C   UNL     1       8.546   6.608  -0.432  0.00  0.00    +0.001 C 
ATOM     28  C   UNL     1       8.229   5.493   0.534  0.00  0.00    +0.017 C 
ATOM     29  C   UNL     1       6.997   4.708   0.049  0.00  0.00    +0.109 C 
ENDBRANCH  20  23
ENDBRANCH  17  20
ENDBRANCH  12  14
BRANCH   1  30
ATOM     30  C   UNL     1       1.294   0.023  -1.446  0.00  0.00    +0.097 C 
BRANCH  30  31
ATOM     31  C   UNL     1       2.162  -0.912  -0.602  0.00  0.00    -0.059 C 
BRANCH  31  32
ATOM     32  N   UNL     1       3.294  -1.386  -1.425  0.00  0.00    +0.380 N 
ATOM     33  H   UNL     1       3.786  -0.573  -1.816  0.00  0.00    -0.082 HD
BRANCH  32  35
ATOM     34  C   UNL     1       5.498  -2.447  -1.407  0.00  0.00    -0.017 C 
ATOM     35  C   UNL     1       4.236  -2.161  -0.591  0.00  0.00    -0.082 C 
ENDBRANCH  32  35
BRANCH  32  36
ATOM     36  C   UNL     1       2.795  -2.224  -2.535  0.00  0.00    -0.082 C 
ATOM     37  C   UNL     1       1.961  -3.388  -1.995  0.00  0.00    -0.017 C 
ENDBRANCH  32  36
ENDBRANCH  31  32
ENDBRANCH  30  31
ENDBRANCH   1  30
TORSDOF 8
