REMARK  Name = ZINC28288869
REMARK  7 active torsions:
REMARK  status: ('A' for Active; 'I' for Inactive)
REMARK    1  A    between atoms: C_1  and  O_2
REMARK    2  A    between atoms: O_2  and  C_3
REMARK    3  A    between atoms: C_6  and  C_9
REMARK    4  A    between atoms: C_9  and  C_11
REMARK    5  A    between atoms: C_9  and  N_27
REMARK    6  A    between atoms: C_11  and  N_12
REMARK    7  A    between atoms: C_13  and  C_15
REMARK                            x       y       z     vdW  Elec       q    Type
REMARK                         _______ _______ _______ _____ _____    ______ ____
ROOT
ATOM      1  C   UNL     1      -1.162   1.696   3.228  0.00  0.00    +0.094 C 
ENDROOT
BRANCH   1   2
ATOM      2  N   UNL     1      -1.049   3.141   3.014  0.00  0.00    -0.310 N 
ATOM      3  C   UNL     1      -1.953   3.976   3.563  0.00  0.00    +0.279 C 
ATOM      4  O   UNL     1      -2.862   3.530   4.235  0.00  0.00    -0.267 OA
ATOM      5  H   UNL     1      -0.226   3.544   2.406  0.00  0.00    +0.149 HD
BRANCH   3   6
ATOM      6  C   UNL     1      -1.839   5.438   3.348  0.00  0.00    +0.193 A 
ATOM      7  C   UNL     1      -2.765   6.252   3.907  0.00  0.00    +0.103 A 
ATOM      8  C   UNL     1      -2.649   7.704   3.698  0.00  0.00    +0.193 A 
ATOM      9  O   UNL     1      -3.451   8.484   4.181  0.00  0.00    -0.287 OA
ATOM     10  C   UNL     1      -1.520   8.169   2.872  0.00  0.00    +0.064 A 
ATOM     11  C   UNL     1      -1.324   9.525   2.609  0.00  0.00    +0.016 A 
ATOM     12  C   UNL     1      -0.266   9.919   1.838  0.00  0.00    +0.016 A 
ATOM     13  C   UNL     1       0.612   8.978   1.316  0.00  0.00    +0.021 A 
ATOM     14  C   UNL     1       0.434   7.634   1.566  0.00  0.00    +0.062 A 
ATOM     15  C   UNL     1      -0.636   7.211   2.348  0.00  0.00    +0.141 A 
ATOM     16  O   UNL     1      -0.825   5.901   2.602  0.00  0.00    -0.450 OA
ATOM     17 BR   UNL     1       2.069   9.547   0.253  0.00  0.00    -0.050 Br
ENDBRANCH   3   6
ENDBRANCH   1   2
BRANCH   1  18
ATOM     18  C   UNL     1      -0.086   0.974   2.413  0.00  0.00    -0.020 C 
BRANCH  18  19
ATOM     19  N   UNL     1      -0.185   1.379   1.004  0.00  0.00    +0.385 N 
ATOM     20  C   UNL     1      -1.570   1.716   0.650  0.00  0.00    -0.078 C 
ATOM     21  C   UNL     1      -1.612   2.270  -0.776  0.00  0.00    -0.019 C 
ATOM     22  C   UNL     1      -1.060   1.220  -1.743  0.00  0.00    -0.004 C 
ATOM     23  C   UNL     1       0.366   0.850  -1.323  0.00  0.00    -0.019 C 
ATOM     24  C   UNL     1       0.350   0.337   0.119  0.00  0.00    -0.078 C 
ATOM     25  H   UNL     1       0.426   2.283   0.866  0.00  0.00    -0.081 HD
ENDBRANCH  18  19
BRANCH  18  29
ATOM     26  C   UNL     1      -0.656  -3.249   2.726  0.00  0.00    +0.120 A 
ATOM     27  C   UNL     1       0.532  -2.675   3.153  0.00  0.00    +0.046 A 
ATOM     28  C   UNL     1       0.714  -1.310   3.050  0.00  0.00    +0.005 A 
ATOM     29  C   UNL     1      -0.287  -0.515   2.523  0.00  0.00    -0.059 A 
ATOM     30  C   UNL     1      -1.475  -1.084   2.102  0.00  0.00    +0.005 A 
ATOM     31  C   UNL     1      -1.659  -2.450   2.197  0.00  0.00    +0.046 A 
BRANCH  26  33
ATOM     32  C   UNL     1      -2.087  -5.114   2.367  0.00  0.00    +0.277 C 
ATOM     33  O   UNL     1      -0.838  -4.592   2.826  0.00  0.00    -0.495 OA
ENDBRANCH  26  33
ENDBRANCH  18  29
ENDBRANCH   1  18
TORSDOF 6
