REMARK  Name = ZINC00671962
REMARK  10 active torsions:
REMARK  status: ('A' for Active; 'I' for Inactive)
REMARK    1  A    between atoms: C_1  and  C_2
REMARK    2  A    between atoms: C_2  and  C_3
REMARK    3  A    between atoms: C_3  and  C_5
REMARK    4  A    between atoms: C_3  and  O_6
REMARK    5  A    between atoms: O_6  and  C_7
REMARK    6  A    between atoms: C_12  and  C_13
REMARK    7  A    between atoms: C_18  and  C_22
REMARK    8  A    between atoms: C_18  and  C_23
REMARK    9  A    between atoms: C_32  and  C_34
REMARK   10  A    between atoms: C_34  and  C_35
REMARK                            x       y       z     vdW  Elec       q    Type
REMARK                         _______ _______ _______ _____ _____    ______ ____
ROOT
ATOM      1  C   UNL     1       0.007   0.005   0.003  0.00  0.00    +0.150 C 
ATOM      2  C   UNL     1       0.485  -0.734  -1.227  0.00  0.00    +0.037 C 
ATOM      3  C   UNL     1       1.187  -0.204  -2.239  0.00  0.00    +0.017 C 
ATOM      4  C   UNL     1       1.650  -1.081  -3.392  0.00  0.00    +0.058 C 
ATOM      5  C   UNL     1       0.616  -2.174  -3.659  0.00  0.00    -0.023 C 
ATOM      6  C   UNL     1       0.482  -3.012  -2.382  0.00  0.00    +0.086 C 
ATOM      7  C   UNL     1       0.121  -2.101  -1.247  0.00  0.00    +0.163 C 
ATOM      8  O   UNL     1      -0.506  -2.554  -0.310  0.00  0.00    -0.292 OA
ATOM      9  C   UNL     1      -0.732  -1.539  -4.006  0.00  0.00    +0.011 C 
ATOM     10  C   UNL     1       1.085  -3.061  -4.814  0.00  0.00    +0.011 C 
ATOM     11  N   UNL     1       1.559   1.099  -2.341  0.00  0.00    -0.316 N 
ATOM     12  C   UNL     1       2.145   1.837  -1.319  0.00  0.00    +0.053 A 
ATOM     13  C   UNL     1       3.424   2.355  -1.417  0.00  0.00    +0.025 A 
ATOM     14  C   UNL     1       3.923   3.131  -0.385  0.00  0.00    +0.002 A 
ATOM     15  C   UNL     1       3.147   3.387   0.731  0.00  0.00    +0.002 A 
ATOM     16  C   UNL     1       1.876   2.850   0.840  0.00  0.00    +0.025 A 
ATOM     17  C   UNL     1       1.382   2.052  -0.181  0.00  0.00    +0.058 A 
ATOM     18  N   UNL     1       0.132   1.444  -0.084  0.00  0.00    -0.258 N 
ATOM     19  C   UNL     1      -0.978   2.208  -0.075  0.00  0.00    +0.220 C 
ATOM     20  O   UNL     1      -2.071   1.689   0.004  0.00  0.00    -0.275 OA
ATOM     21  H   UNL     1       1.405   1.546  -3.188  0.00  0.00    +0.152 HD
ENDROOT
BRANCH   1  27
ATOM     22  C   UNL     1       0.303  -0.320   2.471  0.00  0.00    +0.126 A 
ATOM     23  C   UNL     1       1.039  -0.767   3.560  0.00  0.00    +0.046 A 
ATOM     24  C   UNL     1       2.272  -1.357   3.363  0.00  0.00    +0.004 A 
ATOM     25  C   UNL     1       2.772  -1.507   2.082  0.00  0.00    +0.001 A 
ATOM     26  C   UNL     1       2.039  -1.066   0.996  0.00  0.00    +0.009 A 
ATOM     27  C   UNL     1       0.805  -0.475   1.187  0.00  0.00    +0.020 A 
BRANCH  22  28
ATOM     28  O   UNL     1      -0.908   0.266   2.663  0.00  0.00    -0.489 OA
BRANCH  28  29
ATOM     29  C   UNL     1      -1.312   0.494   4.014  0.00  0.00    +0.170 C 
ATOM     30  C   UNL     1      -1.970  -0.771   4.570  0.00  0.00    +0.052 C 
BRANCH  29  32
ATOM     31  C   UNL     1      -1.620   2.942   3.621  0.00  0.00    +0.007 C 
ATOM     32  C   UNL     1      -2.313   1.650   4.059  0.00  0.00    +0.041 C 
ENDBRANCH  29  32
ENDBRANCH  28  29
ENDBRANCH  22  28
ENDBRANCH   1  27
BRANCH  19  33
ATOM     33  C   UNL     1      -0.862   3.708  -0.165  0.00  0.00    +0.093 C 
ATOM     34  C   UNL     1      -2.259   4.331  -0.136  0.00  0.00    +0.013 C 
ENDBRANCH  19  33
TORSDOF 5
