REMARK  Name = ZINC28616786
REMARK  7 active torsions:
REMARK  status: ('A' for Active; 'I' for Inactive)
REMARK    1  A    between atoms: C_3  and  C_6
REMARK    2  A    between atoms: C_11  and  O_22
REMARK    3  A    between atoms: C_13  and  C_15
REMARK    4  A    between atoms: C_15  and  N_16
REMARK    5  A    between atoms: O_22  and  C_23
REMARK    6  A    between atoms: C_23  and  C_24
REMARK    7  A    between atoms: C_29  and  C_32
REMARK                            x       y       z     vdW  Elec       q    Type
REMARK                         _______ _______ _______ _____ _____    ______ ____
ROOT
ATOM      1  C   UNL     1       8.449   0.679   1.256  0.00  0.00    +0.010 A 
ATOM      2  C   UNL     1       9.074  -0.255   0.499  0.00  0.00    +0.057 A 
ATOM      3  S   UNL     1       7.796  -1.455   0.177  0.00  0.00    -0.076 S 
ATOM      4  C   UNL     1       6.461  -0.687   1.056  0.00  0.00    +0.116 A 
ATOM      5  C   UNL     1       7.039   0.488   1.583  0.00  0.00    +0.077 A 
ATOM      6  C   UNL     1       6.168   1.306   2.347  0.00  0.00    +0.227 A 
ATOM      7  N   UNL     1       4.912   0.931   2.515  0.00  0.00    -0.199 NA
ATOM      8  C   UNL     1       4.435  -0.185   1.993  0.00  0.00    +0.118 A 
ATOM      9  N   UNL     1       5.197  -0.989   1.277  0.00  0.00    -0.227 NA
ENDROOT
BRANCH   1  12
ATOM     10  C   UNL     1      10.875   3.173   2.751  0.00  0.00    +0.008 A 
ATOM     11  C   UNL     1      10.385   1.935   2.390  0.00  0.00    +0.016 A 
ATOM     12  C   UNL     1       9.180   1.868   1.742  0.00  0.00    +0.021 A 
ATOM     13  S   UNL     1       8.727   3.591   1.631  0.00  0.00    -0.097 S 
ATOM     14  C   UNL     1      10.152   4.282   2.455  0.00  0.00    +0.046 A 
ENDBRANCH   1  12
BRANCH   8  15
ATOM     15  C   UNL     1       2.991  -0.550   2.226  0.00  0.00    -0.001 C 
BRANCH  15  16
ATOM     16  N   UNL     1       2.163   0.021   1.155  0.00  0.00    +0.384 N 
ATOM     17  C   UNL     1       0.793  -0.505   1.212  0.00  0.00    -0.078 C 
ATOM     18  C   UNL     1       0.002  -0.004   0.002  0.00  0.00    -0.019 C 
ATOM     19  C   UNL     1      -0.019   1.527   0.010  0.00  0.00    -0.004 C 
ATOM     20  C   UNL     1       1.421   2.049  -0.001  0.00  0.00    -0.019 C 
ATOM     21  C   UNL     1       2.171   1.488   1.210  0.00  0.00    -0.078 C 
ATOM     22  H   UNL     1       2.598  -0.281   0.191  0.00  0.00    -0.081 HD
ENDBRANCH  15  16
ENDBRANCH   8  15
BRANCH   6  23
ATOM     23  O   UNL     1       6.619   2.458   2.898  0.00  0.00    -0.466 OA
BRANCH  23  24
ATOM     24  C   UNL     1       5.680   3.226   3.654  0.00  0.00    +0.326 C 
BRANCH  24  25
ATOM     25  C   UNL     1       6.357   4.463   4.186  0.00  0.00    +0.253 C 
ATOM     26  O   UNL     1       7.527   4.667   3.942  0.00  0.00    -0.272 OA
ATOM     27  N   UNL     1       5.661   5.343   4.933  0.00  0.00    -0.299 N 
ATOM     28  C   UNL     1       4.241   5.113   5.231  0.00  0.00    +0.108 C 
ATOM     29  C   UNL     1       3.439   6.347   4.819  0.00  0.00    +0.032 C 
ATOM     30  C   UNL     1       4.032   7.586   5.495  0.00  0.00    +0.078 C 
ATOM     31  C   UNL     1       5.480   7.774   5.039  0.00  0.00    +0.032 C 
ATOM     32  C   UNL     1       6.306   6.554   5.458  0.00  0.00    +0.108 C 
BRANCH  30  33
ATOM     33  C   UNL     1       3.224   8.800   5.115  0.00  0.00    +0.214 C 
ATOM     34  O   UNL     1       3.754   9.725   4.536  0.00  0.00    -0.276 OA
ATOM     35  N   UNL     1       1.912   8.858   5.418  0.00  0.00    -0.329 N 
ATOM     36  H   UNL     1       1.322   9.744   5.140  0.00  0.00    +0.145 HD
ATOM     37  H   UNL     1       1.431   8.020   5.942  0.00  0.00    +0.145 HD
ENDBRANCH  30  33
ENDBRANCH  24  25
ENDBRANCH  23  24
ENDBRANCH   6  23
TORSDOF 7
