REMARK  Name = ZINC39491735
REMARK  15 active torsions:
REMARK  status: ('A' for Active; 'I' for Inactive)
REMARK    1  A    between atoms: C_1  and  C_2
REMARK    2  A    between atoms: C_2  and  C_3
REMARK    3  A    between atoms: C_2  and  C_4
REMARK    4  A    between atoms: C_4  and  N_5
REMARK    5  A    between atoms: N_5  and  C_6
REMARK    6  A    between atoms: C_6  and  C_7
REMARK    7  A    between atoms: N_9  and  C_20
REMARK    8  A    between atoms: C_13  and  C_16
REMARK    9  A    between atoms: C_16  and  O_18
REMARK   10  A    between atoms: O_18  and  C_19
REMARK   11  A    between atoms: C_20  and  C_21
REMARK   12  A    between atoms: C_21  and  C_22
REMARK   13  A    between atoms: C_21  and  C_29
REMARK   14  A    between atoms: C_27  and  O_28
REMARK   15  A    between atoms: C_34  and  O_35
REMARK                            x       y       z     vdW  Elec       q    Type
REMARK                         _______ _______ _______ _____ _____    ______ ____
ROOT
ATOM      1  C   UNL     1      -3.459  -3.718  -0.311  0.00  0.00    -0.039 A 
ATOM      2  C   UNL     1      -3.449  -4.507  -1.397  0.00  0.00    +0.088 A 
ATOM      3  N   UNL     1      -3.224  -5.806  -1.028  0.00  0.00    -0.346 N 
ATOM      4  C   UNL     1      -3.080  -5.889   0.335  0.00  0.00    +0.049 A 
ATOM      5  C   UNL     1      -3.214  -4.582   0.847  0.00  0.00    +0.002 A 
ATOM      6  C   UNL     1      -3.107  -4.356   2.216  0.00  0.00    +0.025 A 
ATOM      7  C   UNL     1      -2.864  -5.430   3.069  0.00  0.00    +0.060 A 
ATOM      8  C   UNL     1      -2.729  -6.724   2.547  0.00  0.00    +0.017 A 
ATOM      9  C   UNL     1      -2.841  -6.949   1.207  0.00  0.00    +0.027 A 
ENDROOT
BRANCH   7  10
ATOM     10  C   UNL     1      -2.748  -5.205   4.522  0.00  0.00    +0.339 C 
ATOM     11  O   UNL     1      -2.865  -4.084   4.975  0.00  0.00    -0.245 OA
BRANCH  10  12
ATOM     12  O   UNL     1      -2.513  -6.244   5.348  0.00  0.00    -0.464 OA
ATOM     13  C   UNL     1      -2.412  -5.953   6.744  0.00  0.00    +0.280 C 
ENDBRANCH  10  12
ENDBRANCH   7  10
BRANCH   1  14
ATOM     14  C   UNL     1      -3.674  -2.227  -0.288  0.00  0.00    -0.045 C 
BRANCH  14  15
ATOM     15  N   UNL     1      -2.377  -1.546  -0.179  0.00  0.00    +0.382 N 
ATOM     16  H   UNL     1      -1.801  -1.791  -0.970  0.00  0.00    -0.085 HD
ATOM     17  H   UNL     1      -1.917  -1.833   0.673  0.00  0.00    -0.085 HD
BRANCH  15  18
ATOM     18  C   UNL     1      -2.586  -0.092  -0.156  0.00  0.00    -0.079 C 
BRANCH  18  20
ATOM     19  C   UNL     1      -1.442   2.129  -0.144  0.00  0.00    +0.005 C 
ATOM     20  C   UNL     1      -1.235   0.616  -0.042  0.00  0.00    -0.034 C 
ATOM     21  C   UNL     1      -0.594   0.279   1.306  0.00  0.00    +0.005 C 
ENDBRANCH  18  20
ENDBRANCH  15  18
ENDBRANCH  14  15
ENDBRANCH   1  14
BRANCH   3  22
ATOM     22  C   UNL     1      -3.148  -6.940  -1.952  0.00  0.00    +0.135 C 
BRANCH  22  23
ATOM     23  C   UNL     1      -4.517  -7.618  -2.040  0.00  0.00    +0.076 C 
BRANCH  23  24
ATOM     24  C   UNL     1      -4.473  -8.707  -3.080  0.00  0.00    +0.003 A 
ATOM     25  C   UNL     1      -3.478  -9.665  -3.037  0.00  0.00    +0.008 A 
ATOM     26  C   UNL     1      -3.436 -10.664  -3.991  0.00  0.00    +0.001 A 
ATOM     27  C   UNL     1      -4.390 -10.708  -4.992  0.00  0.00    +0.004 A 
ATOM     28  C   UNL     1      -5.387  -9.753  -5.040  0.00  0.00    +0.046 A 
ATOM     29  C   UNL     1      -5.434  -8.752  -4.080  0.00  0.00    +0.121 A 
BRANCH  29  30
ATOM     30  O   UNL     1      -6.417  -7.815  -4.121  0.00  0.00    -0.506 OA
ATOM     31  H   UNL     1      -6.193  -7.033  -4.645  0.00  0.00    +0.292 HD
ENDBRANCH  29  30
ENDBRANCH  23  24
BRANCH  23  32
ATOM     32  C   UNL     1      -4.868  -8.216  -0.702  0.00  0.00    +0.003 A 
ATOM     33  C   UNL     1      -4.122  -9.264  -0.195  0.00  0.00    +0.008 A 
ATOM     34  C   UNL     1      -4.444  -9.813   1.032  0.00  0.00    +0.001 A 
ATOM     35  C   UNL     1      -5.512  -9.316   1.756  0.00  0.00    +0.004 A 
ATOM     36  C   UNL     1      -6.260  -8.269   1.255  0.00  0.00    +0.046 A 
ATOM     37  C   UNL     1      -5.936  -7.712   0.025  0.00  0.00    +0.121 A 
BRANCH  37  38
ATOM     38  O   UNL     1      -6.668  -6.678  -0.468  0.00  0.00    -0.506 OA
ATOM     39  H   UNL     1      -7.421  -6.952  -1.009  0.00  0.00    +0.292 HD
ENDBRANCH  37  38
ENDBRANCH  23  32
ENDBRANCH  22  23
ENDBRANCH   3  22
TORSDOF 12
