REMARK  Name = ZINC31045150
REMARK  10 active torsions:
REMARK  status: ('A' for Active; 'I' for Inactive)
REMARK    1  A    between atoms: C_1  and  C_2
REMARK    2  A    between atoms: C_7  and  C_8
REMARK    3  A    between atoms: C_8  and  S_9
REMARK    4  A    between atoms: S_9  and  C_10
REMARK    5  A    between atoms: C_10  and  C_11
REMARK    6  A    between atoms: C_11  and  N_12
REMARK    7  A    between atoms: C_13  and  C_15
REMARK    8  A    between atoms: N_20  and  C_22
REMARK    9  A    between atoms: C_22  and  C_23
REMARK   10  A    between atoms: C_25  and  C_28
REMARK                            x       y       z     vdW  Elec       q    Type
REMARK                         _______ _______ _______ _____ _____    ______ ____
ROOT
ATOM      1  C   UNL     1       9.709  -1.280   2.789  0.00  0.00    +0.058 C 
ATOM      2  C   UNL     1       9.286  -0.028   3.562  0.00  0.00    +0.009 C 
ATOM      3  C   UNL     1       7.766   0.129   3.472  0.00  0.00    -0.018 C 
ATOM      4  C   UNL     1       7.351   0.207   2.001  0.00  0.00    -0.078 C 
ATOM      5  N   UNL     1       7.777  -1.014   1.306  0.00  0.00    +0.386 N 
ATOM      6  C   UNL     1       9.238  -1.161   1.337  0.00  0.00    -0.065 C 
ATOM      7  H   UNL     1       7.343  -1.873   1.839  0.00  0.00    -0.081 HD
ENDROOT
BRANCH   1   9
ATOM      8  N   UNL     1      11.851  -1.527   4.002  0.00  0.00    -0.314 N 
ATOM      9  C   UNL     1      11.210  -1.409   2.822  0.00  0.00    +0.214 C 
ATOM     10  O   UNL     1      11.842  -1.406   1.786  0.00  0.00    -0.276 OA
ATOM     11  H   UNL     1      11.277  -1.530   4.941  0.00  0.00    +0.149 HD
BRANCH   8  12
ATOM     12  C   UNL     1      13.310  -1.652   4.034  0.00  0.00    +0.115 C 
BRANCH  12  13
ATOM     13  C   UNL     1      13.780  -1.771   5.485  0.00  0.00    +0.088 C 
BRANCH  13  14
ATOM     14  S   UNL     1      15.586  -1.926   5.525  0.00  0.00    -0.155 S 
BRANCH  14  15
ATOM     15  C   UNL     1      15.977  -2.056   7.292  0.00  0.00    +0.104 C 
BRANCH  15  22
ATOM     16  C   UNL     1      17.194  -4.676   7.337  0.00  0.00    +0.044 C 
ATOM     17  C   UNL     1      18.050  -3.445   7.489  0.00  0.00    -0.046 A 
ATOM     18  C   UNL     1      19.418  -3.569   7.646  0.00  0.00    +0.003 A 
ATOM     19  C   UNL     1      20.202  -2.440   7.792  0.00  0.00    +0.000 A 
ATOM     20  C   UNL     1      19.619  -1.187   7.776  0.00  0.00    +0.000 A 
ATOM     21  C   UNL     1      18.252  -1.062   7.614  0.00  0.00    +0.005 A 
ATOM     22  C   UNL     1      17.468  -2.191   7.468  0.00  0.00    -0.035 A 
ENDBRANCH  15  22
ENDBRANCH  14  15
ENDBRANCH  13  14
ENDBRANCH  12  13
ENDBRANCH   8  12
ENDBRANCH   1   9
BRANCH   5  23
ATOM     23  C   UNL     1       7.276  -1.036  -0.075  0.00  0.00    +0.022 C 
BRANCH  23  24
ATOM     24  C   UNL     1       5.772  -1.131  -0.062  0.00  0.00    +0.211 A 
ATOM     25  N   UNL     1       4.929  -0.129  -0.053  0.00  0.00    -0.193 NA
ATOM     26  C   UNL     1       3.699  -0.689  -0.038  0.00  0.00    +0.202 A 
ATOM     27  N   UNL     1       3.865  -1.986  -0.049  0.00  0.00    -0.056 NA
ATOM     28  O   UNL     1       5.047  -2.255  -0.062  0.00  0.00    -0.340 OA
BRANCH  26  29
ATOM     29  C   UNL     1       2.402   0.033  -0.021  0.00  0.00    +0.023 A 
ATOM     30  C   UNL     1       1.205  -0.680  -0.014  0.00  0.00    +0.013 A 
ATOM     31  C   UNL     1       0.002  -0.004   0.002  0.00  0.00    +0.021 A 
ATOM     32  C   UNL     1      -0.017   1.380   0.010  0.00  0.00    +0.041 A 
ATOM     33  C   UNL     1       1.170   2.093   0.002  0.00  0.00    +0.021 A 
ATOM     34  C   UNL     1       2.378   1.426  -0.013  0.00  0.00    +0.013 A 
ATOM     35 CL   UNL     1      -1.533   2.225   0.021  0.00  0.00    -0.084 Cl
ENDBRANCH  26  29
ENDBRANCH  23  24
ENDBRANCH   5  23
TORSDOF 9
