REMARK  Name = ZINC09425077
REMARK  16 active torsions:
REMARK  status: ('A' for Active; 'I' for Inactive)
REMARK    1  A    between atoms: C_1  and  C_2
REMARK    2  A    between atoms: C_2  and  N_74
REMARK    3  A    between atoms: C_3  and  C_4
REMARK    4  A    between atoms: C_3  and  N_74
REMARK    5  A    between atoms: C_5  and  C_6
REMARK    6  A    between atoms: C_5  and  N_74
REMARK    7  A    between atoms: C_6  and  C_7
REMARK    8  A    between atoms: C_7  and  N_8
REMARK    9  A    between atoms: C_9  and  C_29
REMARK   10  A    between atoms: C_11  and  C_16
REMARK   11  A    between atoms: C_12  and  O_15
REMARK   12  A    between atoms: C_16  and  C_18
REMARK   13  A    between atoms: C_25  and  C_28
REMARK   14  A    between atoms: C_32  and  C_35
REMARK   15  A    between atoms: C_35  and  C_36
REMARK   16  A    between atoms: C_35  and  C_37
REMARK                            x       y       z     vdW  Elec       q    Type
REMARK                         _______ _______ _______ _____ _____    ______ ____
ROOT
ATOM      1  N   UNL     1      -0.901  -2.372   0.011  0.00  0.00    -0.284 N 
ATOM      2  C   UNL     1      -1.317  -0.966   0.066  0.00  0.00    +0.144 C 
ATOM      3  C   UNL     1      -0.049  -0.148  -0.011  0.00  0.00    +0.071 C 
ATOM      4  C   UNL     1       0.978  -1.026  -0.091  0.00  0.00    +0.188 C 
ATOM      5  C   UNL     1       0.441  -2.403  -0.076  0.00  0.00    +0.282 C 
ATOM      6  O   UNL     1       1.113  -3.414  -0.136  0.00  0.00    -0.267 OA
ENDROOT
BRANCH   2   7
ATOM      7  C   UNL     1      -2.037  -0.685   1.360  0.00  0.00    -0.022 A 
ATOM      8  C   UNL     1      -1.514  -1.143   2.555  0.00  0.00    +0.006 A 
ATOM      9  C   UNL     1      -2.172  -0.882   3.743  0.00  0.00    +0.004 A 
ATOM     10  C   UNL     1      -3.357  -0.170   3.734  0.00  0.00    -0.045 A 
ATOM     11  C   UNL     1      -3.883   0.283   2.538  0.00  0.00    +0.004 A 
ATOM     12  C   UNL     1      -3.223   0.025   1.351  0.00  0.00    +0.006 A 
BRANCH  10  13
ATOM     13  C   UNL     1      -4.077   0.111   5.028  0.00  0.00    +0.013 C 
ATOM     14  C   UNL     1      -4.444  -1.211   5.705  0.00  0.00    +0.012 C 
ATOM     15  C   UNL     1      -3.167   0.922   5.952  0.00  0.00    +0.012 C 
ENDBRANCH  10  13
ENDBRANCH   2   7
BRANCH   4  16
ATOM     16  O   UNL     1       2.288  -0.696  -0.171  0.00  0.00    -0.502 OA
ATOM     17  H   UNL     1       2.839  -1.529  -0.219  0.00  0.00    +0.292 HD
ENDBRANCH   4  16
BRANCH   3  18
ATOM     18  C   UNL     1       0.051   1.315   0.005  0.00  0.00    +0.195 C 
ATOM     19  O   UNL     1       0.574   1.879   0.948  0.00  0.00    -0.287 OA
BRANCH  18  20
ATOM     20  C   UNL     1      -0.477   2.103  -1.126  0.00  0.00    +0.023 A 
ATOM     21  C   UNL     1      -1.151   1.468  -2.174  0.00  0.00    +0.015 A 
ATOM     22  C   UNL     1      -1.645   2.203  -3.224  0.00  0.00    +0.046 A 
ATOM     23  C   UNL     1      -1.478   3.589  -3.258  0.00  0.00    +0.124 A 
ATOM     24  C   UNL     1      -0.801   4.215  -2.215  0.00  0.00    -0.002 A 
ATOM     25  C   UNL     1      -0.312   3.492  -1.155  0.00  0.00    +0.019 A 
ATOM     26  C   UNL     1      -0.768   5.698  -2.535  0.00  0.00    +0.083 C 
ATOM     27  C   UNL     1      -1.141   5.708  -4.036  0.00  0.00    +0.175 C 
ATOM     28  O   UNL     1      -1.892   4.492  -4.186  0.00  0.00    -0.488 OA
ATOM     29  C   UNL     1       0.116   5.679  -4.907  0.00  0.00    +0.052 C 
ENDBRANCH  18  20
ENDBRANCH   3  18
BRANCH   1  30
ATOM     30  C   UNL     1      -1.790  -3.536   0.052  0.00  0.00    +0.107 C 
BRANCH  30  31
ATOM     31  C   UNL     1      -2.005  -3.963   1.505  0.00  0.00    +0.000 C 
BRANCH  31  32
ATOM     32  C   UNL     1      -2.933  -5.179   1.547  0.00  0.00    -0.077 C 
BRANCH  32  33
ATOM     33  N   UNL     1      -3.114  -5.592   2.954  0.00  0.00    +0.379 N 
ATOM     34  H   UNL     1      -2.191  -5.700   3.392  0.00  0.00    -0.082 HD
BRANCH  33  36
ATOM     35  C   UNL     1      -5.285  -4.420   3.109  0.00  0.00    -0.017 C 
ATOM     36  C   UNL     1      -3.876  -4.561   3.690  0.00  0.00    -0.082 C 
ENDBRANCH  33  36
BRANCH  33  37
ATOM     37  C   UNL     1      -3.827  -6.886   3.014  0.00  0.00    -0.082 C 
ATOM     38  C   UNL     1      -3.694  -7.456   4.427  0.00  0.00    -0.017 C 
ENDBRANCH  33  37
ENDBRANCH  32  33
ENDBRANCH  31  32
ENDBRANCH  30  31
ENDBRANCH   1  30
TORSDOF 11
