REMARK  Name = ZINC35414273
REMARK  10 active torsions:
REMARK  status: ('A' for Active; 'I' for Inactive)
REMARK    1  A    between atoms: C_1  and  C_2
REMARK    2  A    between atoms: C_2  and  C_4
REMARK    3  A    between atoms: C_2  and  N_10
REMARK    4  A    between atoms: C_11  and  C_13
REMARK    5  A    between atoms: C_18  and  N_19
REMARK    6  A    between atoms: C_20  and  C_22
REMARK    7  A    between atoms: C_22  and  N_23
REMARK    8  A    between atoms: N_23  and  C_24
REMARK    9  A    between atoms: N_23  and  C_25
REMARK   10  A    between atoms: C_25  and  C_26
REMARK                            x       y       z     vdW  Elec       q    Type
REMARK                         _______ _______ _______ _____ _____    ______ ____
ROOT
ATOM      1  N   UNL     1       4.774  -1.004   1.112  0.00  0.00    -0.284 N 
ATOM      2  C   UNL     1       6.087  -1.284   0.994  0.00  0.00    +0.231 C 
ATOM      3  O   UNL     1       6.668  -1.857   1.891  0.00  0.00    -0.274 OA
ATOM      4  H   UNL     1       4.296  -0.600   0.371  0.00  0.00    +0.155 HD
ENDROOT
BRANCH   1  10
ATOM      5  C   UNL     1       3.197  -0.371   2.839  0.00  0.00    +0.058 A 
ATOM      6  C   UNL     1       2.527  -0.676   4.027  0.00  0.00    +0.015 A 
ATOM      7  C   UNL     1       2.766  -1.876   4.662  0.00  0.00    +0.001 A 
ATOM      8  C   UNL     1       3.668  -2.783   4.128  0.00  0.00    +0.002 A 
ATOM      9  C   UNL     1       4.337  -2.495   2.955  0.00  0.00    +0.024 A 
ATOM     10  C   UNL     1       4.105  -1.294   2.299  0.00  0.00    +0.046 A 
BRANCH   5  12
ATOM     11  N   UNL     1       1.987   1.742   2.609  0.00  0.00    -0.305 N 
ATOM     12  C   UNL     1       2.945   0.911   2.154  0.00  0.00    +0.246 C 
ATOM     13  O   UNL     1       3.603   1.218   1.178  0.00  0.00    -0.270 OA
ATOM     14  H   UNL     1       1.462   1.497   3.388  0.00  0.00    +0.150 HD
BRANCH  11  16
ATOM     15  C   UNL     1       2.704   4.075   2.461  0.00  0.00    +0.033 C 
ATOM     16  C   UNL     1       1.737   3.015   1.929  0.00  0.00    +0.100 C 
BRANCH  16  17
ATOM     17  C   UNL     1       0.319   3.453   2.188  0.00  0.00    -0.027 A 
ATOM     18  C   UNL     1      -0.237   3.289   3.443  0.00  0.00    +0.005 A 
ATOM     19  C   UNL     1      -1.538   3.691   3.680  0.00  0.00    +0.000 A 
ATOM     20  C   UNL     1      -2.283   4.258   2.663  0.00  0.00    +0.000 A 
ATOM     21  C   UNL     1      -1.727   4.423   1.408  0.00  0.00    +0.000 A 
ATOM     22  C   UNL     1      -0.424   4.025   1.172  0.00  0.00    +0.005 A 
ENDBRANCH  16  17
ENDBRANCH  11  16
ENDBRANCH   5  12
ENDBRANCH   1  10
BRANCH   2  23
ATOM     23  C   UNL     1       6.833  -0.886  -0.254  0.00  0.00    +0.181 C 
BRANCH  23  24
ATOM     24  N   UNL     1       8.238  -1.301  -0.138  0.00  0.00    -0.290 NA
ATOM     25  C   UNL     1       8.920  -0.557   0.930  0.00  0.00    +0.105 C 
BRANCH  24  26
ATOM     26  C   UNL     1       8.940  -1.146  -1.419  0.00  0.00    +0.158 C 
BRANCH  26  27
ATOM     27  C   UNL     1      10.293  -1.803  -1.332  0.00  0.00    +0.124 A 
ATOM     28  N   UNL     1      11.101  -1.761  -2.424  0.00  0.00    -0.309 N 
ATOM     29  H   UNL     1      10.797  -1.315  -3.230  0.00  0.00    +0.170 HD
ATOM     30  C   UNL     1      12.326  -2.335  -2.397  0.00  0.00    +0.259 A 
ATOM     31  O   UNL     1      13.060  -2.305  -3.368  0.00  0.00    -0.267 OA
ATOM     32  C   UNL     1      12.736  -2.997  -1.150  0.00  0.00    +0.065 A 
ATOM     33  C   UNL     1      13.976  -3.619  -1.018  0.00  0.00    +0.015 A 
ATOM     34  C   UNL     1      14.309  -4.224   0.174  0.00  0.00    +0.001 A 
ATOM     35  C   UNL     1      13.421  -4.220   1.240  0.00  0.00    +0.002 A 
ATOM     36  C   UNL     1      12.190  -3.611   1.131  0.00  0.00    +0.028 A 
ATOM     37  C   UNL     1      11.830  -2.990  -0.066  0.00  0.00    +0.078 A 
ATOM     38  N   UNL     1      10.630  -2.375  -0.216  0.00  0.00    -0.232 NA
ENDBRANCH  26  27
ENDBRANCH  24  26
ENDBRANCH  23  24
ENDBRANCH   2  23
TORSDOF 8
