REMARK  Name = ZINC38901785
REMARK  8 active torsions:
REMARK  status: ('A' for Active; 'I' for Inactive)
REMARK    1  A    between atoms: C_1  and  C_2
REMARK    2  A    between atoms: N_7  and  C_9
REMARK    3  A    between atoms: C_12  and  C_15
REMARK    4  A    between atoms: C_15  and  N_16
REMARK    5  A    between atoms: C_17  and  C_19
REMARK    6  A    between atoms: N_24  and  C_26
REMARK    7  A    between atoms: C_26  and  C_27
REMARK    8  A    between atoms: C_29  and  C_32
REMARK                            x       y       z     vdW  Elec       q    Type
REMARK                         _______ _______ _______ _____ _____    ______ ____
ROOT
ATOM      1  C   UNL     1      -4.459  -6.596   5.983  0.00  0.00    +0.058 C 
ATOM      2  C   UNL     1      -5.229  -5.272   6.015  0.00  0.00    +0.009 C 
ATOM      3  C   UNL     1      -6.730  -5.565   5.933  0.00  0.00    -0.018 C 
ATOM      4  C   UNL     1      -7.127  -6.495   7.081  0.00  0.00    -0.078 C 
ATOM      5  N   UNL     1      -6.376  -7.752   6.979  0.00  0.00    +0.386 N 
ATOM      6  C   UNL     1      -4.940  -7.488   7.129  0.00  0.00    -0.065 C 
ATOM      7  H   UNL     1      -6.547  -8.173   6.079  0.00  0.00    -0.081 HD
ENDROOT
BRANCH   1   9
ATOM      8  N   UNL     1      -2.342  -5.553   5.242  0.00  0.00    -0.311 N 
ATOM      9  C   UNL     1      -2.985  -6.324   6.141  0.00  0.00    +0.215 C 
ATOM     10  O   UNL     1      -2.378  -6.798   7.078  0.00  0.00    -0.276 OA
ATOM     11  H   UNL     1      -2.827  -5.173   4.493  0.00  0.00    +0.149 HD
BRANCH   8  12
ATOM     12  C   UNL     1      -0.909  -5.288   5.396  0.00  0.00    +0.139 C 
BRANCH  12  16
ATOM     13  C   UNL     1       0.431  -2.790   2.198  0.00  0.00    +0.030 A 
ATOM     14  C   UNL     1      -0.037  -2.222   3.375  0.00  0.00    +0.023 A 
ATOM     15  C   UNL     1      -0.470  -3.032   4.407  0.00  0.00    +0.007 A 
ATOM     16  C   UNL     1      -0.437  -4.407   4.268  0.00  0.00    -0.030 A 
ATOM     17  C   UNL     1       0.029  -4.976   3.097  0.00  0.00    +0.007 A 
ATOM     18  C   UNL     1       0.458  -4.172   2.060  0.00  0.00    +0.023 A 
BRANCH  13  24
ATOM     19  C   UNL     1       3.428  -2.393  -1.607  0.00  0.00    +0.009 C 
ATOM     20  C   UNL     1       2.839  -1.894  -0.286  0.00  0.00    +0.003 C 
ATOM     21  C   UNL     1       2.657  -0.376  -0.349  0.00  0.00    +0.006 C 
ATOM     22  C   UNL     1       2.098   0.128   0.984  0.00  0.00    +0.019 C 
ATOM     23  C   UNL     1       0.729  -0.513   1.234  0.00  0.00    +0.105 C 
ATOM     24  N   UNL     1       0.869  -1.973   1.153  0.00  0.00    -0.330 N 
ATOM     25  C   UNL     1       1.479  -2.559  -0.049  0.00  0.00    +0.108 C 
ENDBRANCH  13  24
ENDBRANCH  12  16
ENDBRANCH   8  12
ENDBRANCH   1   9
BRANCH   5  26
ATOM     26  C   UNL     1      -6.816  -8.671   8.038  0.00  0.00    +0.022 C 
BRANCH  26  27
ATOM     27  C   UNL     1      -8.257  -9.047   7.808  0.00  0.00    +0.211 A 
ATOM     28  N   UNL     1      -8.677 -10.063   7.110  0.00  0.00    -0.193 NA
ATOM     29  C   UNL     1     -10.021 -10.102   7.114  0.00  0.00    +0.202 A 
ATOM     30  N   UNL     1     -10.467  -9.095   7.825  0.00  0.00    -0.056 NA
ATOM     31  O   UNL     1      -9.323  -8.396   8.293  0.00  0.00    -0.340 OA
BRANCH  29  32
ATOM     32  C   UNL     1     -10.860 -11.115   6.427  0.00  0.00    +0.023 A 
ATOM     33  C   UNL     1     -10.261 -12.144   5.704  0.00  0.00    +0.014 A 
ATOM     34  C   UNL     1     -11.045 -13.085   5.068  0.00  0.00    +0.039 A 
ATOM     35  C   UNL     1     -12.426 -13.006   5.147  0.00  0.00    +0.123 A 
ATOM     36  C   UNL     1     -13.026 -11.984   5.865  0.00  0.00    +0.039 A 
ATOM     37  C   UNL     1     -12.250 -11.043   6.509  0.00  0.00    +0.014 A 
ATOM     38  F   UNL     1     -13.190 -13.929   4.522  0.00  0.00    -0.205 F 
ENDBRANCH  29  32
ENDBRANCH  26  27
ENDBRANCH   5  26
TORSDOF 7
