REMARK  Name = ZINC00335336
REMARK  4 active torsions:
REMARK  status: ('A' for Active; 'I' for Inactive)
REMARK    1  A    between atoms: C_8  and  C_10
REMARK    2  A    between atoms: C_10  and  C_25
REMARK    3  A    between atoms: C_11  and  N_12
REMARK    4  A    between atoms: N_12  and  C_13
REMARK                            x       y       z     vdW  Elec       q    Type
REMARK                         _______ _______ _______ _____ _____    ______ ____
ROOT
ATOM      1  N   UNL     1       5.712  -4.486  -0.078  0.00  0.00    -0.320 N 
ATOM      2  H   UNL     1       5.241  -5.334  -0.078  0.00  0.00    +0.152 HD
ENDROOT
BRANCH   1   3
ATOM      3  C   UNL     1       7.110  -4.462  -0.091  0.00  0.00    +0.033 A 
ATOM      4  C   UNL     1       7.784  -3.245  -0.086  0.00  0.00    +0.025 A 
ATOM      5  C   UNL     1       9.164  -3.216  -0.098  0.00  0.00    +0.029 A 
ATOM      6  C   UNL     1       9.882  -4.402  -0.117  0.00  0.00    +0.067 A 
ATOM      7  C   UNL     1       9.208  -5.626  -0.123  0.00  0.00    +0.069 A 
ATOM      8  C   UNL     1       7.823  -5.653  -0.104  0.00  0.00    +0.051 A 
ATOM      9  N   UNL     1      10.182  -6.621  -0.142  0.00  0.00    -0.306 N 
ATOM     10  H   UNL     1      10.017  -7.577  -0.150  0.00  0.00    +0.170 HD
ATOM     11  C   UNL     1      11.393  -6.032  -0.148  0.00  0.00    +0.325 A 
ATOM     12  O   UNL     1      12.458  -6.619  -0.164  0.00  0.00    -0.247 OA
ATOM     13  N   UNL     1      11.245  -4.693  -0.133  0.00  0.00    -0.306 N 
ATOM     14  H   UNL     1      11.965  -4.043  -0.134  0.00  0.00    +0.170 HD
ENDBRANCH   1   3
BRANCH   1  16
ATOM     15  C   UNL     1       3.635  -3.350  -0.051  0.00  0.00    +0.090 C 
ATOM     16  C   UNL     1       5.016  -3.327  -0.065  0.00  0.00    +0.088 C 
BRANCH  15  24
ATOM     17  C   UNL     1      -0.017   1.373   0.010  0.00  0.00    +0.002 A 
ATOM     18  C   UNL     1       1.170   2.091   0.002  0.00  0.00    +0.004 A 
ATOM     19  C   UNL     1       2.384   1.436  -0.013  0.00  0.00    +0.048 A 
ATOM     20  C   UNL     1       2.422   0.051  -0.021  0.00  0.00    +0.156 A 
ATOM     21  C   UNL     1       1.224  -0.680  -0.013  0.00  0.00    +0.110 A 
ATOM     22  C   UNL     1       0.002  -0.004   0.002  0.00  0.00    +0.031 A 
ATOM     23  N   UNL     1       1.569  -1.994  -0.024  0.00  0.00    -0.209 NA
ATOM     24  C   UNL     1       2.876  -2.087  -0.037  0.00  0.00    +0.233 A 
ATOM     25  O   UNL     1       3.425  -0.857  -0.036  0.00  0.00    -0.435 OA
ENDBRANCH  15  24
BRANCH  15  26
ATOM     26  C   UNL     1       2.948  -4.587  -0.051  0.00  0.00    +0.265 C 
ATOM     27  O   UNL     1       1.734  -4.608  -0.040  0.00  0.00    -0.295 OA
ENDBRANCH  15  26
ENDBRANCH   1  16
TORSDOF 4
