REMARK  Name = ZINC08438583
REMARK  14 active torsions:
REMARK  status: ('A' for Active; 'I' for Inactive)
REMARK    1  A    between atoms: C_1  and  C_2
REMARK    2  A    between atoms: C_2  and  O_3
REMARK    3  A    between atoms: O_3  and  C_4
REMARK    4  A    between atoms: C_4  and  C_6
REMARK    5  A    between atoms: C_7  and  C_38
REMARK    6  A    between atoms: C_14  and  C_15
REMARK    7  A    between atoms: C_17  and  C_24
REMARK    8  A    between atoms: C_18  and  O_23
REMARK    9  A    between atoms: C_19  and  O_21
REMARK   10  A    between atoms: O_21  and  C_22
REMARK   11  A    between atoms: C_24  and  C_25
REMARK   12  A    between atoms: C_28  and  C_30
REMARK   13  A    between atoms: C_35  and  O_36
REMARK   14  A    between atoms: O_36  and  C_37
REMARK                            x       y       z     vdW  Elec       q    Type
REMARK                         _______ _______ _______ _____ _____    ______ ____
ROOT
ATOM      1  C   UNL     1      -4.048  -0.868   3.416  0.00  0.00    +0.085 C 
ATOM      2  C   UNL     1      -5.032  -0.218   4.108  0.00  0.00    +0.053 C 
ATOM      3  N   UNL     1      -6.280  -0.208   3.658  0.00  0.00    -0.228 NA
ATOM      4  C   UNL     1      -6.684  -0.800   2.561  0.00  0.00    +0.178 A 
ATOM      5  N   UNL     1      -5.858  -1.511   1.722  0.00  0.00    -0.275 N 
ATOM      6  C   UNL     1      -6.386  -2.074   0.627  0.00  0.00    +0.268 A 
ATOM      7  O   UNL     1      -5.695  -2.712  -0.145  0.00  0.00    -0.266 OA
ATOM      8  C   UNL     1      -7.825  -1.896   0.385  0.00  0.00    +0.081 A 
ATOM      9  C   UNL     1      -8.592  -2.357  -0.636  0.00  0.00    +0.028 C 
ATOM     10  S   UNL     1      -8.290  -0.909   1.799  0.00  0.00    -0.046 S 
ATOM     11  C   UNL     1      -4.429  -1.578   2.137  0.00  0.00    +0.165 C 
ATOM     12  C   UNL     1      -4.695   0.497   5.391  0.00  0.00    +0.066 C 
ENDROOT
BRANCH   9  13
ATOM     13  C   UNL     1      -7.962  -3.007  -1.792  0.00  0.00    -0.020 A 
ATOM     14  C   UNL     1      -6.777  -2.488  -2.330  0.00  0.00    +0.015 A 
ATOM     15  C   UNL     1      -6.189  -3.100  -3.415  0.00  0.00    +0.002 A 
ATOM     16  C   UNL     1      -6.766  -4.230  -3.977  0.00  0.00    +0.162 A 
ATOM     17  C   UNL     1      -7.946  -4.753  -3.448  0.00  0.00    +0.162 A 
ATOM     18  C   UNL     1      -8.541  -4.150  -2.357  0.00  0.00    +0.057 A 
BRANCH  17  19
ATOM     19  O   UNL     1      -8.508  -5.860  -4.003  0.00  0.00    -0.491 OA
ATOM     20  C   UNL     1      -9.716  -6.341  -3.410  0.00  0.00    +0.277 C 
ENDBRANCH  17  19
BRANCH  16  21
ATOM     21  O   UNL     1      -6.181  -4.829  -5.047  0.00  0.00    -0.503 OA
ATOM     22  H   UNL     1      -5.540  -5.514  -4.813  0.00  0.00    +0.292 HD
ENDBRANCH  16  21
BRANCH  15  23
ATOM     23  C   UNL     1      -4.914  -2.541  -3.992  0.00  0.00    +0.065 C 
BRANCH  23  24
ATOM     24  C   UNL     1      -5.243  -1.624  -5.142  0.00  0.00    -0.030 C 
ATOM     25  C   UNL     1      -4.801  -0.391  -5.144  0.00  0.00    +0.004 C 
ENDBRANCH  23  24
ENDBRANCH  15  23
ENDBRANCH   9  13
BRANCH  11  26
ATOM     26  C   UNL     1      -4.058  -3.031   2.286  0.00  0.00    +0.022 A 
ATOM     27  C   UNL     1      -4.989  -3.938   2.755  0.00  0.00    +0.009 A 
ATOM     28  C   UNL     1      -4.649  -5.271   2.892  0.00  0.00    +0.001 A 
ATOM     29  C   UNL     1      -3.377  -5.700   2.559  0.00  0.00    +0.004 A 
ATOM     30  C   UNL     1      -2.443  -4.798   2.089  0.00  0.00    +0.046 A 
ATOM     31  C   UNL     1      -2.783  -3.460   1.946  0.00  0.00    +0.126 A 
BRANCH  31  32
ATOM     32  O   UNL     1      -1.867  -2.571   1.479  0.00  0.00    -0.495 OA
ATOM     33  C   UNL     1      -0.612  -3.099   1.047  0.00  0.00    +0.277 C 
ENDBRANCH  31  32
ENDBRANCH  11  26
BRANCH   1  34
ATOM     34  C   UNL     1      -2.724  -0.879   3.882  0.00  0.00    +0.339 C 
ATOM     35  O   UNL     1      -1.886  -0.171   3.353  0.00  0.00    -0.245 OA
BRANCH  34  36
ATOM     36  O   UNL     1      -2.379  -1.677   4.916  0.00  0.00    -0.462 OA
BRANCH  36  38
ATOM     37  C   UNL     1      -0.802  -2.614   6.490  0.00  0.00    +0.048 C 
ATOM     38  C   UNL     1      -1.044  -1.557   5.411  0.00  0.00    +0.229 C 
ENDBRANCH  36  38
ENDBRANCH  34  36
ENDBRANCH   1  34
TORSDOF 10
