REMARK  Name = ZINC63655443
REMARK  6 active torsions:
REMARK  status: ('A' for Active; 'I' for Inactive)
REMARK    1  A    between atoms: C_7  and  C_10
REMARK    2  A    between atoms: C_10  and  C_11
REMARK    3  A    between atoms: C_11  and  N_12
REMARK    4  A    between atoms: C_13  and  C_15
REMARK    5  A    between atoms: C_15  and  C_16
REMARK    6  A    between atoms: C_16  and  N_17
REMARK                            x       y       z     vdW  Elec       q    Type
REMARK                         _______ _______ _______ _____ _____    ______ ____
ROOT
ATOM      1  C   UNL     1      -1.752  -6.557  -2.622  0.00  0.00    +0.115 C 
ENDROOT
BRANCH   1   3
ATOM      2  N   UNL     1      -0.458  -4.798  -1.460  0.00  0.00    -0.315 N 
ATOM      3  C   UNL     1      -0.811  -5.380  -2.623  0.00  0.00    +0.215 C 
ATOM      4  O   UNL     1      -0.371  -4.957  -3.671  0.00  0.00    -0.276 OA
ATOM      5  H   UNL     1      -0.810  -5.136  -0.622  0.00  0.00    +0.149 HD
BRANCH   2   6
ATOM      6  C   UNL     1       0.457  -3.653  -1.462  0.00  0.00    +0.108 C 
BRANCH   6   7
ATOM      7  C   UNL     1       0.691  -3.186  -0.024  0.00  0.00    +0.052 C 
BRANCH   7  14
ATOM      8  C   UNL     1      -0.016   1.348   0.009  0.00  0.00    +0.001 A 
ATOM      9  C   UNL     1       1.166   2.101   0.002  0.00  0.00    +0.002 A 
ATOM     10  C   UNL     1       2.391   1.535  -0.013  0.00  0.00    +0.026 A 
ATOM     11  C   UNL     1       2.529   0.120  -0.022  0.00  0.00    +0.043 A 
ATOM     12  N   UNL     1       3.587  -0.654  -0.037  0.00  0.00    -0.380 N 
ATOM     13  C   UNL     1       3.143  -2.053  -0.041  0.00  0.00    +0.144 C 
ATOM     14  C   UNL     1       1.631  -2.008  -0.025  0.00  0.00    -0.040 C 
ATOM     15  C   UNL     1       1.295  -0.698  -0.014  0.00  0.00    -0.001 A 
ATOM     16  C   UNL     1       0.002  -0.004   0.002  0.00  0.00    +0.010 A 
ATOM     17  H   UNL     1       4.509  -0.353  -0.045  0.00  0.00    +0.160 HD
ENDBRANCH   7  14
ENDBRANCH   6   7
ENDBRANCH   2   6
ENDBRANCH   1   3
BRANCH   1  18
ATOM     18  C   UNL     1      -1.986  -7.025  -4.059  0.00  0.00    +0.123 C 
BRANCH  18  19
ATOM     19  N   UNL     1      -2.901  -8.169  -4.058  0.00  0.00    -0.266 N 
ATOM     20  C   UNL     1      -2.283  -9.408  -3.956  0.00  0.00    +0.050 A 
ATOM     21  C   UNL     1      -1.160  -9.658  -4.743  0.00  0.00    +0.024 A 
ATOM     22  C   UNL     1      -0.513 -10.875  -4.672  0.00  0.00    +0.002 A 
ATOM     23  C   UNL     1      -0.973 -11.860  -3.818  0.00  0.00    +0.001 A 
ATOM     24  C   UNL     1      -2.086 -11.625  -3.034  0.00  0.00    +0.017 A 
ATOM     25  C   UNL     1      -2.742 -10.403  -3.101  0.00  0.00    +0.036 A 
ATOM     26  S   UNL     1      -4.161 -10.129  -2.094  0.00  0.00    -0.067 S 
ATOM     27  C   UNL     1      -5.446  -9.819  -3.261  0.00  0.00    +0.114 A 
ATOM     28  C   UNL     1      -5.330  -8.742  -4.153  0.00  0.00    +0.069 A 
ATOM     29  C   UNL     1      -6.368  -8.518  -5.068  0.00  0.00    +0.017 A 
ATOM     30  C   UNL     1      -7.459  -9.369  -5.052  0.00  0.00    +0.020 A 
ATOM     31  C   UNL     1      -7.498 -10.410  -4.142  0.00  0.00    +0.112 A 
ATOM     32  N   UNL     1      -6.513 -10.604  -3.288  0.00  0.00    -0.248 NA
ATOM     33  C   UNL     1      -4.167  -7.859  -4.147  0.00  0.00    +0.253 C 
ATOM     34  O   UNL     1      -4.410  -6.671  -4.245  0.00  0.00    -0.270 OA
ENDBRANCH  18  19
ENDBRANCH   1  18
TORSDOF 6
