REMARK  Name = ZINC39729469
REMARK  9 active torsions:
REMARK  status: ('A' for Active; 'I' for Inactive)
REMARK    1  A    between atoms: C_1  and  C_2
REMARK    2  A    between atoms: C_2  and  O_3
REMARK    3  A    between atoms: O_3  and  C_4
REMARK    4  A    between atoms: C_6  and  C_11
REMARK    5  A    between atoms: C_9  and  O_10
REMARK    6  A    between atoms: N_12  and  N_13
REMARK    7  A    between atoms: C_16  and  C_19
REMARK    8  A    between atoms: C_22  and  S_25
REMARK    9  A    between atoms: S_25  and  N_28
REMARK                            x       y       z     vdW  Elec       q    Type
REMARK                         _______ _______ _______ _____ _____    ______ ____
ROOT
ATOM      1  N   UNL     1       1.485  -7.024  -0.033  0.00  0.00    -0.124 NA
ATOM      2  C   UNL     1       1.323  -8.338  -0.038  0.00  0.00    +0.192 A 
ATOM      3  N   UNL     1       2.275  -9.330  -0.042  0.00  0.00    -0.332 N 
ATOM      4  C   UNL     1       1.864 -10.634  -0.047  0.00  0.00    +0.055 A 
ATOM      5  C   UNL     1       0.544 -10.918  -0.048  0.00  0.00    +0.075 A 
ATOM      6  S   UNL     1      -0.188  -9.289  -0.033  0.00  0.00    -0.056 S 
ATOM      7  H   UNL     1       3.219  -9.109  -0.041  0.00  0.00    +0.168 HD
ENDROOT
BRANCH   4   8
ATOM      8  C   UNL     1       2.860 -11.727  -0.052  0.00  0.00    -0.001 A 
ATOM      9  C   UNL     1       4.224 -11.432  -0.045  0.00  0.00    +0.012 A 
ATOM     10  C   UNL     1       5.148 -12.457  -0.049  0.00  0.00    +0.029 A 
ATOM     11  C   UNL     1       4.724 -13.774  -0.060  0.00  0.00    +0.106 A 
ATOM     12  C   UNL     1       3.373 -14.073  -0.067  0.00  0.00    +0.029 A 
ATOM     13  C   UNL     1       2.439 -13.058  -0.057  0.00  0.00    +0.012 A 
BRANCH  11  14
ATOM     14  S   UNL     1       5.911 -15.077  -0.065  0.00  0.00    +0.061 S 
ATOM     15  O   UNL     1       5.265 -16.212  -0.626  0.00  0.00    -0.153 OA
ATOM     16  O   UNL     1       7.107 -14.535  -0.608  0.00  0.00    -0.153 OA
BRANCH  14  17
ATOM     17  N   UNL     1       6.236 -15.450   1.515  0.00  0.00    -0.177 NA
ATOM     18  C   UNL     1       7.306 -14.747   2.187  0.00  0.00    +0.109 C 
ATOM     19  C   UNL     1       8.638 -15.508   1.978  0.00  0.00    +0.017 C 
ATOM     20  C   UNL     1       8.640 -16.758   2.753  0.00  0.00    +0.001 C 
ATOM     21  C   UNL     1       7.565 -17.758   2.336  0.00  0.00    +0.001 C 
ATOM     22  C   UNL     1       6.275 -17.429   3.046  0.00  0.00    +0.017 C 
ATOM     23  C   UNL     1       5.417 -16.481   2.182  0.00  0.00    +0.109 C 
ENDBRANCH  14  17
ENDBRANCH  11  14
ENDBRANCH   4   8
BRANCH   1  25
ATOM     24  C   UNL     1       0.615  -4.950  -0.018  0.00  0.00    +0.143 C 
ATOM     25  N   UNL     1       0.455  -6.247  -0.024  0.00  0.00    -0.155 NA
BRANCH  24  28
ATOM     26  C   UNL     1      -1.498  -1.849   0.006  0.00  0.00    +0.162 A 
ATOM     27  C   UNL     1      -0.391  -2.676  -0.003  0.00  0.00    +0.059 A 
ATOM     28  C   UNL     1      -0.559  -4.065  -0.008  0.00  0.00    -0.002 A 
ATOM     29  C   UNL     1      -1.848  -4.609  -0.004  0.00  0.00    +0.013 A 
ATOM     30  C   UNL     1      -2.947  -3.776   0.005  0.00  0.00    +0.050 A 
ATOM     31  C   UNL     1      -2.779  -2.399   0.016  0.00  0.00    +0.158 A 
BRANCH  31  32
ATOM     32  O   UNL     1      -3.866  -1.583   0.030  0.00  0.00    -0.503 OA
ATOM     33  H   UNL     1      -4.189  -1.343  -0.849  0.00  0.00    +0.292 HD
ENDBRANCH  31  32
BRANCH  26  34
ATOM     34  O   UNL     1      -1.339  -0.499   0.012  0.00  0.00    -0.489 OA
BRANCH  34  36
ATOM     35  C   UNL     1      -0.019   1.526   0.010  0.00  0.00    +0.048 C 
ATOM     36  C   UNL     1       0.002  -0.004   0.002  0.00  0.00    +0.226 C 
ENDBRANCH  34  36
ENDBRANCH  26  34
ENDBRANCH  24  28
ENDBRANCH   1  25
TORSDOF 8
