REMARK  Name = ZINC40372886
REMARK  5 active torsions:
REMARK  status: ('A' for Active; 'I' for Inactive)
REMARK    1  A    between atoms: C_1  and  C_2
REMARK    2  A    between atoms: C_2  and  C_3
REMARK    3  A    between atoms: N_5  and  C_6
REMARK    4  A    between atoms: C_6  and  C_13
REMARK    5  A    between atoms: N_14  and  O_15
REMARK                            x       y       z     vdW  Elec       q    Type
REMARK                         _______ _______ _______ _____ _____    ______ ____
ROOT
ATOM      1  C   UNL     1       1.516  -2.402   2.615  0.00  0.00    +0.093 C 
ATOM      2  C   UNL     1       0.794  -1.999   3.917  0.00  0.00    +0.033 C 
ATOM      3  C   UNL     1      -0.690  -2.013   3.663  0.00  0.00    +0.002 C 
ATOM      4  C   UNL     1      -1.341  -3.353   4.054  0.00  0.00    +0.000 C 
ATOM      5  C   UNL     1      -0.497  -4.572   3.637  0.00  0.00    +0.000 C 
ATOM      6  C   UNL     1       0.097  -4.419   2.263  0.00  0.00    +0.002 C 
ATOM      7  C   UNL     1       1.520  -3.842   2.406  0.00  0.00    +0.033 C 
ENDROOT
BRANCH   1   8
ATOM      8  C   UNL     1       2.941  -1.915   2.679  0.00  0.00    +0.155 C 
ATOM      9  N   UNL     1       3.917  -2.752   2.554  0.00  0.00    -0.075 NA
ATOM     10  N   UNL     1       3.203  -0.576   2.871  0.00  0.00    -0.342 N 
ATOM     11  H   UNL     1       2.473   0.063   2.891  0.00  0.00    +0.144 HD
ATOM     12  H   UNL     1       4.117  -0.273   2.986  0.00  0.00    +0.144 HD
BRANCH   9  13
ATOM     13  O   UNL     1       5.255  -2.294   2.614  0.00  0.00    -0.408 OA
ATOM     14  H   UNL     1       5.915  -2.993   2.510  0.00  0.00    +0.328 HD
ENDBRANCH   9  13
ENDBRANCH   1   8
BRANCH   1  17
ATOM     15  C   UNL     1       1.262  -2.008   0.224  0.00  0.00    +0.213 C 
ATOM     16  O   UNL     1       2.248  -2.689   0.034  0.00  0.00    -0.276 OA
ATOM     17  N   UNL     1       0.846  -1.760   1.482  0.00  0.00    -0.303 N 
ATOM     18  H   UNL     1       0.103  -1.155   1.636  0.00  0.00    +0.150 HD
BRANCH  15  20
ATOM     19  C   UNL     1       1.180  -1.867  -2.251  0.00  0.00    +0.013 C 
ATOM     20  C   UNL     1       0.503  -1.439  -0.947  0.00  0.00    +0.092 C 
ENDBRANCH  15  20
ENDBRANCH   1  17
TORSDOF 4
