REMARK  Name = ZINC28159404
REMARK  5 active torsions:
REMARK  status: ('A' for Active; 'I' for Inactive)
REMARK    1  A    between atoms: C_4  and  C_7
REMARK    2  A    between atoms: C_10  and  C_31
REMARK    3  A    between atoms: C_17  and  C_20
REMARK    4  A    between atoms: C_20  and  C_21
REMARK    5  A    between atoms: N_23  and  C_24
REMARK                            x       y       z     vdW  Elec       q    Type
REMARK                         _______ _______ _______ _____ _____    ______ ____
ROOT
ATOM      1  C   UNL     1       7.056  -1.466   3.311  0.00  0.00    +0.136 C 
ATOM      2  C   UNL     1       5.642  -1.891   2.869  0.00  0.00    +0.087 C 
ATOM      3  C   UNL     1       5.069  -0.645   2.234  0.00  0.00    +0.069 C 
ATOM      4  N   UNL     1       5.936   0.306   2.293  0.00  0.00    -0.182 NA
ATOM      5  N   UNL     1       7.136  -0.055   2.902  0.00  0.00    -0.195 N 
ATOM      6  C   UNL     1       8.211   0.765   3.088  0.00  0.00    +0.170 C 
ATOM      7  N   UNL     1       9.374   0.477   3.658  0.00  0.00    -0.157 NA
ATOM      8  C   UNL     1      10.356   1.325   3.798  0.00  0.00    +0.252 C 
ATOM      9  O   UNL     1      11.407   1.020   4.328  0.00  0.00    -0.272 OA
ATOM     10  C   UNL     1      10.093   2.723   3.252  0.00  0.00    +0.150 C 
ATOM     11  S   UNL     1       8.386   2.480   2.614  0.00  0.00    -0.078 S 
ENDROOT
BRANCH   3  12
ATOM     12  C   UNL     1       3.723  -0.533   1.643  0.00  0.00    +0.002 A 
ATOM     13  C   UNL     1       2.867  -1.637   1.636  0.00  0.00    +0.013 A 
ATOM     14  C   UNL     1       1.609  -1.530   1.082  0.00  0.00    +0.050 A 
ATOM     15  C   UNL     1       1.188  -0.328   0.531  0.00  0.00    +0.166 A 
ATOM     16  C   UNL     1       2.037   0.778   0.535  0.00  0.00    +0.167 A 
ATOM     17  C   UNL     1       3.300   0.678   1.088  0.00  0.00    +0.059 A 
ATOM     18  O   UNL     1       1.392   1.825  -0.059  0.00  0.00    -0.453 OA
ATOM     19  C   UNL     1      -0.002   1.468  -0.057  0.00  0.00    +0.466 C 
ATOM     20  O   UNL     1       0.013   0.028  -0.065  0.00  0.00    -0.453 OA
ENDBRANCH   3  12
BRANCH   1  24
ATOM     21  C   UNL     1      10.034  -3.784   1.310  0.00  0.00    +0.000 A 
ATOM     22  C   UNL     1       9.731  -4.043   2.634  0.00  0.00    +0.000 A 
ATOM     23  C   UNL     1       8.767  -3.293   3.281  0.00  0.00    +0.005 A 
ATOM     24  C   UNL     1       8.107  -2.284   2.605  0.00  0.00    -0.025 A 
ATOM     25  C   UNL     1       8.406  -2.029   1.280  0.00  0.00    +0.005 A 
ATOM     26  C   UNL     1       9.374  -2.776   0.634  0.00  0.00    +0.000 A 
ENDBRANCH   1  24
BRANCH  10  27
ATOM     27  C   UNL     1      10.137   3.774   4.362  0.00  0.00    +0.120 C 
BRANCH  27  28
ATOM     28  C   UNL     1       9.995   5.148   3.760  0.00  0.00    +0.219 C 
ATOM     29  O   UNL     1       9.871   5.274   2.560  0.00  0.00    -0.275 OA
ATOM     30  N   UNL     1      10.007   6.237   4.554  0.00  0.00    -0.285 N 
ATOM     31  H   UNL     1      10.043   6.120   5.647  0.00  0.00    +0.155 HD
BRANCH  30  32
ATOM     32  C   UNL     1       9.972   7.517   3.988  0.00  0.00    +0.034 A 
ATOM     33  C   UNL     1      10.664   8.561   4.587  0.00  0.00    +0.026 A 
ATOM     34  C   UNL     1      10.634   9.821   4.023  0.00  0.00    +0.040 A 
ATOM     35  C   UNL     1       9.903  10.047   2.868  0.00  0.00    +0.124 A 
ATOM     36  C   UNL     1       9.208   9.008   2.272  0.00  0.00    +0.040 A 
ATOM     37  C   UNL     1       9.241   7.745   2.829  0.00  0.00    +0.026 A 
ATOM     38  F   UNL     1       9.870  11.282   2.322  0.00  0.00    -0.205 F 
ENDBRANCH  30  32
ENDBRANCH  27  28
ENDBRANCH  10  27
TORSDOF 5
