REMARK  Name = ZINC02649759
REMARK  8 active torsions:
REMARK  status: ('A' for Active; 'I' for Inactive)
REMARK    1  A    between atoms: C_1  and  C_2
REMARK    2  A    between atoms: C_2  and  C_3
REMARK    3  A    between atoms: C_3  and  N_55
REMARK    4  A    between atoms: C_4  and  C_5
REMARK    5  A    between atoms: C_4  and  N_55
REMARK    6  A    between atoms: C_20  and  C_21
REMARK    7  A    between atoms: C_20  and  N_55
REMARK    8  A    between atoms: N_23  and  C_24
REMARK                            x       y       z     vdW  Elec       q    Type
REMARK                         _______ _______ _______ _____ _____    ______ ____
ROOT
ATOM      1  N   UNL     1      -2.436   1.324  -0.061  0.00  0.00    +0.390 N 
ATOM      2  H   UNL     1      -2.332   0.637  -0.817  0.00  0.00    -0.081 HD
ENDROOT
BRANCH   1   3
ATOM      3  C   UNL     1      -2.595   0.606   1.221  0.00  0.00    -0.078 C 
BRANCH   3   5
ATOM      4  C   UNL     1      -2.862   0.840   3.695  0.00  0.00    +0.002 C 
ATOM      5  C   UNL     1      -2.828   1.596   2.365  0.00  0.00    -0.022 C 
ENDBRANCH   3   5
ENDBRANCH   1   3
BRANCH   1   6
ATOM      6  C   UNL     1      -3.631   2.153  -0.327  0.00  0.00    -0.003 C 
BRANCH   6   7
ATOM      7  C   UNL     1      -4.766   1.249  -0.736  0.00  0.00    +0.094 A 
ATOM      8  N   UNL     1      -5.942   1.796  -1.135  0.00  0.00    -0.312 N 
ATOM      9  H   UNL     1      -6.037   2.762  -1.152  0.00  0.00    +0.170 HD
ATOM     10  C   UNL     1      -6.981   1.026  -1.509  0.00  0.00    +0.260 A 
ATOM     11  O   UNL     1      -8.032   1.533  -1.865  0.00  0.00    -0.267 OA
ATOM     12  C   UNL     1      -6.832  -0.399  -1.481  0.00  0.00    +0.075 A 
ATOM     13  C   UNL     1      -7.814  -1.422  -1.839  0.00  0.00    -0.023 A 
ATOM     14  C   UNL     1      -7.425  -2.710  -1.726  0.00  0.00    -0.004 A 
ATOM     15  S   UNL     1      -5.752  -2.635  -1.145  0.00  0.00    -0.073 S 
ATOM     16  C   UNL     1      -5.580  -0.871  -1.056  0.00  0.00    +0.116 A 
ATOM     17  N   UNL     1      -4.598  -0.046  -0.705  0.00  0.00    -0.229 NA
ATOM     18  C   UNL     1      -8.237  -3.932  -2.027  0.00  0.00    +0.043 C 
ATOM     19  C   UNL     1      -9.712  -3.520  -2.135  0.00  0.00    +0.005 C 
ATOM     20  C   UNL     1      -9.813  -2.286  -3.035  0.00  0.00    +0.005 C 
ATOM     21  C   UNL     1      -9.219  -1.071  -2.321  0.00  0.00    +0.037 C 
ENDBRANCH   6   7
ENDBRANCH   1   6
BRANCH   1  22
ATOM     22  C   UNL     1      -1.230   2.176  -0.017  0.00  0.00    +0.019 C 
BRANCH  22  23
ATOM     23  C   UNL     1      -0.011   1.291   0.034  0.00  0.00    +0.201 C 
ATOM     24  O   UNL     1      -0.138   0.085   0.049  0.00  0.00    -0.278 OA
ATOM     25  N   UNL     1       1.220   1.839   0.056  0.00  0.00    -0.285 N 
ATOM     26  H   UNL     1       1.324   2.801  -0.018  0.00  0.00    +0.155 HD
BRANCH  25  27
ATOM     27  C   UNL     1       2.350   1.020   0.186  0.00  0.00    +0.072 A 
ATOM     28  C   UNL     1       2.364  -0.242  -0.392  0.00  0.00    +0.029 A 
ATOM     29  C   UNL     1       3.479  -1.047  -0.267  0.00  0.00    +0.043 A 
ATOM     30  C   UNL     1       4.581  -0.601   0.442  0.00  0.00    +0.161 A 
ATOM     31  C   UNL     1       4.570   0.656   1.026  0.00  0.00    +0.195 A 
ATOM     32  C   UNL     1       3.456   1.468   0.899  0.00  0.00    +0.182 A 
ATOM     33  F   UNL     1       3.443   2.694   1.466  0.00  0.00    -0.200 F 
ATOM     34  F   UNL     1       5.646   1.089   1.718  0.00  0.00    -0.199 F 
ATOM     35  F   UNL     1       5.669  -1.393   0.567  0.00  0.00    -0.202 F 
ENDBRANCH  25  27
ENDBRANCH  22  23
ENDBRANCH   1  22
TORSDOF 7
