REMARK  Name = ZINC28119211
REMARK  15 active torsions:
REMARK  status: ('A' for Active; 'I' for Inactive)
REMARK    1  A    between atoms: C_1  and  C_2
REMARK    2  A    between atoms: C_2  and  C_3
REMARK    3  A    between atoms: C_2  and  C_23
REMARK    4  A    between atoms: C_2  and  C_35
REMARK    5  A    between atoms: C_3  and  C_4
REMARK    6  A    between atoms: C_4  and  N_5
REMARK    7  A    between atoms: C_16  and  O_18
REMARK    8  A    between atoms: O_18  and  C_19
REMARK    9  A    between atoms: C_19  and  C_20
REMARK   10  A    between atoms: C_19  and  C_21
REMARK   11  A    between atoms: C_19  and  C_22
REMARK   12  A    between atoms: C_23  and  N_24
REMARK   13  A    between atoms: N_24  and  C_25
REMARK   14  A    between atoms: N_24  and  S_26
REMARK   15  A    between atoms: S_26  and  C_29
REMARK                            x       y       z     vdW  Elec       q    Type
REMARK                         _______ _______ _______ _____ _____    ______ ____
ROOT
ATOM      1  C   UNL     1      -0.328   1.337  -0.144  0.00  0.00    +0.017 C 
ATOM      2  C   UNL     1       0.037  -0.149  -0.179  0.00  0.00    +0.006 C 
ENDROOT
BRANCH   2   3
ATOM      3  C   UNL     1      -1.211  -0.976  -0.010  0.00  0.00    -0.040 A 
ATOM      4  C   UNL     1      -2.447  -0.360   0.047  0.00  0.00    +0.004 A 
ATOM      5  C   UNL     1      -3.592  -1.119   0.202  0.00  0.00    +0.000 A 
ATOM      6  C   UNL     1      -3.501  -2.495   0.299  0.00  0.00    +0.000 A 
ATOM      7  C   UNL     1      -2.265  -3.112   0.241  0.00  0.00    +0.000 A 
ATOM      8  C   UNL     1      -1.120  -2.353   0.082  0.00  0.00    +0.004 A 
ENDBRANCH   2   3
BRANCH   2   9
ATOM      9  C   UNL     1       1.014  -0.461   0.957  0.00  0.00    -0.006 C 
BRANCH   9  10
ATOM     10  C   UNL     1       0.403  -0.024   2.289  0.00  0.00    -0.078 C 
BRANCH  10  11
ATOM     11  N   UNL     1       1.278  -0.446   3.391  0.00  0.00    +0.380 N 
ATOM     12  C   UNL     1       2.557   0.275   3.307  0.00  0.00    -0.077 C 
ATOM     13  C   UNL     1       3.504  -0.286   4.368  0.00  0.00    +0.004 C 
ATOM     14  C   UNL     1       2.914  -0.125   5.755  0.00  0.00    +0.079 C 
ATOM     15  C   UNL     1       1.474  -0.667   5.838  0.00  0.00    -0.006 C 
ATOM     16  C   UNL     1       0.639  -0.135   4.672  0.00  0.00    -0.074 C 
ATOM     17  C   UNL     1       0.966   0.053   7.124  0.00  0.00    +0.022 C 
ATOM     18  C   UNL     1       1.649   1.435   7.032  0.00  0.00    +0.111 C 
ATOM     19  N   UNL     1       2.812   1.282   6.158  0.00  0.00    -0.264 N 
ATOM     20  C   UNL     1       3.654   2.270   5.797  0.00  0.00    +0.404 C 
ATOM     21  O   UNL     1       4.601   2.029   5.074  0.00  0.00    -0.226 OA
ATOM     22  H   UNL     1       1.445  -1.439   3.329  0.00  0.00    -0.082 HD
BRANCH  20  23
ATOM     23  O   UNL     1       3.447   3.525   6.239  0.00  0.00    -0.445 OA
BRANCH  23  24
ATOM     24  C   UNL     1       4.379   4.524   5.817  0.00  0.00    +0.107 C 
ATOM     25  C   UNL     1       4.369   4.618   4.290  0.00  0.00    +0.055 C 
ATOM     26  C   UNL     1       3.982   5.875   6.414  0.00  0.00    +0.055 C 
ATOM     27  C   UNL     1       5.782   4.146   6.296  0.00  0.00    +0.055 C 
ENDBRANCH  23  24
ENDBRANCH  20  23
ENDBRANCH  10  11
ENDBRANCH   9  10
ENDBRANCH   2   9
BRANCH   2  28
ATOM     28  C   UNL     1       0.692  -0.481  -1.521  0.00  0.00    +0.120 C 
BRANCH  28  29
ATOM     29  N   UNL     1      -0.189  -0.058  -2.612  0.00  0.00    -0.179 NA
ATOM     30  C   UNL     1      -1.321  -0.899  -3.008  0.00  0.00    +0.131 C 
BRANCH  29  31
ATOM     31  S   UNL     1       0.096   1.371  -3.399  0.00  0.00    +0.061 S 
ATOM     32  O   UNL     1      -1.167   1.848  -3.844  0.00  0.00    -0.153 OA
ATOM     33  O   UNL     1       0.945   2.137  -2.555  0.00  0.00    -0.153 OA
BRANCH  31  34
ATOM     34  C   UNL     1       1.030   0.994  -4.844  0.00  0.00    +0.105 A 
ATOM     35  C   UNL     1       2.405   0.877  -4.768  0.00  0.00    +0.028 A 
ATOM     36  C   UNL     1       3.138   0.580  -5.901  0.00  0.00    +0.002 A 
ATOM     37  C   UNL     1       2.496   0.400  -7.112  0.00  0.00    +0.000 A 
ATOM     38  C   UNL     1       1.120   0.516  -7.189  0.00  0.00    +0.002 A 
ATOM     39  C   UNL     1       0.387   0.808  -6.054  0.00  0.00    +0.028 A 
ENDBRANCH  31  34
ENDBRANCH  29  31
ENDBRANCH  28  29
ENDBRANCH   2  28
TORSDOF 10
