REMARK  Name = ZINC23983800
REMARK  11 active torsions:
REMARK  status: ('A' for Active; 'I' for Inactive)
REMARK    1  A    between atoms: C_1  and  C_2
REMARK    2  A    between atoms: C_2  and  N_3
REMARK    3  A    between atoms: C_7  and  S_27
REMARK    4  A    between atoms: C_11  and  C_12
REMARK    5  A    between atoms: C_12  and  N_13
REMARK    6  A    between atoms: N_13  and  C_14
REMARK    7  A    between atoms: C_14  and  C_16
REMARK    8  A    between atoms: C_14  and  C_22
REMARK    9  A    between atoms: S_27  and  N_30
REMARK   10  A    between atoms: N_30  and  C_31
REMARK   11  A    between atoms: N_30  and  C_32
REMARK                            x       y       z     vdW  Elec       q    Type
REMARK                         _______ _______ _______ _____ _____    ______ ____
ROOT
ATOM      1  N   UNL     1      -0.749   3.044   1.275  0.00  0.00    -0.327 N 
ATOM      2  C   UNL     1       0.206   3.872   1.831  0.00  0.00    +0.069 A 
ATOM      3  C   UNL     1       1.397   3.655   2.509  0.00  0.00    +0.030 A 
ATOM      4  C   UNL     1       2.139   4.731   2.948  0.00  0.00    +0.030 A 
ATOM      5  C   UNL     1       1.702   6.028   2.716  0.00  0.00    +0.108 A 
ATOM      6  C   UNL     1       0.537   6.261   2.043  0.00  0.00    +0.058 A 
ATOM      7  C   UNL     1      -0.234   5.185   1.593  0.00  0.00    +0.091 A 
ATOM      8  N   UNL     1      -1.414   5.093   0.927  0.00  0.00    -0.231 NA
ATOM      9  C   UNL     1      -1.714   3.840   0.741  0.00  0.00    +0.125 A 
ENDROOT
BRANCH   5  10
ATOM     10  S   UNL     1       2.667   7.388   3.285  0.00  0.00    +0.060 S 
ATOM     11  O   UNL     1       1.777   8.487   3.425  0.00  0.00    -0.153 OA
ATOM     12  O   UNL     1       3.455   6.904   4.364  0.00  0.00    -0.153 OA
BRANCH  10  13
ATOM     13  N   UNL     1       3.720   7.784   2.070  0.00  0.00    -0.183 NA
ATOM     14  C   UNL     1       3.331   8.766   1.055  0.00  0.00    +0.131 C 
ATOM     15  C   UNL     1       5.041   7.153   2.010  0.00  0.00    +0.131 C 
ENDBRANCH  10  13
ENDBRANCH   5  10
BRANCH   1  17
ATOM     16  C   UNL     1      -0.013   1.086   0.008  0.00  0.00    +0.027 C 
ATOM     17  C   UNL     1      -0.729   1.579   1.267  0.00  0.00    +0.120 C 
ENDBRANCH   1  17
BRANCH   9  18
ATOM     18  C   UNL     1      -2.951   3.344   0.037  0.00  0.00    +0.156 C 
BRANCH  18  19
ATOM     19  N   UNL     1      -4.033   3.167   1.015  0.00  0.00    -0.298 NA
ATOM     20  H   UNL     1      -3.724   2.434   1.775  0.00  0.00    +0.123 HD
BRANCH  19  21
ATOM     21  C   UNL     1      -5.257   2.684   0.363  0.00  0.00    +0.122 C 
BRANCH  21  22
ATOM     22  C   UNL     1      -6.455   3.082   1.186  0.00  0.00    -0.026 A 
ATOM     23  C   UNL     1      -6.402   3.006   2.566  0.00  0.00    +0.005 A 
ATOM     24  C   UNL     1      -7.500   3.376   3.321  0.00  0.00    +0.000 A 
ATOM     25  C   UNL     1      -8.653   3.813   2.696  0.00  0.00    +0.000 A 
ATOM     26  C   UNL     1      -8.708   3.884   1.316  0.00  0.00    +0.000 A 
ATOM     27  C   UNL     1      -7.609   3.518   0.562  0.00  0.00    +0.005 A 
ENDBRANCH  21  22
BRANCH  21  28
ATOM     28  C   UNL     1      -5.205   1.182   0.247  0.00  0.00    +0.011 A 
ATOM     29  C   UNL     1      -5.604   0.391  -0.778  0.00  0.00    +0.013 A 
ATOM     30  C   UNL     1      -5.455  -0.979  -0.666  0.00  0.00    +0.008 A 
ATOM     31  C   UNL     1      -4.924  -1.491   0.471  0.00  0.00    +0.045 A 
ATOM     32  S   UNL     1      -4.607  -0.017   1.427  0.00  0.00    -0.100 S 
ENDBRANCH  21  28
ENDBRANCH  19  21
ENDBRANCH  18  19
ENDBRANCH   9  18
TORSDOF 8
