REMARK  Name = ZINC39431123
REMARK  5 active torsions:
REMARK  status: ('A' for Active; 'I' for Inactive)
REMARK    1  A    between atoms: C_1  and  C_2
REMARK    2  A    between atoms: C_2  and  C_4
REMARK    3  A    between atoms: C_2  and  S_16
REMARK    4  A    between atoms: S_16  and  C_17
REMARK    5  A    between atoms: N_28  and  C_29
REMARK                            x       y       z     vdW  Elec       q    Type
REMARK                         _______ _______ _______ _____ _____    ______ ____
ROOT
ATOM      1  C   UNL     1      -2.209  -0.115  -1.566  0.00  0.00    +0.227 C 
ATOM      2  N   UNL     1      -1.913   1.317  -1.690  0.00  0.00    -0.316 N 
ATOM      3  C   UNL     1      -0.594   1.715  -1.873  0.00  0.00    +0.041 A 
ATOM      4  C   UNL     1      -0.135   2.945  -1.433  0.00  0.00    +0.024 A 
ATOM      5  C   UNL     1       1.183   3.300  -1.647  0.00  0.00    +0.002 A 
ATOM      6  C   UNL     1       2.048   2.436  -2.301  0.00  0.00    +0.001 A 
ATOM      7  C   UNL     1       1.608   1.206  -2.743  0.00  0.00    +0.015 A 
ATOM      8  C   UNL     1       0.283   0.832  -2.528  0.00  0.00    +0.058 A 
ATOM      9  C   UNL     1      -0.228  -0.480  -2.959  0.00  0.00    +0.255 C 
ATOM     10  O   UNL     1       0.448  -1.199  -3.669  0.00  0.00    -0.269 OA
ATOM     11  N   UNL     1      -1.450  -0.874  -2.560  0.00  0.00    -0.239 N 
ATOM     12  H   UNL     1      -2.625   1.974  -1.645  0.00  0.00    +0.149 HD
ENDROOT
BRANCH  11  13
ATOM     13  C   UNL     1      -2.004  -2.037  -3.105  0.00  0.00    +0.041 A 
ATOM     14  C   UNL     1      -2.194  -3.158  -2.307  0.00  0.00    +0.024 A 
ATOM     15  C   UNL     1      -2.741  -4.305  -2.848  0.00  0.00    +0.003 A 
ATOM     16  C   UNL     1      -3.099  -4.339  -4.183  0.00  0.00    +0.020 A 
ATOM     17  C   UNL     1      -2.910  -3.224  -4.982  0.00  0.00    +0.043 A 
ATOM     18  C   UNL     1      -2.369  -2.071  -4.444  0.00  0.00    +0.043 A 
ATOM     19 CL   UNL     1      -3.360  -3.272  -6.658  0.00  0.00    -0.083 Cl
ENDBRANCH  11  13
BRANCH   1  20
ATOM     20  S   UNL     1      -1.756  -0.680   0.097  0.00  0.00    -0.108 S 
BRANCH  20  22
ATOM     21  C   UNL     1      -4.389  -0.664   0.840  0.00  0.00    +0.027 C 
ATOM     22  C   UNL     1      -3.053   0.009   1.163  0.00  0.00    +0.112 C 
BRANCH  22  23
ATOM     23  C   UNL     1      -2.701  -0.241   2.607  0.00  0.00    +0.123 A 
ATOM     24  N   UNL     1      -3.606   0.106   3.559  0.00  0.00    -0.309 N 
ATOM     25  H   UNL     1      -4.451   0.503   3.297  0.00  0.00    +0.170 HD
ATOM     26  C   UNL     1      -3.338  -0.097   4.870  0.00  0.00    +0.259 A 
ATOM     27  O   UNL     1      -4.139   0.208   5.734  0.00  0.00    -0.267 OA
ATOM     28  C   UNL     1      -2.041  -0.702   5.210  0.00  0.00    +0.065 A 
ATOM     29  C   UNL     1      -1.668  -0.953   6.529  0.00  0.00    +0.015 A 
ATOM     30  C   UNL     1      -0.441  -1.521   6.791  0.00  0.00    +0.001 A 
ATOM     31  C   UNL     1       0.424  -1.844   5.753  0.00  0.00    +0.002 A 
ATOM     32  C   UNL     1       0.075  -1.603   4.443  0.00  0.00    +0.028 A 
ATOM     33  C   UNL     1      -1.164  -1.029   4.152  0.00  0.00    +0.078 A 
ATOM     34  N   UNL     1      -1.552  -0.780   2.876  0.00  0.00    -0.233 NA
ENDBRANCH  22  23
ENDBRANCH  20  22
ENDBRANCH   1  20
TORSDOF 4
