REMARK  Name = ZINC09442500
REMARK  15 active torsions:
REMARK  status: ('A' for Active; 'I' for Inactive)
REMARK    1  A    between atoms: C_1  and  C_2
REMARK    2  A    between atoms: C_5  and  S_8
REMARK    3  A    between atoms: S_8  and  N_11
REMARK    4  A    between atoms: N_11  and  C_12
REMARK    5  A    between atoms: N_11  and  C_30
REMARK    6  A    between atoms: C_12  and  C_13
REMARK    7  A    between atoms: C_13  and  C_14
REMARK    8  A    between atoms: N_16  and  C_17
REMARK    9  A    between atoms: C_17  and  C_18
REMARK   10  A    between atoms: C_18  and  C_20
REMARK   11  A    between atoms: C_18  and  N_68
REMARK   12  A    between atoms: C_25  and  O_26
REMARK   13  A    between atoms: O_26  and  C_27
REMARK   14  A    between atoms: C_28  and  N_68
REMARK   15  A    between atoms: C_29  and  N_68
REMARK                            x       y       z     vdW  Elec       q    Type
REMARK                         _______ _______ _______ _____ _____    ______ ____
ROOT
ATOM      1  C   UNL     1       4.030   2.113   0.003  0.00  0.00    +0.116 C 
ENDROOT
BRANCH   1   2
ATOM      2  C   UNL     1       2.551   2.393  -0.067  0.00  0.00    +0.215 C 
ATOM      3  O   UNL     1       2.153   3.535  -0.152  0.00  0.00    -0.276 OA
ATOM      4  N   UNL     1       1.670   1.373  -0.035  0.00  0.00    -0.316 N 
ATOM      5  H   UNL     1       1.988   0.459   0.033  0.00  0.00    +0.149 HD
BRANCH   4   6
ATOM      6  C   UNL     1       0.233   1.644  -0.109  0.00  0.00    +0.093 C 
BRANCH   6   7
ATOM      7  C   UNL     1      -0.539   0.324  -0.061  0.00  0.00    -0.017 C 
BRANCH   7   8
ATOM      8  C   UNL     1      -2.008   0.593  -0.260  0.00  0.00    -0.018 A 
ATOM      9  C   UNL     1      -2.419   1.742  -0.908  0.00  0.00    +0.005 A 
ATOM     10  C   UNL     1      -3.767   1.989  -1.091  0.00  0.00    +0.000 A 
ATOM     11  C   UNL     1      -4.707   1.087  -0.627  0.00  0.00    +0.004 A 
ATOM     12  C   UNL     1      -4.301  -0.063   0.021  0.00  0.00    +0.046 A 
ATOM     13  C   UNL     1      -2.949  -0.316   0.202  0.00  0.00    +0.122 A 
BRANCH  13  14
ATOM     14  O   UNL     1      -2.547  -1.450   0.835  0.00  0.00    -0.495 OA
ATOM     15  C   UNL     1      -3.571  -2.340   1.284  0.00  0.00    +0.277 C 
ENDBRANCH  13  14
ENDBRANCH   7   8
BRANCH   7  18
ATOM     16  C   UNL     1      -0.602  -1.920  -0.969  0.00  0.00    -0.096 C 
ATOM     17  C   UNL     1      -0.371  -0.020  -2.452  0.00  0.00    -0.096 C 
ATOM     18  N   UNL     1      -0.026  -0.567  -1.123  0.00  0.00    +0.382 N 
ATOM     19  H   UNL     1       0.995  -0.628  -1.043  0.00  0.00    -0.082 HD
ENDBRANCH   7  18
ENDBRANCH   6   7
ENDBRANCH   4   6
ENDBRANCH   1   2
BRANCH   1  20
ATOM     20  C   UNL     1       4.802   3.433  -0.051  0.00  0.00    +0.141 C 
BRANCH  20  21
ATOM     21  N   UNL     1       6.240   3.162   0.017  0.00  0.00    -0.203 N 
BRANCH  21  22
ATOM     22  C   UNL     1       6.862   3.003   1.257  0.00  0.00    +0.051 A 
ATOM     23  C   UNL     1       6.855   4.043   2.178  0.00  0.00    +0.025 A 
ATOM     24  C   UNL     1       7.467   3.881   3.405  0.00  0.00    +0.002 A 
ATOM     25  C   UNL     1       8.097   2.690   3.713  0.00  0.00    +0.000 A 
ATOM     26  C   UNL     1       8.112   1.654   2.796  0.00  0.00    +0.002 A 
ATOM     27  C   UNL     1       7.496   1.808   1.569  0.00  0.00    +0.025 A 
ENDBRANCH  21  22
BRANCH  21  28
ATOM     28  S   UNL     1       7.127   3.043  -1.377  0.00  0.00    +0.075 S 
ATOM     29  O   UNL     1       8.329   2.365  -1.036  0.00  0.00    -0.150 OA
ATOM     30  O   UNL     1       6.242   2.566  -2.382  0.00  0.00    -0.150 OA
BRANCH  28  35
ATOM     31  C   UNL     1       8.697   8.644  -2.977  0.00  0.00    +0.044 C 
ATOM     32  C   UNL     1       8.305   7.245  -2.577  0.00  0.00    -0.050 A 
ATOM     33  C   UNL     1       9.128   6.507  -1.747  0.00  0.00    +0.005 A 
ATOM     34  C   UNL     1       8.768   5.224  -1.381  0.00  0.00    +0.029 A 
ATOM     35  C   UNL     1       7.585   4.679  -1.844  0.00  0.00    +0.109 A 
ATOM     36  C   UNL     1       6.765   5.415  -2.678  0.00  0.00    +0.029 A 
ATOM     37  C   UNL     1       7.122   6.700  -3.041  0.00  0.00    +0.005 A 
ENDBRANCH  28  35
ENDBRANCH  21  28
ENDBRANCH  20  21
ENDBRANCH   1  20
TORSDOF 11
