REMARK  Name = ZINC39642034
REMARK  15 active torsions:
REMARK  status: ('A' for Active; 'I' for Inactive)
REMARK    1  A    between atoms: C_1  and  C_2
REMARK    2  A    between atoms: C_2  and  C_3
REMARK    3  A    between atoms: C_2  and  C_4
REMARK    4  A    between atoms: C_4  and  C_6
REMARK    5  A    between atoms: C_4  and  N_25
REMARK    6  A    between atoms: C_6  and  O_8
REMARK    7  A    between atoms: O_8  and  C_9
REMARK    8  A    between atoms: C_9  and  C_10
REMARK    9  A    between atoms: C_12  and  O_13
REMARK   10  A    between atoms: C_22  and  C_24
REMARK   11  A    between atoms: C_26  and  C_28
REMARK   12  A    between atoms: C_31  and  C_34
REMARK   13  A    between atoms: C_34  and  C_35
REMARK   14  A    between atoms: C_34  and  C_36
REMARK   15  A    between atoms: C_34  and  C_37
REMARK                            x       y       z     vdW  Elec       q    Type
REMARK                         _______ _______ _______ _____ _____    ______ ____
ROOT
ATOM      1  C   UNL     1      -3.082  -0.331  -1.525  0.00  0.00    +0.328 C 
ATOM      2  O   UNL     1      -4.005  -0.860  -2.098  0.00  0.00    -0.249 OA
ENDROOT
BRANCH   1   3
ATOM      3  C   UNL     1      -2.248  -1.120  -0.550  0.00  0.00    +0.185 C 
BRANCH   3   4
ATOM      4  N   UNL     1      -2.739  -2.499  -0.491  0.00  0.00    -0.298 N 
ATOM      5  C   UNL     1      -2.527  -3.244   0.612  0.00  0.00    +0.245 C 
ATOM      6  O   UNL     1      -1.927  -2.772   1.557  0.00  0.00    -0.270 OA
ATOM      7  H   UNL     1      -3.218  -2.876  -1.246  0.00  0.00    +0.150 HD
BRANCH   5   8
ATOM      8  C   UNL     1      -3.023  -4.636   0.671  0.00  0.00    +0.037 A 
ATOM      9  C   UNL     1      -3.707  -5.183  -0.416  0.00  0.00    +0.013 A 
ATOM     10  C   UNL     1      -4.167  -6.482  -0.354  0.00  0.00    +0.005 A 
ATOM     11  C   UNL     1      -3.952  -7.242   0.781  0.00  0.00    -0.042 A 
ATOM     12  C   UNL     1      -3.275  -6.705   1.862  0.00  0.00    +0.005 A 
ATOM     13  C   UNL     1      -2.804  -5.410   1.811  0.00  0.00    +0.013 A 
BRANCH  11  14
ATOM     14  C   UNL     1      -4.457  -8.660   0.842  0.00  0.00    -0.013 C 
ATOM     15  C   UNL     1      -3.816  -9.479  -0.280  0.00  0.00    +0.015 C 
ATOM     16  C   UNL     1      -4.092  -9.275   2.195  0.00  0.00    +0.015 C 
ATOM     17  C   UNL     1      -5.978  -8.667   0.673  0.00  0.00    +0.015 C 
ENDBRANCH  11  14
ENDBRANCH   5   8
ENDBRANCH   3   4
BRANCH   3  19
ATOM     18  C   UNL     1      -0.232   0.305  -0.933  0.00  0.00    +0.009 C 
ATOM     19  C   UNL     1      -0.788  -1.119  -1.009  0.00  0.00    +0.014 C 
ATOM     20  C   UNL     1       0.033  -2.036  -0.101  0.00  0.00    +0.009 C 
ENDBRANCH   3  19
ENDBRANCH   1   3
BRANCH   1  21
ATOM     21  O   UNL     1      -2.800   0.961  -1.758  0.00  0.00    -0.459 OA
BRANCH  21  22
ATOM     22  C   UNL     1      -3.559   1.618  -2.775  0.00  0.00    +0.268 C 
BRANCH  22  23
ATOM     23  C   UNL     1      -3.025   3.012  -2.979  0.00  0.00    +0.007 A 
ATOM     24  C   UNL     1      -2.967   3.906  -1.928  0.00  0.00    +0.095 A 
ATOM     25  C   UNL     1      -2.472   5.186  -2.135  0.00  0.00    +0.285 A 
ATOM     26  O   UNL     1      -2.044   5.580  -3.340  0.00  0.00    -0.425 OA
ATOM     27  C   UNL     1      -2.079   4.748  -4.400  0.00  0.00    +0.141 A 
ATOM     28  C   UNL     1      -2.568   3.431  -4.246  0.00  0.00    +0.024 A 
ATOM     29  C   UNL     1      -2.601   2.558  -5.348  0.00  0.00    +0.014 A 
ATOM     30  C   UNL     1      -2.156   2.981  -6.561  0.00  0.00    +0.024 A 
ATOM     31  C   UNL     1      -1.663   4.287  -6.722  0.00  0.00    +0.037 A 
ATOM     32  C   UNL     1      -1.634   5.169  -5.641  0.00  0.00    +0.070 A 
ATOM     33  N   UNL     1      -1.220   4.698  -7.942  0.00  0.00    -0.286 N 
ATOM     34  C   UNL     1      -0.484   5.787  -8.044  0.00  0.00    +0.214 C 
ATOM     35  O   UNL     1      -0.091   6.353  -7.040  0.00  0.00    -0.276 OA
ATOM     36  C   UNL     1      -0.129   6.332  -9.404  0.00  0.00    +0.109 C 
ATOM     37  H   UNL     1      -1.447   4.189  -8.737  0.00  0.00    +0.155 HD
BRANCH  25  38
ATOM     38  O   UNL     1      -2.420   6.048  -1.102  0.00  0.00    -0.480 OA
ATOM     39  H   UNL     1      -2.063   6.916  -1.332  0.00  0.00    +0.295 HD
ENDBRANCH  25  38
ENDBRANCH  22  23
ENDBRANCH  21  22
ENDBRANCH   1  21
TORSDOF 9
