REMARK  Name = ZINC36625868
REMARK  6 active torsions:
REMARK  status: ('A' for Active; 'I' for Inactive)
REMARK    1  A    between atoms: C_4  and  C_7
REMARK    2  A    between atoms: C_7  and  C_9
REMARK    3  A    between atoms: C_7  and  N_18
REMARK    4  A    between atoms: C_19  and  C_21
REMARK    5  A    between atoms: C_21  and  C_22
REMARK    6  A    between atoms: C_22  and  N_23
REMARK                            x       y       z     vdW  Elec       q    Type
REMARK                         _______ _______ _______ _____ _____    ______ ____
ROOT
ATOM      1  N   UNL     1       3.630  -1.873   0.845  0.00  0.00    -0.302 N 
ATOM      2  C   UNL     1       3.871  -1.738   2.164  0.00  0.00    +0.215 C 
ATOM      3  O   UNL     1       4.155  -0.651   2.621  0.00  0.00    -0.276 OA
ATOM      4  H   UNL     1       3.403  -2.743   0.480  0.00  0.00    +0.150 HD
ENDROOT
BRANCH   1   5
ATOM      5  C   UNL     1       3.711  -0.707  -0.038  0.00  0.00    +0.169 C 
BRANCH   5   6
ATOM      6  C   UNL     1       4.014  -1.161  -1.442  0.00  0.00    +0.131 A 
ATOM      7  C   UNL     1       4.854  -0.542  -2.284  0.00  0.00    +0.055 A 
ATOM      8  C   UNL     1       4.840  -1.325  -3.525  0.00  0.00    +0.020 A 
ATOM      9  C   UNL     1       5.484  -1.212  -4.756  0.00  0.00    +0.011 A 
ATOM     10  C   UNL     1       5.244  -2.137  -5.734  0.00  0.00    +0.001 A 
ATOM     11  C   UNL     1       4.365  -3.187  -5.508  0.00  0.00    +0.004 A 
ATOM     12  C   UNL     1       3.720  -3.315  -4.297  0.00  0.00    +0.047 A 
ATOM     13  C   UNL     1       3.950  -2.386  -3.289  0.00  0.00    +0.135 A 
ATOM     14  O   UNL     1       3.486  -2.248  -2.031  0.00  0.00    -0.457 OA
ENDBRANCH   5   6
BRANCH   5  18
ATOM     15  C   UNL     1      -0.017   1.378   0.010  0.00  0.00    +0.000 A 
ATOM     16  C   UNL     1       1.171   2.086   0.002  0.00  0.00    +0.000 A 
ATOM     17  C   UNL     1       2.377   1.411  -0.013  0.00  0.00    +0.006 A 
ATOM     18  C   UNL     1       2.396   0.029  -0.020  0.00  0.00    -0.020 A 
ATOM     19  C   UNL     1       1.208  -0.679  -0.012  0.00  0.00    +0.006 A 
ATOM     20  C   UNL     1       0.002  -0.004   0.002  0.00  0.00    +0.000 A 
ENDBRANCH   5  18
ENDBRANCH   1   5
BRANCH   2  21
ATOM     21  C   UNL     1       3.788  -2.938   3.073  0.00  0.00    +0.115 C 
BRANCH  21  22
ATOM     22  C   UNL     1       4.103  -2.513   4.508  0.00  0.00    +0.127 C 
BRANCH  22  23
ATOM     23  N   UNL     1       4.022  -3.679   5.391  0.00  0.00    -0.224 N 
ATOM     24  C   UNL     1       2.897  -4.078   6.020  0.00  0.00    +0.247 C 
ATOM     25  O   UNL     1       1.802  -3.559   5.965  0.00  0.00    -0.273 OA
ATOM     26  C   UNL     1       3.288  -5.307   6.808  0.00  0.00    +0.113 C 
ATOM     27  C   UNL     1       2.491  -6.518   6.335  0.00  0.00    +0.035 C 
ATOM     28  C   UNL     1       2.924  -7.756   7.123  0.00  0.00    +0.003 C 
ATOM     29  C   UNL     1       2.684  -7.518   8.616  0.00  0.00    +0.000 C 
ATOM     30  C   UNL     1       3.508  -6.316   9.081  0.00  0.00    +0.003 C 
ATOM     31  C   UNL     1       3.078  -5.072   8.300  0.00  0.00    +0.035 C 
ATOM     32  N   UNL     1       4.715  -5.482   6.511  0.00  0.00    -0.285 N 
ATOM     33  C   UNL     1       5.054  -4.486   5.670  0.00  0.00    +0.309 C 
ATOM     34  O   UNL     1       6.171  -4.333   5.217  0.00  0.00    -0.252 OA
ATOM     35  H   UNL     1       5.298  -6.179   6.850  0.00  0.00    +0.151 HD
ENDBRANCH  22  23
ENDBRANCH  21  22
ENDBRANCH   2  21
TORSDOF 6
