REMARK  Name = ZINC24750929
REMARK  5 active torsions:
REMARK  status: ('A' for Active; 'I' for Inactive)
REMARK    1  A    between atoms: C_3  and  C_6
REMARK    2  A    between atoms: C_6  and  C_8
REMARK    3  A    between atoms: C_6  and  N_27
REMARK    4  A    between atoms: C_8  and  N_9
REMARK    5  A    between atoms: C_10  and  C_12
REMARK                            x       y       z     vdW  Elec       q    Type
REMARK                         _______ _______ _______ _____ _____    ______ ____
ROOT
ATOM      1  N   UNL     1      -3.717   3.102   0.086  0.00  0.00    -0.313 N 
ATOM      2  C   UNL     1      -2.562   3.793   0.039  0.00  0.00    +0.244 C 
ATOM      3  O   UNL     1      -2.582   5.003  -0.084  0.00  0.00    -0.270 OA
ATOM      4  H   UNL     1      -3.699   2.007   0.197  0.00  0.00    +0.149 HD
ENDROOT
BRANCH   2   5
ATOM      5  C   UNL     1      -1.272   3.083   0.136  0.00  0.00    +0.038 A 
ATOM      6  C   UNL     1      -1.234   1.692   0.272  0.00  0.00    +0.015 A 
ATOM      7  C   UNL     1      -0.042   1.023   0.369  0.00  0.00    +0.025 A 
ATOM      8  C   UNL     1       1.184   1.714   0.323  0.00  0.00    +0.050 A 
ATOM      9  C   UNL     1       1.120   3.105   0.180  0.00  0.00    +0.037 A 
ATOM     10  C   UNL     1      -0.064   3.789   0.088  0.00  0.00    +0.030 A 
ATOM     11  S   UNL     1       2.827   3.596   0.163  0.00  0.00    -0.051 S 
ATOM     12  C   UNL     1       3.544   1.978   0.340  0.00  0.00    +0.186 C 
ATOM     13  N   UNL     1       4.811   1.701   0.385  0.00  0.00    -0.110 NA
ATOM     14  S   UNL     1       5.279   0.114   0.548  0.00  0.00    +0.073 S 
ATOM     15  O   UNL     1       6.411  -0.026  -0.300  0.00  0.00    -0.151 OA
ATOM     16  O   UNL     1       5.386  -0.098   1.949  0.00  0.00    -0.151 OA
ATOM     17  C   UNL     1       3.864  -0.809  -0.127  0.00  0.00    +0.212 C 
ATOM     18  C   UNL     1       2.591  -0.331   0.577  0.00  0.00    +0.137 C 
ATOM     19  N   UNL     1       2.455   1.138   0.410  0.00  0.00    -0.276 N 
ENDBRANCH   2   5
BRANCH   1  20
ATOM     20  C   UNL     1      -4.998   3.807  -0.010  0.00  0.00    +0.094 C 
BRANCH  20  21
ATOM     21  C   UNL     1      -6.139   2.788  -0.050  0.00  0.00    -0.013 C 
BRANCH  21  22
ATOM     22  N   UNL     1      -7.412   3.487  -0.273  0.00  0.00    +0.386 N 
ATOM     23  C   UNL     1      -7.386   4.243  -1.552  0.00  0.00    -0.078 C 
ATOM     24  C   UNL     1      -8.888   4.449  -1.872  0.00  0.00    -0.020 C 
ATOM     25  C   UNL     1      -9.526   3.119  -1.409  0.00  0.00    -0.020 C 
ATOM     26  C   UNL     1      -8.530   2.527  -0.395  0.00  0.00    -0.078 C 
ATOM     27  H   UNL     1      -7.544   4.152   0.593  0.00  0.00    -0.081 HD
ENDBRANCH  21  22
BRANCH  21  30
ATOM     28  C   UNL     1      -5.888   0.332   2.851  0.00  0.00    +0.008 A 
ATOM     29  C   UNL     1      -5.721   0.816   1.567  0.00  0.00    +0.009 A 
ATOM     30  C   UNL     1      -6.197   2.047   1.261  0.00  0.00    -0.022 A 
ATOM     31  S   UNL     1      -6.902   2.567   2.817  0.00  0.00    -0.103 S 
ATOM     32  C   UNL     1      -6.524   1.104   3.767  0.00  0.00    +0.045 A 
ENDBRANCH  21  30
ENDBRANCH  20  21
ENDBRANCH   1  20
TORSDOF 5
