REMARK  Name = ZINC20708752
REMARK  8 active torsions:
REMARK  status: ('A' for Active; 'I' for Inactive)
REMARK    1  A    between atoms: C_1  and  N_2
REMARK    2  A    between atoms: N_2  and  C_3
REMARK    3  A    between atoms: N_2  and  S_10
REMARK    4  A    between atoms: C_3  and  C_4
REMARK    5  A    between atoms: S_10  and  C_13
REMARK    6  A    between atoms: C_26  and  C_29
REMARK    7  A    between atoms: C_31  and  N_36
REMARK    8  A    between atoms: C_34  and  O_35
REMARK                            x       y       z     vdW  Elec       q    Type
REMARK                         _______ _______ _______ _____ _____    ______ ____
ROOT
ATOM      1  C   UNL     1       0.039   4.982  -0.482  0.00  0.00    +0.106 A 
ATOM      2  C   UNL     1      -0.719   3.827  -0.538  0.00  0.00    +0.030 A 
ATOM      3  C   UNL     1      -0.090   2.598  -0.582  0.00  0.00    +0.025 A 
ATOM      4  C   UNL     1       1.297   2.527  -0.581  0.00  0.00    +0.031 A 
ATOM      5  C   UNL     1       2.061   3.683  -0.533  0.00  0.00    -0.018 A 
ATOM      6  C   UNL     1       1.417   4.912  -0.483  0.00  0.00    +0.034 A 
ATOM      7  C   UNL     1       3.556   3.656  -0.534  0.00  0.00    +0.049 C 
ATOM      8  C   UNL     1       4.113   3.960   0.837  0.00  0.00    -0.023 C 
ATOM      9  C   UNL     1       5.188   3.244   1.058  0.00  0.00    -0.030 C 
ATOM     10  C   UNL     1       5.499   2.367  -0.139  0.00  0.00    +0.033 C 
ATOM     11  C   UNL     1       4.133   2.270  -0.879  0.00  0.00    +0.029 C 
ATOM     12  C   UNL     1       3.315   1.176  -0.186  0.00  0.00    +0.108 C 
ATOM     13  N   UNL     1       1.920   1.275  -0.627  0.00  0.00    -0.336 N 
ATOM     14  H   UNL     1       1.390   0.379  -0.982  0.00  0.00    +0.147 HD
ENDROOT
BRANCH  12  15
ATOM     15  C   UNL     1       3.387   1.363   1.308  0.00  0.00    +0.017 A 
ATOM     16  C   UNL     1       2.523   2.238   1.938  0.00  0.00    +0.041 A 
ATOM     17  C   UNL     1       2.585   2.405   3.308  0.00  0.00    +0.127 A 
ATOM     18  C   UNL     1       3.519   1.707   4.051  0.00  0.00    +0.036 A 
ATOM     19  C   UNL     1       4.388   0.835   3.426  0.00  0.00    +0.048 A 
ATOM     20  C   UNL     1       4.325   0.661   2.051  0.00  0.00    +0.122 A 
BRANCH  17  21
ATOM     21  N   UNL     1       1.654   3.339   3.981  0.00  0.00    +0.056 N 
ATOM     22  O   UNL     1       1.711   3.492   5.188  0.00  0.00    -0.126 OA
ATOM     23  O   UNL     1       0.831   3.955   3.328  0.00  0.00    -0.126 OA
ENDBRANCH  17  21
BRANCH  20  24
ATOM     24  O   UNL     1       5.180  -0.196   1.433  0.00  0.00    -0.506 OA
ATOM     25  H   UNL     1       5.923  -0.753   2.023  0.00  0.00    +0.292 HD
ENDBRANCH  20  24
ENDBRANCH  12  15
BRANCH   1  26
ATOM     26  S   UNL     1      -0.759   6.552  -0.417  0.00  0.00    +0.061 S 
ATOM     27  O   UNL     1      -2.010   6.345   0.226  0.00  0.00    -0.153 OA
ATOM     28  O   UNL     1       0.203   7.477   0.069  0.00  0.00    -0.153 OA
BRANCH  26  30
ATOM     29  C   UNL     1      -2.320   6.519  -2.625  0.00  0.00    +0.132 C 
ATOM     30  N   UNL     1      -1.096   6.995  -1.976  0.00  0.00    -0.175 NA
BRANCH  30  31
ATOM     31  C   UNL     1      -0.170   7.864  -2.708  0.00  0.00    +0.144 C 
BRANCH  31  32
ATOM     32  C   UNL     1      -0.641   9.292  -2.613  0.00  0.00    -0.032 A 
ATOM     33  C   UNL     1      -1.585   9.769  -3.503  0.00  0.00    +0.005 A 
ATOM     34  C   UNL     1      -2.020  11.079  -3.413  0.00  0.00    +0.000 A 
ATOM     35  C   UNL     1      -1.504  11.913  -2.440  0.00  0.00    +0.000 A 
ATOM     36  C   UNL     1      -0.556  11.438  -1.553  0.00  0.00    +0.000 A 
ATOM     37  C   UNL     1      -0.124  10.127  -1.640  0.00  0.00    +0.005 A 
ENDBRANCH  31  32
ENDBRANCH  30  31
ENDBRANCH  26  30
ENDBRANCH   1  26
TORSDOF 7
