REMARK  Name = ZINC08898928
REMARK  11 active torsions:
REMARK  status: ('A' for Active; 'I' for Inactive)
REMARK    1  A    between atoms: C_1  and  C_2
REMARK    2  A    between atoms: C_2  and  C_3
REMARK    3  A    between atoms: C_2  and  C_4
REMARK    4  A    between atoms: C_2  and  C_5
REMARK    5  A    between atoms: N_16  and  C_19
REMARK    6  A    between atoms: C_19  and  C_20
REMARK    7  A    between atoms: N_22  and  C_23
REMARK    8  A    between atoms: C_26  and  O_31
REMARK    9  A    between atoms: C_27  and  O_29
REMARK   10  A    between atoms: O_29  and  C_30
REMARK   11  A    between atoms: O_31  and  C_32
REMARK                            x       y       z     vdW  Elec       q    Type
REMARK                         _______ _______ _______ _____ _____    ______ ____
ROOT
ATOM      1  C   UNL     1       1.068   0.282   0.471  0.00  0.00    -0.000 C 
ATOM      2  C   UNL     1       1.657  -0.385   1.717  0.00  0.00    +0.009 C 
ATOM      3  C   UNL     1       1.746  -1.896   1.504  0.00  0.00    +0.037 C 
ATOM      4  C   UNL     1       0.378  -2.415   1.069  0.00  0.00    -0.023 A 
ATOM      5  C   UNL     1      -0.552  -1.567   0.571  0.00  0.00    -0.004 A 
ATOM      6  S   UNL     1      -1.960  -2.585   0.206  0.00  0.00    -0.073 S 
ATOM      7  C   UNL     1      -1.301  -4.139   0.721  0.00  0.00    +0.116 A 
ATOM      8  C   UNL     1       0.001  -3.814   1.162  0.00  0.00    +0.076 A 
ATOM      9  C   UNL     1       0.811  -4.892   1.653  0.00  0.00    +0.263 A 
ATOM     10  O   UNL     1       1.948  -4.718   2.057  0.00  0.00    -0.267 OA
ATOM     11  N   UNL     1       0.232  -6.116   1.638  0.00  0.00    -0.290 N 
ATOM     12  C   UNL     1      -1.030  -6.332   1.194  0.00  0.00    +0.203 A 
ATOM     13  N   UNL     1      -1.802  -5.370   0.738  0.00  0.00    -0.230 NA
ATOM     14  C   UNL     1      -0.418  -0.089   0.371  0.00  0.00    +0.046 C 
ENDROOT
BRANCH   1  16
ATOM     15  C   UNL     1       2.691   2.167   0.705  0.00  0.00    +0.011 C 
ATOM     16  C   UNL     1       1.210   1.801   0.585  0.00  0.00    -0.035 C 
ATOM     17  C   UNL     1       0.621   2.465  -0.661  0.00  0.00    +0.011 C 
ATOM     18  C   UNL     1       0.462   2.292   1.827  0.00  0.00    +0.011 C 
ENDBRANCH   1  16
BRANCH  11  19
ATOM     19  C   UNL     1       1.006  -7.261   2.125  0.00  0.00    +0.222 C 
BRANCH  19  20
ATOM     20  C   UNL     1       1.770  -7.874   0.981  0.00  0.00    +0.237 C 
ATOM     21  O   UNL     1       1.678  -7.401  -0.133  0.00  0.00    -0.274 OA
ATOM     22  N   UNL     1       2.557  -8.948   1.194  0.00  0.00    -0.284 N 
ATOM     23  H   UNL     1       2.691  -9.279   2.095  0.00  0.00    +0.155 HD
BRANCH  22  24
ATOM     24  C   UNL     1       3.180  -9.585   0.113  0.00  0.00    +0.037 A 
ATOM     25  C   UNL     1       2.545  -9.640  -1.121  0.00  0.00    +0.027 A 
ATOM     26  C   UNL     1       3.161 -10.264  -2.189  0.00  0.00    +0.051 A 
ATOM     27  C   UNL     1       4.408 -10.845  -2.029  0.00  0.00    +0.162 A 
ATOM     28  C   UNL     1       5.045 -10.796  -0.792  0.00  0.00    +0.163 A 
ATOM     29  C   UNL     1       4.430 -10.166   0.277  0.00  0.00    +0.072 A 
BRANCH  28  30
ATOM     30  O   UNL     1       6.270 -11.365  -0.634  0.00  0.00    -0.491 OA
ATOM     31  C   UNL     1       6.864 -11.276   0.662  0.00  0.00    +0.277 C 
ENDBRANCH  28  30
BRANCH  27  32
ATOM     32  O   UNL     1       5.011 -11.463  -3.080  0.00  0.00    -0.491 OA
ATOM     33  C   UNL     1       4.300 -11.476  -4.320  0.00  0.00    +0.277 C 
ENDBRANCH  27  32
ENDBRANCH  22  24
ENDBRANCH  19  20
ENDBRANCH  11  19
TORSDOF 6
