REMARK  Name = ZINC67271774
REMARK  6 active torsions:
REMARK  status: ('A' for Active; 'I' for Inactive)
REMARK    1  A    between atoms: C_1  and  C_2
REMARK    2  A    between atoms: C_2  and  C_3
REMARK    3  A    between atoms: C_2  and  N_4
REMARK    4  A    between atoms: C_8  and  C_11
REMARK    5  A    between atoms: C_11  and  N_12
REMARK    6  A    between atoms: C_13  and  C_15
REMARK                            x       y       z     vdW  Elec       q    Type
REMARK                         _______ _______ _______ _____ _____    ______ ____
ROOT
ATOM      1  N   UNL     1      -4.119  -4.557   0.290  0.00  0.00    -0.315 N 
ATOM      2  C   UNL     1      -4.341  -5.886   0.318  0.00  0.00    +0.216 C 
ATOM      3  O   UNL     1      -3.417  -6.658   0.174  0.00  0.00    -0.276 OA
ATOM      4  H   UNL     1      -4.857  -3.939   0.405  0.00  0.00    +0.149 HD
ENDROOT
BRANCH   2   5
ATOM      5  C   UNL     1      -5.737  -6.412   0.527  0.00  0.00    +0.075 C 
ATOM      6  C   UNL     1      -6.271  -5.919   1.874  0.00  0.00    +0.015 C 
ATOM      7  C   UNL     1      -7.694  -6.444   2.080  0.00  0.00    +0.036 C 
ATOM      8  C   UNL     1      -7.687  -7.968   2.045  0.00  0.00    +0.112 C 
ATOM      9  C   UNL     1      -7.134  -8.475   0.718  0.00  0.00    +0.036 C 
ATOM     10  C   UNL     1      -5.713  -7.942   0.517  0.00  0.00    +0.015 C 
ATOM     11  C   UNL     1      -6.881  -8.519   3.198  0.00  0.00    +0.244 C 
ATOM     12  O   UNL     1      -5.703  -8.343   3.420  0.00  0.00    -0.273 OA
ATOM     13  N   UNL     1      -7.750  -9.249   3.928  0.00  0.00    -0.238 N 
ATOM     14  C   UNL     1      -8.978  -9.231   3.397  0.00  0.00    +0.307 C 
ATOM     15  O   UNL     1      -9.931  -9.815   3.875  0.00  0.00    -0.252 OA
ATOM     16  N   UNL     1      -9.040  -8.493   2.272  0.00  0.00    -0.285 N 
ATOM     17  H   UNL     1      -7.513  -9.728   4.738  0.00  0.00    +0.159 HD
ATOM     18  H   UNL     1      -9.823  -8.339   1.720  0.00  0.00    +0.151 HD
ENDBRANCH   2   5
BRANCH   1  19
ATOM     19  C   UNL     1      -2.761  -4.045   0.086  0.00  0.00    +0.106 C 
BRANCH  19  24
ATOM     20  N   UNL     1      -1.376  -0.512   0.012  0.00  0.00    +0.381 N 
ATOM     21  C   UNL     1      -2.087  -0.018  -1.173  0.00  0.00    -0.078 C 
ATOM     22  C   UNL     1      -3.546  -0.478  -1.125  0.00  0.00    -0.018 C 
ATOM     23  C   UNL     1      -3.593  -2.009  -1.101  0.00  0.00    +0.001 C 
ATOM     24  C   UNL     1      -2.785  -2.515   0.097  0.00  0.00    -0.011 C 
ATOM     25  C   UNL     1      -1.355  -1.980   0.004  0.00  0.00    -0.074 C 
ATOM     26  H   UNL     1      -1.847  -0.189   0.844  0.00  0.00    -0.081 HD
BRANCH  20  28
ATOM     27  C   UNL     1      -0.019   1.526   0.010  0.00  0.00    -0.014 C 
ATOM     28  C   UNL     1       0.002  -0.004   0.002  0.00  0.00    -0.075 C 
ATOM     29  C   UNL     1       0.742  -0.511   1.242  0.00  0.00    -0.014 C 
ENDBRANCH  20  28
ENDBRANCH  19  24
ENDBRANCH   1  19
TORSDOF 4
