REMARK  Name = ZINC34830148
REMARK  7 active torsions:
REMARK  status: ('A' for Active; 'I' for Inactive)
REMARK    1  A    between atoms: C_1  and  C_2
REMARK    2  A    between atoms: C_5  and  C_8
REMARK    3  A    between atoms: N_17  and  C_18
REMARK    4  A    between atoms: C_18  and  C_19
REMARK    5  A    between atoms: C_19  and  C_20
REMARK    6  A    between atoms: C_26  and  C_29
REMARK    7  A    between atoms: C_30  and  C_32
REMARK                            x       y       z     vdW  Elec       q    Type
REMARK                         _______ _______ _______ _____ _____    ______ ____
ROOT
ATOM      1  C   UNL     1       3.541  -6.029   1.931  0.00  0.00    +0.077 C 
ENDROOT
BRANCH   1   2
ATOM      2  C   UNL     1       4.949  -5.611   1.592  0.00  0.00    +0.214 C 
ATOM      3  O   UNL     1       5.242  -5.341   0.446  0.00  0.00    -0.276 OA
ATOM      4  N   UNL     1       5.882  -5.536   2.562  0.00  0.00    -0.298 N 
ATOM      5  C   UNL     1       5.542  -5.865   3.953  0.00  0.00    +0.127 C 
ATOM      6  C   UNL     1       5.913  -4.672   4.843  0.00  0.00    +0.127 C 
ATOM      7  N   UNL     1       7.288  -4.261   4.528  0.00  0.00    -0.292 N 
ATOM      8  C   UNL     1       7.628  -3.931   3.137  0.00  0.00    +0.091 C 
ATOM      9  C   UNL     1       7.258  -5.130   2.246  0.00  0.00    +0.130 C 
ATOM     10  C   UNL     1       6.844  -2.694   2.696  0.00  0.00    +0.029 C 
ATOM     11  C   UNL     1       8.221  -4.186   5.498  0.00  0.00    +0.247 C 
ATOM     12  O   UNL     1       7.912  -4.391   6.656  0.00  0.00    -0.270 OA
BRANCH  11  13
ATOM     13  C   UNL     1       9.619  -3.854   5.154  0.00  0.00    +0.037 A 
ATOM     14  C   UNL     1       9.902  -2.725   4.383  0.00  0.00    +0.016 A 
ATOM     15  C   UNL     1      11.208  -2.420   4.065  0.00  0.00    +0.039 A 
ATOM     16  C   UNL     1      12.240  -3.233   4.509  0.00  0.00    +0.123 A 
ATOM     17  C   UNL     1      11.965  -4.355   5.276  0.00  0.00    +0.039 A 
ATOM     18  C   UNL     1      10.663  -4.665   5.604  0.00  0.00    +0.016 A 
ATOM     19  F   UNL     1      13.518  -2.930   4.194  0.00  0.00    -0.205 F 
ENDBRANCH  11  13
ENDBRANCH   1   2
BRANCH   1  20
ATOM     20  C   UNL     1       2.690  -6.031   0.660  0.00  0.00    -0.068 C 
BRANCH  20  29
ATOM     21  C   UNL     1       0.478  -6.325  -0.208  0.00  0.00    -0.006 C 
ATOM     22  C   UNL     1      -0.918  -6.847   0.117  0.00  0.00    -0.047 A 
ATOM     23  C   UNL     1      -2.056  -6.544  -0.627  0.00  0.00    +0.010 A 
ATOM     24  C   UNL     1      -3.257  -7.051  -0.264  0.00  0.00    +0.045 A 
ATOM     25  S   UNL     1      -2.831  -8.007   1.185  0.00  0.00    -0.101 S 
ATOM     26  C   UNL     1      -1.095  -7.661   1.195  0.00  0.00    -0.010 A 
ATOM     27  C   UNL     1      -0.034  -8.129   2.137  0.00  0.00    +0.024 C 
ATOM     28  C   UNL     1       1.328  -7.821   1.491  0.00  0.00    -0.072 C 
ATOM     29  N   UNL     1       1.318  -6.439   0.991  0.00  0.00    +0.388 N 
ATOM     30  H   UNL     1       0.955  -5.830   1.709  0.00  0.00    -0.080 HD
BRANCH  21  35
ATOM     31  C   UNL     1       0.146  -0.786  -1.823  0.00  0.00    +0.044 C 
ATOM     32  C   UNL     1       0.233  -2.231  -1.402  0.00  0.00    -0.050 A 
ATOM     33  C   UNL     1       0.350  -3.223  -2.357  0.00  0.00    +0.003 A 
ATOM     34  C   UNL     1       0.430  -4.548  -1.970  0.00  0.00    +0.002 A 
ATOM     35  C   UNL     1       0.392  -4.880  -0.629  0.00  0.00    -0.057 A 
ATOM     36  C   UNL     1       0.276  -3.888   0.326  0.00  0.00    +0.002 A 
ATOM     37  C   UNL     1       0.200  -2.562  -0.060  0.00  0.00    +0.003 A 
ENDBRANCH  21  35
ENDBRANCH  20  29
ENDBRANCH   1  20
TORSDOF 5
