REMARK  Name = ZINC40499328
REMARK  9 active torsions:
REMARK  status: ('A' for Active; 'I' for Inactive)
REMARK    1  A    between atoms: C_1  and  C_2
REMARK    2  A    between atoms: N_17  and  C_18
REMARK    3  A    between atoms: C_26  and  C_41
REMARK    4  A    between atoms: C_29  and  O_40
REMARK    5  A    between atoms: C_32  and  C_39
REMARK    6  A    between atoms: C_33  and  C_34
REMARK    7  A    between atoms: C_33  and  O_38
REMARK    8  A    between atoms: C_34  and  C_36
REMARK    9  A    between atoms: C_36  and  O_37
REMARK                            x       y       z     vdW  Elec       q    Type
REMARK                         _______ _______ _______ _____ _____    ______ ____
ROOT
ATOM      1  C   UNL     1       0.809   2.265   0.512  0.00  0.00    +0.011 C 
ATOM      2  C   UNL     1       0.750   0.780   0.145  0.00  0.00    +0.026 C 
ATOM      3  C   UNL     1      -0.713   0.373  -0.189  0.00  0.00    +0.011 C 
ATOM      4  C   UNL     1      -1.173  -0.327   1.095  0.00  0.00    +0.002 C 
ATOM      5  C   UNL     1      -2.359  -1.248   1.001  0.00  0.00    -0.001 C 
ATOM      6  C   UNL     1      -3.557  -0.599   0.341  0.00  0.00    +0.008 C 
ATOM      7  C   UNL     1      -4.613  -0.148   1.339  0.00  0.00    +0.031 C 
ATOM      8  C   UNL     1      -3.938   0.282   2.620  0.00  0.00    -0.061 C 
ATOM      9  C   UNL     1      -4.101   1.536   3.039  0.00  0.00    +0.028 C 
ATOM     10  C   UNL     1      -3.445   1.935   4.293  0.00  0.00    +0.071 A 
ATOM     11  C   UNL     1      -2.455   1.133   4.848  0.00  0.00    -0.001 A 
ATOM     12  C   UNL     1      -2.045   1.724   6.026  0.00  0.00    +0.139 A 
ATOM     13  N   UNL     1      -2.713   2.845   6.184  0.00  0.00    -0.174 NA
ATOM     14  N   UNL     1      -3.582   3.013   5.092  0.00  0.00    -0.228 N 
ATOM     15  C   UNL     1      -1.980  -0.120   4.157  0.00  0.00    +0.050 C 
ATOM     16  C   UNL     1      -3.128  -0.744   3.371  0.00  0.00    -0.001 C 
ATOM     17  C   UNL     1      -2.635  -1.809   2.397  0.00  0.00    +0.031 C 
ATOM     18  C   UNL     1      -1.412  -2.554   2.917  0.00  0.00    +0.119 C 
ATOM     19  C   UNL     1      -0.101  -1.772   2.837  0.00  0.00    +0.041 C 
ATOM     20  C   UNL     1       0.082  -1.146   1.478  0.00  0.00    +0.009 C 
ATOM     21  C   UNL     1       1.183  -0.083   1.357  0.00  0.00    +0.134 C 
ATOM     22  C   UNL     1       0.381  -2.237   0.445  0.00  0.00    +0.015 C 
ATOM     23  C   UNL     1      -4.087  -1.412   4.376  0.00  0.00    +0.016 C 
ENDROOT
BRANCH  14  24
ATOM     24  C   UNL     1      -4.433   4.106   4.876  0.00  0.00    +0.120 A 
ATOM     25  C   UNL     1      -5.764   3.906   4.524  0.00  0.00    +0.034 A 
ATOM     26  C   UNL     1      -6.567   5.017   4.321  0.00  0.00    +0.022 A 
ATOM     27  C   UNL     1      -6.025   6.279   4.474  0.00  0.00    +0.114 A 
ATOM     28  N   UNL     1      -4.759   6.438   4.809  0.00  0.00    -0.226 NA
ATOM     29  C   UNL     1      -3.961   5.407   5.017  0.00  0.00    +0.239 A 
ATOM     30  F   UNL     1      -2.673   5.618   5.365  0.00  0.00    -0.182 F 
ENDBRANCH  14  24
BRANCH  21  31
ATOM     31  C   UNL     1       2.509  -0.743   1.087  0.00  0.00    +0.190 C 
ATOM     32  O   UNL     1       2.841  -0.988  -0.048  0.00  0.00    -0.292 OA
BRANCH  31  33
ATOM     33  C   UNL     1       3.422  -1.096   2.232  0.00  0.00    +0.233 C 
BRANCH  33  34
ATOM     34  O   UNL     1       4.610  -1.707   1.724  0.00  0.00    -0.387 OA
ATOM     35  H   UNL     1       5.245  -1.962   2.407  0.00  0.00    +0.210 HD
ENDBRANCH  33  34
ENDBRANCH  31  33
ENDBRANCH  21  31
BRANCH  21  36
ATOM     36  O   UNL     1       1.244   0.708   2.542  0.00  0.00    -0.380 OA
ATOM     37  H   UNL     1       1.884   1.430   2.500  0.00  0.00    +0.211 HD
ENDBRANCH  21  36
BRANCH  18  38
ATOM     38  O   UNL     1      -1.622  -3.004   4.259  0.00  0.00    -0.391 OA
ATOM     39  H   UNL     1      -0.872  -3.484   4.635  0.00  0.00    +0.210 HD
ENDBRANCH  18  38
TORSDOF 6
