REMARK  Name = ZINC11972444
REMARK  10 active torsions:
REMARK  status: ('A' for Active; 'I' for Inactive)
REMARK    1  A    between atoms: C_1  and  C_2
REMARK    2  A    between atoms: C_2  and  C_3
REMARK    3  A    between atoms: C_2  and  C_4
REMARK    4  A    between atoms: C_4  and  C_5
REMARK    5  A    between atoms: C_5  and  C_19
REMARK    6  A    between atoms: N_8  and  C_12
REMARK    7  A    between atoms: C_12  and  C_13
REMARK    8  A    between atoms: C_13  and  C_14
REMARK    9  A    between atoms: C_24  and  C_25
REMARK   10  A    between atoms: C_24  and  N_70
REMARK                            x       y       z     vdW  Elec       q    Type
REMARK                         _______ _______ _______ _____ _____    ______ ____
ROOT
ATOM      1  C   UNL     1      -5.825  -1.023   5.221  0.00  0.00    +0.115 C 
ATOM      2  C   UNL     1      -4.921  -2.134   5.717  0.00  0.00    +0.247 C 
ATOM      3  O   UNL     1      -3.727  -2.071   5.920  0.00  0.00    -0.273 OA
ATOM      4  N   UNL     1      -5.720  -3.206   5.886  0.00  0.00    -0.224 N 
ATOM      5  C   UNL     1      -6.990  -2.930   5.569  0.00  0.00    +0.309 C 
ATOM      6  O   UNL     1      -7.895  -3.738   5.641  0.00  0.00    -0.252 OA
ATOM      7  N   UNL     1      -7.153  -1.658   5.163  0.00  0.00    -0.285 N 
ATOM      8  H   UNL     1      -7.983  -1.240   4.886  0.00  0.00    +0.151 HD
ENDROOT
BRANCH   1   9
ATOM      9  C   UNL     1      -5.390  -0.556   3.830  0.00  0.00    +0.018 C 
ATOM     10  C   UNL     1      -5.327  -1.758   2.883  0.00  0.00    -0.013 C 
ATOM     11  C   UNL     1      -4.834  -1.294   1.511  0.00  0.00    -0.078 C 
ATOM     12  C   UNL     1      -3.549   0.499   2.514  0.00  0.00    -0.078 C 
ATOM     13  C   UNL     1      -4.004   0.089   3.917  0.00  0.00    -0.013 C 
ATOM     14  N   UNL     1      -3.486  -0.705   1.659  0.00  0.00    +0.382 N 
ATOM     15  H   UNL     1      -2.868  -1.396   2.102  0.00  0.00    -0.081 HD
BRANCH  14  16
ATOM     16  C   UNL     1      -2.940  -0.354   0.332  0.00  0.00    -0.043 C 
BRANCH  16  17
ATOM     17  C   UNL     1      -1.700   0.483   0.514  0.00  0.00    -0.060 A 
ATOM     18  C   UNL     1      -1.799   1.861   0.563  0.00  0.00    +0.005 A 
ATOM     19  C   UNL     1      -0.664   2.633   0.725  0.00  0.00    +0.049 A 
ATOM     20  C   UNL     1       0.578   2.026   0.847  0.00  0.00    +0.162 A 
ATOM     21  C   UNL     1       0.676   0.640   0.801  0.00  0.00    +0.162 A 
ATOM     22  C   UNL     1      -0.466  -0.128   0.633  0.00  0.00    +0.051 A 
ATOM     23  O   UNL     1       1.884   0.024   0.919  0.00  0.00    -0.485 OA
ATOM     24  C   UNL     1       3.044   0.836   0.709  0.00  0.00    +0.270 C 
ATOM     25  C   UNL     1       2.863   2.143   1.492  0.00  0.00    +0.270 C 
ATOM     26  O   UNL     1       1.687   2.798   1.005  0.00  0.00    -0.485 OA
ENDBRANCH  16  17
ENDBRANCH  14  16
ENDBRANCH   1   9
BRANCH   1  27
ATOM     27  C   UNL     1      -5.827   0.149   6.204  0.00  0.00    +0.038 C 
BRANCH  27  29
ATOM     28  C   UNL     1      -5.995   0.764   8.620  0.00  0.00    +0.007 C 
ATOM     29  C   UNL     1      -6.201  -0.357   7.599  0.00  0.00    -0.015 C 
ATOM     30  C   UNL     1      -7.668  -0.791   7.607  0.00  0.00    +0.007 C 
ENDBRANCH  27  29
ENDBRANCH   1  27
BRANCH   4  31
ATOM     31  C   UNL     1      -5.255  -4.512   6.360  0.00  0.00    +0.123 C 
BRANCH  31  32
ATOM     32  C   UNL     1      -5.346  -4.564   7.886  0.00  0.00    +0.062 C 
BRANCH  32  33
ATOM     33  C   UNL     1      -4.868  -5.907   8.373  0.00  0.00    -0.009 A 
ATOM     34  C   UNL     1      -3.616  -6.293   8.720  0.00  0.00    +0.011 A 
ATOM     35  C   UNL     1      -3.409  -7.593   9.144  0.00  0.00    +0.008 A 
ATOM     36  C   UNL     1      -4.463  -8.442   9.201  0.00  0.00    +0.045 A 
ATOM     37  S   UNL     1      -5.805  -7.401   8.650  0.00  0.00    -0.102 S 
ENDBRANCH  32  33
ENDBRANCH  31  32
ENDBRANCH   4  31
TORSDOF 8
