REMARK  Name = ZINC09076067
REMARK  11 active torsions:
REMARK  status: ('A' for Active; 'I' for Inactive)
REMARK    1  A    between atoms: C_1  and  C_2
REMARK    2  A    between atoms: C_2  and  C_32
REMARK    3  A    between atoms: N_3  and  O_4
REMARK    4  A    between atoms: O_4  and  C_5
REMARK    5  A    between atoms: C_5  and  C_6
REMARK    6  A    between atoms: N_8  and  N_9
REMARK    7  A    between atoms: N_17  and  C_20
REMARK    8  A    between atoms: C_20  and  N_69
REMARK    9  A    between atoms: C_22  and  C_31
REMARK   10  A    between atoms: C_27  and  C_29
REMARK   11  A    between atoms: C_27  and  C_30
REMARK                            x       y       z     vdW  Elec       q    Type
REMARK                         _______ _______ _______ _____ _____    ______ ____
ROOT
ATOM      1  N   UNL     1       5.614   1.544   4.511  0.00  0.00    -0.174 NA
ATOM      2  C   UNL     1       6.381   1.736   5.557  0.00  0.00    +0.153 C 
ATOM      3  C   UNL     1       7.844   1.526   5.654  0.00  0.00    +0.028 A 
ATOM      4  C   UNL     1       8.808   1.105   4.745  0.00  0.00    +0.012 A 
ATOM      5  C   UNL     1      10.128   1.013   5.139  0.00  0.00    +0.001 A 
ATOM      6  C   UNL     1      10.490   1.345   6.434  0.00  0.00    +0.002 A 
ATOM      7  C   UNL     1       9.541   1.770   7.342  0.00  0.00    +0.024 A 
ATOM      8  C   UNL     1       8.207   1.869   6.963  0.00  0.00    +0.044 A 
ATOM      9  N   UNL     1       7.074   2.261   7.667  0.00  0.00    -0.282 N 
ATOM     10  C   UNL     1       5.973   2.204   6.897  0.00  0.00    +0.270 C 
ATOM     11  O   UNL     1       4.842   2.488   7.244  0.00  0.00    -0.268 OA
ENDROOT
BRANCH   1  14
ATOM     12  C   UNL     1       3.450   1.591   3.522  0.00  0.00    +0.272 C 
ATOM     13  O   UNL     1       3.932   1.201   2.480  0.00  0.00    -0.270 OA
ATOM     14  N   UNL     1       4.238   1.789   4.597  0.00  0.00    -0.203 N 
ATOM     15  H   UNL     1       3.852   2.102   5.430  0.00  0.00    +0.177 HD
BRANCH  12  16
ATOM     16  C   UNL     1       1.969   1.855   3.614  0.00  0.00    +0.359 C 
BRANCH  16  17
ATOM     17  O   UNL     1       1.356   1.574   2.354  0.00  0.00    -0.384 OA
BRANCH  17  20
ATOM     18  C   UNL     1      -0.013   1.086   0.008  0.00  0.00    +0.070 C 
ATOM     19  C   UNL     1      -0.718   1.572   1.248  0.00  0.00    +0.091 C 
ATOM     20  N   UNL     1      -0.043   1.791   2.334  0.00  0.00    -0.088 NA
BRANCH  19  21
ATOM     21  C   UNL     1      -2.168   1.797   1.227  0.00  0.00    +0.036 A 
ATOM     22  C   UNL     1      -2.998   2.236   2.244  0.00  0.00    +0.017 A 
ATOM     23  C   UNL     1      -4.340   2.370   1.980  0.00  0.00    +0.008 A 
ATOM     24  C   UNL     1      -4.807   2.071   0.739  0.00  0.00    +0.046 A 
ATOM     25  S   UNL     1      -3.320   1.583  -0.120  0.00  0.00    -0.095 S 
ENDBRANCH  19  21
ENDBRANCH  17  20
ENDBRANCH  16  17
ENDBRANCH  12  16
ENDBRANCH   1  14
BRANCH   9  26
ATOM     26  C   UNL     1       7.079   2.683   9.070  0.00  0.00    +0.039 C 
BRANCH  26  37
ATOM     27  C   UNL     1       5.474   1.088  10.016  0.00  0.00    -0.070 C 
ATOM     28  C   UNL     1       5.247   0.671  11.489  0.00  0.00    -0.048 C 
ATOM     29  C   UNL     1       6.686   0.484  12.044  0.00  0.00    -0.011 C 
ATOM     30  C   UNL     1       7.402   1.642  11.292  0.00  0.00    -0.065 C 
ATOM     31  C   UNL     1       6.981   2.942  11.958  0.00  0.00    -0.009 C 
ATOM     32  C   UNL     1       5.512   3.092  12.288  0.00  0.00    -0.036 C 
ATOM     33  C   UNL     1       4.636   1.859  12.231  0.00  0.00    +0.011 C 
ATOM     34  C   UNL     1       4.902   4.178  11.380  0.00  0.00    +0.011 C 
ATOM     35  C   UNL     1       5.424   3.648  13.733  0.00  0.00    +0.011 C 
ATOM     36  C   UNL     1       4.402  -0.605  11.610  0.00  0.00    +0.009 C 
ATOM     37  N   UNL     1       6.886   1.457   9.917  0.00  0.00    +0.393 N 
ATOM     38  H   UNL     1       7.399   0.685   9.476  0.00  0.00    -0.079 HD
ENDBRANCH  26  37
ENDBRANCH   9  26
TORSDOF 7
