REMARK  Name = ZINC04438331
REMARK  6 active torsions:
REMARK  status: ('A' for Active; 'I' for Inactive)
REMARK    1  A    between atoms: N_9  and  C_22
REMARK    2  A    between atoms: C_10  and  C_12
REMARK    3  A    between atoms: C_13  and  C_14
REMARK    4  A    between atoms: C_19  and  O_20
REMARK    5  A    between atoms: C_22  and  C_23
REMARK    6  A    between atoms: C_23  and  O_24
REMARK                            x       y       z     vdW  Elec       q    Type
REMARK                         _______ _______ _______ _____ _____    ______ ____
ROOT
ATOM      1  C   UNL     1      -4.745   2.811  -3.949  0.00  0.00    +0.001 A 
ATOM      2  C   UNL     1      -4.637   1.911  -5.002  0.00  0.00    +0.002 A 
ATOM      3  C   UNL     1      -3.940   0.745  -4.861  0.00  0.00    +0.028 A 
ATOM      4  C   UNL     1      -3.324   0.446  -3.641  0.00  0.00    +0.078 A 
ATOM      5  C   UNL     1      -3.433   1.361  -2.569  0.00  0.00    +0.065 A 
ATOM      6  C   UNL     1      -4.149   2.545  -2.735  0.00  0.00    +0.015 A 
ATOM      7  C   UNL     1      -2.782   1.022  -1.295  0.00  0.00    +0.262 A 
ATOM      8  O   UNL     1      -2.846   1.768  -0.335  0.00  0.00    -0.267 OA
ATOM      9  N   UNL     1      -2.105  -0.148  -1.230  0.00  0.00    -0.291 N 
ATOM     10  C   UNL     1      -2.050  -0.978  -2.322  0.00  0.00    +0.137 A 
ATOM     11  N   UNL     1      -2.629  -0.694  -3.465  0.00  0.00    -0.229 NA
ENDROOT
BRANCH  10  12
ATOM     12  C   UNL     1      -1.312  -2.236  -2.206  0.00  0.00    +0.047 C 
ATOM     13  C   UNL     1      -1.238  -3.075  -3.260  0.00  0.00    +0.015 C 
BRANCH  13  14
ATOM     14  C   UNL     1      -0.496  -4.339  -3.144  0.00  0.00    +0.018 A 
ATOM     15  C   UNL     1       0.135  -4.676  -1.942  0.00  0.00    +0.026 A 
ATOM     16  C   UNL     1       0.829  -5.864  -1.841  0.00  0.00    +0.019 A 
ATOM     17  C   UNL     1       0.904  -6.724  -2.925  0.00  0.00    +0.019 A 
ATOM     18  C   UNL     1       0.284  -6.403  -4.117  0.00  0.00    +0.047 A 
ATOM     19  C   UNL     1      -0.421  -5.216  -4.237  0.00  0.00    +0.124 A 
ATOM     20 BR   UNL     1       1.681  -6.320  -0.216  0.00  0.00    -0.050 Br
BRANCH  19  21
ATOM     21  O   UNL     1      -1.034  -4.902  -5.407  0.00  0.00    -0.506 OA
ATOM     22  H   UNL     1      -0.477  -4.406  -6.021  0.00  0.00    +0.292 HD
ENDBRANCH  19  21
ENDBRANCH  13  14
ENDBRANCH  10  12
BRANCH   9  23
ATOM     23  C   UNL     1      -1.433  -0.534   0.013  0.00  0.00    +0.154 C 
BRANCH  23  24
ATOM     24  C   UNL     1       0.002  -0.004   0.002  0.00  0.00    +0.177 C 
BRANCH  24  25
ATOM     25  O   UNL     1      -0.017   1.425   0.010  0.00  0.00    -0.393 OA
ATOM     26  H   UNL     1       0.861   1.830   0.004  0.00  0.00    +0.209 HD
ENDBRANCH  24  25
ENDBRANCH  23  24
ENDBRANCH   9  23
TORSDOF 6
