REMARK  Name = ZINC04210478
REMARK  7 active torsions:
REMARK  status: ('A' for Active; 'I' for Inactive)
REMARK    1  A    between atoms: C_4  and  C_7
REMARK    2  A    between atoms: C_8  and  C_9
REMARK    3  A    between atoms: C_9  and  O_11
REMARK    4  A    between atoms: O_11  and  C_12
REMARK    5  A    between atoms: C_15  and  C_18
REMARK    6  A    between atoms: N_19  and  N_20
REMARK    7  A    between atoms: C_21  and  C_23
REMARK                            x       y       z     vdW  Elec       q    Type
REMARK                         _______ _______ _______ _____ _____    ______ ____
ROOT
ATOM      1  C   UNL     1       6.309  13.057   0.005  0.00  0.00    +0.132 A 
ATOM      2  C   UNL     1       4.968  13.405  -0.082  0.00  0.00    +0.047 A 
ATOM      3  C   UNL     1       3.998  12.425  -0.085  0.00  0.00    +0.013 A 
ATOM      4  C   UNL     1       4.367  11.080  -0.001  0.00  0.00    -0.005 A 
ATOM      5  C   UNL     1       5.718  10.735   0.092  0.00  0.00    +0.013 A 
ATOM      6  C   UNL     1       6.681  11.721   0.089  0.00  0.00    +0.047 A 
ENDROOT
BRANCH   4   7
ATOM      7  C   UNL     1       3.334  10.028  -0.004  0.00  0.00    +0.138 C 
ATOM      8  N   UNL     1       3.679   8.779   0.074  0.00  0.00    -0.187 NA
BRANCH   8   9
ATOM      9  N   UNL     1       2.697   7.780   0.071  0.00  0.00    -0.202 N 
ATOM     10  C   UNL     1       3.056   6.483   0.153  0.00  0.00    +0.271 C 
ATOM     11  O   UNL     1       4.232   6.180   0.228  0.00  0.00    -0.268 OA
ATOM     12  H   UNL     1       1.760   8.021   0.011  0.00  0.00    +0.178 HD
BRANCH  10  13
ATOM     13  C   UNL     1       2.027   5.436   0.150  0.00  0.00    +0.095 A 
ATOM     14  C   UNL     1       2.190   4.086   0.223  0.00  0.00    +0.068 A 
ATOM     15  C   UNL     1       1.064   3.242   0.205  0.00  0.00    +0.008 A 
ATOM     16  C   UNL     1       1.027   1.826   0.272  0.00  0.00    +0.010 A 
ATOM     17  C   UNL     1      -0.155   1.159   0.243  0.00  0.00    +0.001 A 
ATOM     18  C   UNL     1      -1.368   1.831   0.142  0.00  0.00    +0.001 A 
ATOM     19  C   UNL     1      -1.378   3.209   0.080  0.00  0.00    +0.016 A 
ATOM     20  C   UNL     1      -0.185   3.900   0.109  0.00  0.00    +0.021 A 
ATOM     21  S   UNL     1       0.255   5.619   0.049  0.00  0.00    -0.082 S 
ATOM     22 CL   UNL     1       3.784   3.408   0.338  0.00  0.00    -0.082 Cl
ENDBRANCH  10  13
ENDBRANCH   8   9
ENDBRANCH   4   7
BRANCH   1  23
ATOM     23  O   UNL     1       7.261  14.026   0.008  0.00  0.00    -0.423 OA
BRANCH  23  24
ATOM     24  C   UNL     1       7.348  14.825   1.092  0.00  0.00    +0.337 C 
ATOM     25  O   UNL     1       6.659  14.601   2.069  0.00  0.00    -0.245 OA
BRANCH  24  27
ATOM     26  C   UNL     1       8.356  16.759   2.175  0.00  0.00    +0.015 C 
ATOM     27  C   UNL     1       8.270  15.960   1.091  0.00  0.00    +0.092 C 
BRANCH  26  31
ATOM     28  C   UNL     1      11.032  20.051   2.174  0.00  0.00    +0.000 A 
ATOM     29  C   UNL     1      10.249  19.801   3.287  0.00  0.00    +0.001 A 
ATOM     30  C   UNL     1       9.377  18.733   3.296  0.00  0.00    +0.008 A 
ATOM     31  C   UNL     1       9.284  17.902   2.174  0.00  0.00    -0.025 A 
ATOM     32  C   UNL     1      10.082  18.159   1.055  0.00  0.00    +0.008 A 
ATOM     33  C   UNL     1      10.946  19.233   1.060  0.00  0.00    +0.001 A 
ENDBRANCH  26  31
ENDBRANCH  24  27
ENDBRANCH  23  24
ENDBRANCH   1  23
TORSDOF 7
