REMARK  Name = ZINC01031261
REMARK  12 active torsions:
REMARK  status: ('A' for Active; 'I' for Inactive)
REMARK    1  A    between atoms: C_1  and  C_2
REMARK    2  A    between atoms: C_2  and  C_3
REMARK    3  A    between atoms: C_2  and  C_4
REMARK    4  A    between atoms: C_8  and  C_27
REMARK    5  A    between atoms: C_9  and  N_10
REMARK    6  A    between atoms: C_14  and  C_16
REMARK    7  A    between atoms: C_17  and  O_25
REMARK    8  A    between atoms: C_21  and  O_22
REMARK    9  A    between atoms: O_22  and  C_23
REMARK   10  A    between atoms: O_25  and  C_26
REMARK   11  A    between atoms: C_27  and  C_28
REMARK   12  A    between atoms: C_27  and  C_29
REMARK                            x       y       z     vdW  Elec       q    Type
REMARK                         _______ _______ _______ _____ _____    ______ ____
ROOT
ATOM      1  N   UNL     1       1.152   1.927   0.125  0.00  0.00    -0.269 N 
ATOM      2  C   UNL     1       0.150   1.497  -0.667  0.00  0.00    +0.310 C 
ATOM      3  O   UNL     1       0.322   0.544  -1.402  0.00  0.00    -0.252 OA
ATOM      4  N   UNL     1      -1.042   2.127  -0.648  0.00  0.00    -0.236 N 
ATOM      5  C   UNL     1      -2.042   1.701  -1.445  0.00  0.00    +0.259 C 
ATOM      6  O   UNL     1      -1.870   0.748  -2.179  0.00  0.00    -0.269 OA
ATOM      7  H   UNL     1       1.030   2.716   0.676  0.00  0.00    +0.156 HD
ATOM      8  H   UNL     1      -1.179   2.888  -0.062  0.00  0.00    +0.159 HD
ENDROOT
BRANCH   5   9
ATOM      9  C   UNL     1      -3.342   2.389  -1.425  0.00  0.00    +0.121 A 
ATOM     10  C   UNL     1      -3.584   3.468  -2.288  0.00  0.00    +0.136 A 
ATOM     11  C   UNL     1      -4.813   4.106  -2.264  0.00  0.00    +0.048 A 
ATOM     12  C   UNL     1      -5.797   3.689  -1.386  0.00  0.00    +0.022 A 
ATOM     13  C   UNL     1      -5.568   2.631  -0.527  0.00  0.00    +0.060 A 
ATOM     14  C   UNL     1      -4.347   1.975  -0.538  0.00  0.00    +0.150 A 
ATOM     15 BR   UNL     1      -6.926   2.075   0.666  0.00  0.00    -0.046 Br
BRANCH  14  16
ATOM     16  O   UNL     1      -4.125   0.936   0.306  0.00  0.00    -0.493 OA
ATOM     17  C   UNL     1      -3.576   1.248   1.589  0.00  0.00    +0.277 C 
ENDBRANCH  14  16
BRANCH  10  18
ATOM     18  O   UNL     1      -2.619   3.882  -3.147  0.00  0.00    -0.494 OA
ATOM     19  C   UNL     1      -2.937   4.987  -3.996  0.00  0.00    +0.277 C 
ENDBRANCH  10  18
ENDBRANCH   5   9
BRANCH   1  25
ATOM     20  C   UNL     1       2.384  -0.132   0.402  0.00  0.00    -0.023 A 
ATOM     21  C   UNL     1       3.586  -0.814   0.424  0.00  0.00    +0.006 A 
ATOM     22  C   UNL     1       4.771  -0.135   0.209  0.00  0.00    +0.001 A 
ATOM     23  C   UNL     1       4.758   1.226  -0.033  0.00  0.00    +0.006 A 
ATOM     24  C   UNL     1       3.560   1.913  -0.062  0.00  0.00    -0.023 A 
ATOM     25  C   UNL     1       2.368   1.234   0.153  0.00  0.00    +0.042 A 
BRANCH  20  27
ATOM     26  C   UNL     1       1.018  -2.083  -0.290  0.00  0.00    +0.012 C 
ATOM     27  C   UNL     1       1.093  -0.871   0.642  0.00  0.00    +0.015 C 
ATOM     28  C   UNL     1       1.038  -1.342   2.096  0.00  0.00    +0.012 C 
ENDBRANCH  20  27
BRANCH  24  29
ATOM     29  C   UNL     1       3.547   3.396  -0.325  0.00  0.00    +0.015 C 
ATOM     30  C   UNL     1       4.358   4.113   0.756  0.00  0.00    +0.012 C 
ATOM     31  C   UNL     1       4.165   3.676  -1.696  0.00  0.00    +0.012 C 
ENDBRANCH  24  29
ENDBRANCH   1  25
TORSDOF 6
