REMARK  Name = ZINC34748211
REMARK  6 active torsions:
REMARK  status: ('A' for Active; 'I' for Inactive)
REMARK    1  A    between atoms: C_1  and  C_2
REMARK    2  A    between atoms: C_2  and  C_3
REMARK    3  A    between atoms: C_3  and  N_4
REMARK    4  A    between atoms: N_17  and  C_20
REMARK    5  A    between atoms: C_20  and  C_21
REMARK    6  A    between atoms: N_23  and  C_24
REMARK                            x       y       z     vdW  Elec       q    Type
REMARK                         _______ _______ _______ _____ _____    ______ ____
ROOT
ATOM      1  N   UNL     1       0.684  -2.929  -0.106  0.00  0.00    -0.280 N 
ATOM      2  C   UNL     1      -0.365  -3.546   0.470  0.00  0.00    +0.264 A 
ATOM      3  O   UNL     1      -1.377  -3.775  -0.169  0.00  0.00    -0.267 OA
ATOM      4  C   UNL     1      -0.272  -3.929   1.845  0.00  0.00    +0.076 A 
ATOM      5  C   UNL     1      -1.288  -4.607   2.668  0.00  0.00    -0.023 A 
ATOM      6  C   UNL     1      -0.964  -4.861   3.945  0.00  0.00    -0.004 A 
ATOM      7  S   UNL     1       0.688  -4.230   4.136  0.00  0.00    -0.073 S 
ATOM      8  C   UNL     1       0.934  -3.620   2.490  0.00  0.00    +0.117 A 
ATOM      9  N   UNL     1       1.933  -3.008   1.863  0.00  0.00    -0.208 NA
ATOM     10  C   UNL     1       1.825  -2.671   0.594  0.00  0.00    +0.202 A 
ATOM     11  N   UNL     1       2.875  -2.045  -0.031  0.00  0.00    -0.304 N 
ATOM     12  C   UNL     1       3.043  -0.586   0.051  0.00  0.00    +0.089 C 
ATOM     13  C   UNL     1       4.484  -0.286   0.478  0.00  0.00    -0.059 C 
ATOM     14  N   UNL     1       5.415  -0.953  -0.441  0.00  0.00    +0.387 N 
ATOM     15  C   UNL     1       5.266  -2.409  -0.334  0.00  0.00    -0.059 C 
ATOM     16  C   UNL     1       3.867  -2.815  -0.797  0.00  0.00    +0.089 C 
ATOM     17  C   UNL     1      -2.077  -5.550   4.688  0.00  0.00    +0.043 C 
ATOM     18  C   UNL     1      -3.329  -5.315   3.815  0.00  0.00    +0.010 C 
ATOM     19  C   UNL     1      -2.706  -5.129   2.418  0.00  0.00    +0.037 C 
ATOM     20  H   UNL     1       5.216  -0.664  -1.387  0.00  0.00    -0.081 HD
ENDROOT
BRANCH   1  21
ATOM     21  C   UNL     1       0.600  -2.534  -1.514  0.00  0.00    +0.128 C 
BRANCH  21  23
ATOM     22  C   UNL     1       1.110  -3.225  -3.861  0.00  0.00    +0.005 C 
ATOM     23  C   UNL     1       1.198  -3.637  -2.390  0.00  0.00    +0.018 C 
ENDBRANCH  21  23
ENDBRANCH   1  21
BRANCH  14  24
ATOM     24  C   UNL     1       6.793  -0.577  -0.098  0.00  0.00    +0.019 C 
BRANCH  24  25
ATOM     25  C   UNL     1       7.740  -1.160  -1.114  0.00  0.00    +0.201 C 
ATOM     26  O   UNL     1       7.311  -1.824  -2.033  0.00  0.00    -0.278 OA
ATOM     27  N   UNL     1       9.066  -0.944  -1.000  0.00  0.00    -0.287 N 
ATOM     28  H   UNL     1       9.418  -0.486  -0.221  0.00  0.00    +0.155 HD
BRANCH  27  29
ATOM     29  C   UNL     1       9.932  -1.380  -2.005  0.00  0.00    +0.041 A 
ATOM     30  C   UNL     1       9.473  -1.553  -3.292  0.00  0.00    +0.024 A 
ATOM     31  C   UNL     1      10.329  -1.987  -4.301  0.00  0.00    +0.002 A 
ATOM     32  C   UNL     1      11.640  -2.251  -4.045  0.00  0.00    +0.008 A 
ATOM     33  C   UNL     1      12.148  -2.086  -2.745  0.00  0.00    -0.016 A 
ATOM     34  C   UNL     1      11.288  -1.641  -1.712  0.00  0.00    +0.003 A 
ATOM     35  C   UNL     1      11.798  -1.472  -0.415  0.00  0.00    +0.010 A 
ATOM     36  C   UNL     1      13.111  -1.734  -0.168  0.00  0.00    +0.001 A 
ATOM     37  C   UNL     1      13.960  -2.167  -1.186  0.00  0.00    +0.001 A 
ATOM     38  C   UNL     1      13.497  -2.352  -2.452  0.00  0.00    +0.008 A 
ENDBRANCH  27  29
ENDBRANCH  24  25
ENDBRANCH  14  24
TORSDOF 5
