REMARK  Name = ZINC32655168
REMARK  12 active torsions:
REMARK  status: ('A' for Active; 'I' for Inactive)
REMARK    1  A    between atoms: C_1  and  C_2
REMARK    2  A    between atoms: C_2  and  S_3
REMARK    3  A    between atoms: S_3  and  C_4
REMARK    4  A    between atoms: C_15  and  C_17
REMARK    5  A    between atoms: C_20  and  O_27
REMARK    6  A    between atoms: C_21  and  O_25
REMARK    7  A    between atoms: C_22  and  O_23
REMARK    8  A    between atoms: O_23  and  C_24
REMARK    9  A    between atoms: O_25  and  C_26
REMARK   10  A    between atoms: O_27  and  C_28
REMARK   11  A    between atoms: C_32  and  C_34
REMARK   12  A    between atoms: C_32  and  C_35
REMARK                            x       y       z     vdW  Elec       q    Type
REMARK                         _______ _______ _______ _____ _____    ______ ____
ROOT
ATOM      1  C   UNL     1      -1.981   0.705   3.272  0.00  0.00    +0.171 A 
ATOM      2  N   UNL     1      -1.153  -0.275   2.813  0.00  0.00    -0.302 N 
ATOM      3  H   UNL     1      -0.989  -1.182   3.414  0.00  0.00    +0.171 HD
ATOM      4  C   UNL     1      -0.533  -0.135   1.623  0.00  0.00    +0.258 A 
ATOM      5  O   UNL     1       0.213  -1.006   1.204  0.00  0.00    -0.267 OA
ATOM      6  C   UNL     1      -0.760   1.028   0.877  0.00  0.00    +0.069 A 
ATOM      7  C   UNL     1      -1.615   1.990   1.386  0.00  0.00    +0.135 A 
ATOM      8  N   UNL     1      -2.200   1.801   2.574  0.00  0.00    -0.208 NA
ATOM      9  N   UNL     1      -1.860   3.139   0.659  0.00  0.00    -0.302 N 
ATOM     10  C   UNL     1      -1.613   3.177  -0.686  0.00  0.00    +0.017 C 
ATOM     11  C   UNL     1      -0.785   2.283  -1.264  0.00  0.00    +0.024 C 
ATOM     12  C   UNL     1      -0.089   1.222  -0.449  0.00  0.00    +0.096 C 
ATOM     13  C   UNL     1      -0.540   2.312  -2.649  0.00  0.00    +0.162 C 
ATOM     14  O   UNL     1       0.221   1.500  -3.137  0.00  0.00    -0.292 OA
ATOM     15  C   UNL     1      -1.203   3.328  -3.538  0.00  0.00    +0.086 C 
ATOM     16  C   UNL     1      -2.547   3.729  -2.921  0.00  0.00    -0.023 C 
ATOM     17  C   UNL     1      -2.293   4.248  -1.504  0.00  0.00    +0.058 C 
ATOM     18  C   UNL     1      -3.472   2.511  -2.865  0.00  0.00    +0.011 C 
ATOM     19  C   UNL     1      -3.195   4.829  -3.764  0.00  0.00    +0.011 C 
ATOM     20  H   UNL     1      -2.258   4.033   1.162  0.00  0.00    +0.153 HD
ENDROOT
BRANCH  12  21
ATOM     21  C   UNL     1       1.343   1.634  -0.222  0.00  0.00    +0.010 A 
ATOM     22  C   UNL     1       2.366   0.737  -0.463  0.00  0.00    +0.012 A 
ATOM     23  C   UNL     1       3.681   1.110  -0.257  0.00  0.00    +0.050 A 
ATOM     24  C   UNL     1       3.978   2.388   0.193  0.00  0.00    +0.165 A 
ATOM     25  C   UNL     1       2.952   3.293   0.436  0.00  0.00    +0.204 A 
ATOM     26  C   UNL     1       1.632   2.915   0.222  0.00  0.00    +0.169 A 
BRANCH  26  27
ATOM     27  O   UNL     1       0.625   3.799   0.454  0.00  0.00    -0.491 OA
ATOM     28  C   UNL     1       0.296   4.066   1.819  0.00  0.00    +0.277 C 
ENDBRANCH  26  27
BRANCH  25  29
ATOM     29  O   UNL     1       3.240   4.548   0.878  0.00  0.00    -0.488 OA
ATOM     30  C   UNL     1       3.450   5.553  -0.116  0.00  0.00    +0.277 C 
ENDBRANCH  25  29
BRANCH  24  31
ATOM     31  O   UNL     1       5.272   2.755   0.396  0.00  0.00    -0.491 OA
ATOM     32  C   UNL     1       6.274   1.773   0.125  0.00  0.00    +0.277 C 
ENDBRANCH  24  31
ENDBRANCH  12  21
BRANCH   1  33
ATOM     33  S   UNL     1      -2.778   0.502   4.830  0.00  0.00    -0.088 S 
BRANCH  33  35
ATOM     34  C   UNL     1      -4.504   2.101   6.218  0.00  0.00    +0.016 C 
ATOM     35  C   UNL     1      -3.710   2.051   4.911  0.00  0.00    +0.074 C 
ENDBRANCH  33  35
ENDBRANCH   1  33
TORSDOF 6
