REMARK  Name = ZINC63362104
REMARK  10 active torsions:
REMARK  status: ('A' for Active; 'I' for Inactive)
REMARK    1  A    between atoms: C_1  and  C_2
REMARK    2  A    between atoms: C_2  and  C_3
REMARK    3  A    between atoms: C_3  and  C_4
REMARK    4  A    between atoms: C_4  and  C_5
REMARK    5  A    between atoms: C_5  and  C_6
REMARK    6  A    between atoms: C_6  and  C_8
REMARK    7  A    between atoms: C_6  and  N_9
REMARK    8  A    between atoms: C_10  and  C_12
REMARK    9  A    between atoms: C_16  and  N_18
REMARK   10  A    between atoms: C_21  and  C_37
REMARK                            x       y       z     vdW  Elec       q    Type
REMARK                         _______ _______ _______ _____ _____    ______ ____
ROOT
ATOM      1  N   UNL     1       3.147  -9.216  -2.520  0.00  0.00    -0.192 N 
ATOM      2  C   UNL     1       2.277 -10.111  -2.010  0.00  0.00    +0.253 C 
ATOM      3  O   UNL     1       1.600  -9.987  -1.012  0.00  0.00    -0.272 OA
ATOM      4  C   UNL     1       2.319 -11.303  -2.942  0.00  0.00    +0.137 C 
ATOM      5  C   UNL     1       2.805 -12.546  -2.186  0.00  0.00    +0.139 C 
ATOM      6  C   UNL     1       3.337 -13.510  -3.239  0.00  0.00    -0.034 C 
ATOM      7  C   UNL     1       2.648 -14.638  -3.095  0.00  0.00    -0.001 A 
ATOM      8  C   UNL     1       2.749 -15.939  -3.776  0.00  0.00    +0.010 A 
ATOM      9  C   UNL     1       1.864 -16.892  -3.382  0.00  0.00    +0.001 A 
ATOM     10  C   UNL     1       0.901 -16.684  -2.389  0.00  0.00    +0.002 A 
ATOM     11  C   UNL     1       0.741 -15.522  -1.708  0.00  0.00    +0.026 A 
ATOM     12  C   UNL     1       1.616 -14.445  -2.032  0.00  0.00    +0.043 A 
ATOM     13  N   UNL     1       1.695 -13.236  -1.526  0.00  0.00    -0.375 N 
ATOM     14  C   UNL     1       4.394 -13.134  -4.248  0.00  0.00    +0.052 C 
ATOM     15  C   UNL     1       3.927 -11.834  -4.933  0.00  0.00    +0.115 C 
ATOM     16  N   UNL     1       3.386 -10.942  -3.904  0.00  0.00    -0.268 N 
ATOM     17  C   UNL     1       3.752  -9.686  -3.619  0.00  0.00    +0.316 C 
ATOM     18  O   UNL     1       4.546  -9.046  -4.281  0.00  0.00    -0.252 OA
ATOM     19  C   UNL     1       0.975 -11.534  -3.635  0.00  0.00    +0.044 C 
ATOM     20  H   UNL     1       1.122 -12.861  -0.839  0.00  0.00    +0.160 HD
ENDROOT
BRANCH   1  25
ATOM     21  C   UNL     1       2.861  -6.237  -0.363  0.00  0.00    +0.038 A 
ATOM     22  C   UNL     1       3.871  -5.434  -0.897  0.00  0.00    +0.013 A 
ATOM     23  C   UNL     1       4.627  -5.891  -1.957  0.00  0.00    +0.003 A 
ATOM     24  C   UNL     1       4.388  -7.142  -2.495  0.00  0.00    +0.024 A 
ATOM     25  C   UNL     1       3.385  -7.948  -1.971  0.00  0.00    +0.046 A 
ATOM     26  C   UNL     1       2.624  -7.502  -0.902  0.00  0.00    +0.037 A 
BRANCH  21  28
ATOM     27  N   UNL     1       2.279  -4.529   1.291  0.00  0.00    -0.309 N 
ATOM     28  C   UNL     1       2.049  -5.752   0.772  0.00  0.00    +0.244 C 
ATOM     29  O   UNL     1       1.173  -6.454   1.238  0.00  0.00    -0.270 OA
ATOM     30  H   UNL     1       2.978  -3.968   0.920  0.00  0.00    +0.149 HD
BRANCH  27  31
ATOM     31  C   UNL     1       1.474  -4.048   2.417  0.00  0.00    +0.070 C 
ATOM     32  C   UNL     1       2.075  -4.557   3.728  0.00  0.00    +0.028 C 
BRANCH  31  33
ATOM     33  C   UNL     1       1.465  -2.518   2.420  0.00  0.00    +0.022 C 
BRANCH  33  34
ATOM     34  C   UNL     1       0.752  -2.009   1.165  0.00  0.00    +0.002 C 
BRANCH  34  35
ATOM     35  C   UNL     1       0.743  -0.479   1.168  0.00  0.00    -0.000 C 
BRANCH  35  37
ATOM     36  C   UNL     1       0.021   1.559  -0.083  0.00  0.00    +0.004 C 
ATOM     37  C   UNL     1       0.029   0.029  -0.086  0.00  0.00    -0.003 C 
ENDBRANCH  35  37
ENDBRANCH  34  35
ENDBRANCH  33  34
ENDBRANCH  31  33
ENDBRANCH  27  31
ENDBRANCH  21  28
ENDBRANCH   1  25
TORSDOF 7
