REMARK  Name = ZINC54624418
REMARK  10 active torsions:
REMARK  status: ('A' for Active; 'I' for Inactive)
REMARK    1  A    between atoms: C_1  and  C_2
REMARK    2  A    between atoms: C_2  and  C_3
REMARK    3  A    between atoms: C_2  and  O_4
REMARK    4  A    between atoms: O_4  and  C_5
REMARK    5  A    between atoms: C_9  and  C_11
REMARK    6  A    between atoms: C_16  and  C_20
REMARK    7  A    between atoms: C_16  and  C_21
REMARK    8  A    between atoms: C_26  and  S_28
REMARK    9  A    between atoms: S_28  and  C_29
REMARK   10  A    between atoms: C_29  and  C_30
REMARK                            x       y       z     vdW  Elec       q    Type
REMARK                         _______ _______ _______ _____ _____    ______ ____
ROOT
ATOM      1  C   UNL     1      -4.404  -4.127  -1.111  0.00  0.00    +0.176 C 
ATOM      2  C   UNL     1      -4.432  -5.406  -0.303  0.00  0.00    +0.041 C 
ATOM      3  C   UNL     1      -4.491  -6.622  -0.887  0.00  0.00    +0.020 C 
ATOM      4  C   UNL     1      -4.519  -7.883  -0.055  0.00  0.00    +0.058 C 
ATOM      5  C   UNL     1      -3.747  -7.658   1.246  0.00  0.00    -0.023 C 
ATOM      6  C   UNL     1      -4.391  -6.486   1.994  0.00  0.00    +0.086 C 
ATOM      7  C   UNL     1      -4.394  -5.279   1.097  0.00  0.00    +0.164 C 
ATOM      8  O   UNL     1      -4.363  -4.170   1.593  0.00  0.00    -0.292 OA
ATOM      9  C   UNL     1      -3.814  -8.919   2.110  0.00  0.00    +0.011 C 
ATOM     10  C   UNL     1      -2.287  -7.327   0.929  0.00  0.00    +0.011 C 
ATOM     11  N   UNL     1      -4.533  -6.769  -2.253  0.00  0.00    -0.287 N 
ATOM     12  C   UNL     1      -4.823  -5.651  -3.019  0.00  0.00    +0.219 A 
ATOM     13  N   UNL     1      -4.770  -4.404  -2.494  0.00  0.00    -0.220 N 
ATOM     14  N   UNL     1      -5.122  -3.529  -3.520  0.00  0.00    -0.141 NA
ATOM     15  C   UNL     1      -5.356  -4.267  -4.584  0.00  0.00    +0.211 A 
ATOM     16  N   UNL     1      -5.172  -5.551  -4.272  0.00  0.00    -0.187 NA
ATOM     17  H   UNL     1      -4.365  -7.629  -2.669  0.00  0.00    +0.155 HD
ENDROOT
BRANCH   1  22
ATOM     18  C   UNL     1      -1.538  -1.739  -0.505  0.00  0.00    +0.121 A 
ATOM     19  C   UNL     1      -0.465  -2.469  -0.997  0.00  0.00    +0.045 A 
ATOM     20  C   UNL     1      -0.671  -3.729  -1.522  0.00  0.00    +0.004 A 
ATOM     21  C   UNL     1      -1.945  -4.265  -1.558  0.00  0.00    +0.006 A 
ATOM     22  C   UNL     1      -3.016  -3.541  -1.069  0.00  0.00    -0.015 A 
ATOM     23  C   UNL     1      -2.815  -2.281  -0.538  0.00  0.00    +0.051 A 
BRANCH  18  24
ATOM     24  O   UNL     1      -1.339  -0.499   0.012  0.00  0.00    -0.489 OA
BRANCH  24  26
ATOM     25  C   UNL     1      -1.982   1.168   1.640  0.00  0.00    +0.051 C 
ATOM     26  C   UNL     1      -2.466   0.143   0.612  0.00  0.00    +0.167 C 
ATOM     27  C   UNL     1      -3.283   0.853  -0.469  0.00  0.00    +0.051 C 
ENDBRANCH  24  26
ENDBRANCH  18  24
ENDBRANCH   1  22
BRANCH  15  28
ATOM     28  S   UNL     1      -5.837  -3.658  -6.166  0.00  0.00    -0.080 S 
BRANCH  28  29
ATOM     29  C   UNL     1      -5.999  -5.152  -7.181  0.00  0.00    +0.114 C 
BRANCH  29  30
ATOM     30  C   UNL     1      -6.412  -4.769  -8.579  0.00  0.00    -0.019 A 
ATOM     31  C   UNL     1      -7.753  -4.676  -8.903  0.00  0.00    +0.006 A 
ATOM     32  C   UNL     1      -8.131  -4.324 -10.184  0.00  0.00    +0.000 A 
ATOM     33  C   UNL     1      -7.170  -4.064 -11.143  0.00  0.00    +0.001 A 
ATOM     34  C   UNL     1      -5.829  -4.155 -10.820  0.00  0.00    +0.020 A 
ATOM     35  C   UNL     1      -5.449  -4.503  -9.536  0.00  0.00    +0.045 A 
ATOM     36 CL   UNL     1      -3.765  -4.612  -9.128  0.00  0.00    -0.083 Cl
ENDBRANCH  29  30
ENDBRANCH  28  29
ENDBRANCH  15  28
TORSDOF 6
