REMARK  Name = ZINC08729484
REMARK  7 active torsions:
REMARK  status: ('A' for Active; 'I' for Inactive)
REMARK    1  A    between atoms: C_1  and  O_2
REMARK    2  A    between atoms: O_2  and  C_3
REMARK    3  A    between atoms: C_3  and  C_5
REMARK    4  A    between atoms: C_8  and  C_11
REMARK    5  A    between atoms: C_25  and  C_32
REMARK    6  A    between atoms: C_32  and  O_34
REMARK    7  A    between atoms: O_34  and  C_35
REMARK                            x       y       z     vdW  Elec       q    Type
REMARK                         _______ _______ _______ _____ _____    ______ ____
ROOT
ATOM      1  C   UNL     1       3.610   3.294  -0.763  0.00  0.00    +0.105 C 
ATOM      2  C   UNL     1       2.562   4.352  -0.508  0.00  0.00    +0.025 C 
ATOM      3  C   UNL     1       3.001   5.314   0.633  0.00  0.00    -0.005 C 
ATOM      4  C   UNL     1       3.370   4.408   1.845  0.00  0.00    +0.004 C 
ATOM      5  C   UNL     1       2.034   3.735   2.233  0.00  0.00    +0.004 C 
ATOM      6  C   UNL     1       0.962   4.416   1.331  0.00  0.00    -0.003 C 
ATOM      7  C   UNL     1       1.601   5.838   1.125  0.00  0.00    +0.008 C 
ATOM      8  C   UNL     1       1.187   3.823  -0.095  0.00  0.00    +0.030 C 
ATOM      9  C   UNL     1       1.071   2.335  -0.055  0.00  0.00    -0.007 A 
ATOM     10  C   UNL     1      -0.188   1.723  -0.076  0.00  0.00    +0.064 A 
ATOM     11  C   UNL     1      -0.292   0.330  -0.082  0.00  0.00    +0.017 A 
ATOM     12  C   UNL     1       0.841  -0.454  -0.070  0.00  0.00    +0.022 A 
ATOM     13  C   UNL     1       2.087   0.144  -0.041  0.00  0.00    +0.062 A 
ATOM     14  C   UNL     1       2.201   1.531  -0.021  0.00  0.00    +0.050 A 
ATOM     15  N   UNL     1       3.460   2.111   0.073  0.00  0.00    -0.335 N 
ATOM     16 CL   UNL     1       3.522  -0.835  -0.029  0.00  0.00    -0.082 Cl
ATOM     17  H   UNL     1       3.830   2.157   0.987  0.00  0.00    +0.147 HD
ENDROOT
BRANCH   1  21
ATOM     18  C   UNL     1       3.527   2.186  -4.892  0.00  0.00    +0.059 A 
ATOM     19  C   UNL     1       2.477   1.823  -4.048  0.00  0.00    +0.015 A 
ATOM     20  C   UNL     1       2.510   2.183  -2.716  0.00  0.00    +0.006 A 
ATOM     21  C   UNL     1       3.581   2.903  -2.218  0.00  0.00    -0.027 A 
ATOM     22  C   UNL     1       4.623   3.271  -3.051  0.00  0.00    +0.006 A 
ATOM     23  C   UNL     1       4.606   2.913  -4.383  0.00  0.00    +0.015 A 
BRANCH  18  24
ATOM     24  C   UNL     1       3.498   1.805  -6.319  0.00  0.00    +0.339 C 
ATOM     25  O   UNL     1       2.559   1.173  -6.760  0.00  0.00    -0.245 OA
BRANCH  24  27
ATOM     26  C   UNL     1       4.418   1.748  -8.521  0.00  0.00    +0.280 C 
ATOM     27  O   UNL     1       4.514   2.157  -7.131  0.00  0.00    -0.464 OA
ENDBRANCH  24  27
ENDBRANCH  18  24
ENDBRANCH   1  21
BRANCH  10  28
ATOM     28  C   UNL     1      -1.426   2.530  -0.085  0.00  0.00    +0.339 C 
ATOM     29  O   UNL     1      -1.360   3.743  -0.080  0.00  0.00    -0.245 OA
BRANCH  28  30
ATOM     30  O   UNL     1      -2.627   1.921  -0.099  0.00  0.00    -0.464 OA
ATOM     31  C   UNL     1      -3.800   2.776  -0.107  0.00  0.00    +0.280 C 
ENDBRANCH  28  30
ENDBRANCH  10  28
TORSDOF 5
