REMARK  Name = ZINC13005816
REMARK  9 active torsions:
REMARK  status: ('A' for Active; 'I' for Inactive)
REMARK    1  A    between atoms: C_1  and  C_2
REMARK    2  A    between atoms: C_6  and  C_30
REMARK    3  A    between atoms: C_7  and  C_12
REMARK    4  A    between atoms: C_8  and  C_11
REMARK    5  A    between atoms: C_12  and  C_13
REMARK    6  A    between atoms: C_13  and  C_14
REMARK    7  A    between atoms: N_16  and  C_17
REMARK    8  A    between atoms: C_17  and  C_19
REMARK    9  A    between atoms: C_17  and  C_20
REMARK                            x       y       z     vdW  Elec       q    Type
REMARK                         _______ _______ _______ _____ _____    ______ ____
ROOT
ATOM      1  C   UNL     1       2.711  -4.315  -2.205  0.00  0.00    +0.214 C 
ATOM      2  O   UNL     1       3.646  -5.046  -1.955  0.00  0.00    -0.276 OA
ATOM      3  N   UNL     1       1.523  -4.839  -2.567  0.00  0.00    -0.309 N 
ATOM      4  H   UNL     1       0.776  -4.254  -2.767  0.00  0.00    +0.149 HD
ENDROOT
BRANCH   3   5
ATOM      5  C   UNL     1       1.361  -6.292  -2.656  0.00  0.00    +0.101 C 
ATOM      6  C   UNL     1      -0.118  -6.651  -2.496  0.00  0.00    +0.033 C 
BRANCH   5   7
ATOM      7  C   UNL     1       1.851  -6.770  -3.999  0.00  0.00    -0.020 A 
ATOM      8  C   UNL     1       1.876  -5.919  -5.061  0.00  0.00    +0.006 A 
ATOM      9  C   UNL     1       2.326  -6.343  -6.309  0.00  0.00    +0.001 A 
ATOM     10  C   UNL     1       2.754  -7.620  -6.504  0.00  0.00    +0.008 A 
ATOM     11  C   UNL     1       2.742  -8.528  -5.431  0.00  0.00    -0.018 A 
ATOM     12  C   UNL     1       2.289  -8.095  -4.160  0.00  0.00    -0.013 A 
ATOM     13  C   UNL     1       2.283  -9.002  -3.086  0.00  0.00    +0.009 A 
ATOM     14  C   UNL     1       2.715 -10.277  -3.279  0.00  0.00    +0.001 A 
ATOM     15  C   UNL     1       3.165 -10.702  -4.528  0.00  0.00    +0.001 A 
ATOM     16  C   UNL     1       3.176  -9.855  -5.593  0.00  0.00    +0.008 A 
ENDBRANCH   5   7
ENDBRANCH   3   5
BRANCH   1  17
ATOM     17  C   UNL     1       2.878  -2.820  -2.113  0.00  0.00    +0.100 C 
BRANCH  17  18
ATOM     18  C   UNL     1       4.311  -2.493  -1.686  0.00  0.00    +0.048 C 
BRANCH  18  25
ATOM     19  C   UNL     1       4.435   4.409   0.998  0.00  0.00    +0.067 C 
ATOM     20  C   UNL     1       4.497   3.131   0.202  0.00  0.00    +0.062 A 
ATOM     21  C   UNL     1       4.866   3.028  -1.131  0.00  0.00    +0.073 A 
ATOM     22  C   UNL     1       4.795   1.688  -1.486  0.00  0.00    +0.156 A 
ATOM     23  N   UNL     1       5.040   1.039  -2.632  0.00  0.00    -0.233 NA
ATOM     24  C   UNL     1       4.894  -0.262  -2.712  0.00  0.00    +0.045 A 
ATOM     25  C   UNL     1       4.478  -0.998  -1.593  0.00  0.00    -0.005 A 
ATOM     26  C   UNL     1       4.227  -0.353  -0.428  0.00  0.00    +0.047 A 
ATOM     27  N   UNL     1       4.386   1.002  -0.371  0.00  0.00    -0.218 N 
ATOM     28  N   UNL     1       4.216   1.932   0.661  0.00  0.00    -0.170 NA
ATOM     29  C   UNL     1       3.779  -1.122   0.788  0.00  0.00    +0.066 C 
ATOM     30  C   UNL     1       5.176  -0.970  -4.013  0.00  0.00    +0.066 C 
ENDBRANCH  18  25
ENDBRANCH  17  18
ENDBRANCH   1  17
TORSDOF 5
