REMARK  Name = ZINC63295605
REMARK  6 active torsions:
REMARK  status: ('A' for Active; 'I' for Inactive)
REMARK    1  A    between atoms: C_5  and  C_7
REMARK    2  A    between atoms: C_7  and  N_8
REMARK    3  A    between atoms: C_9  and  C_11
REMARK    4  A    between atoms: C_11  and  C_12
REMARK    5  A    between atoms: C_12  and  C_13
REMARK    6  A    between atoms: C_13  and  N_14
REMARK                            x       y       z     vdW  Elec       q    Type
REMARK                         _______ _______ _______ _____ _____    ______ ____
ROOT
ATOM      1  N   UNL     1       2.126  -8.020   4.360  0.00  0.00    -0.299 N 
ATOM      2  C   UNL     1       2.354  -8.698   5.502  0.00  0.00    +0.302 C 
ATOM      3  O   UNL     1       2.634  -8.096   6.521  0.00  0.00    -0.253 OA
ATOM      4  N   UNL     1       2.273 -10.043   5.516  0.00  0.00    -0.283 N 
ATOM      5  C   UNL     1       2.056 -10.769   4.260  0.00  0.00    +0.114 C 
ATOM      6  C   UNL     1       3.204 -11.772   4.042  0.00  0.00    +0.052 C 
ATOM      7  C   UNL     1       3.419 -12.476   5.359  0.00  0.00    -0.035 C 
ATOM      8  C   UNL     1       3.476 -13.766   5.665  0.00  0.00    +0.001 A 
ATOM      9  C   UNL     1       3.462 -14.974   4.824  0.00  0.00    +0.030 A 
ATOM     10  C   UNL     1       3.517 -16.163   5.481  0.00  0.00    +0.042 A 
ATOM     11  C   UNL     1       3.584 -16.270   6.875  0.00  0.00    +0.022 A 
ATOM     12  C   UNL     1       3.611 -15.212   7.724  0.00  0.00    +0.027 A 
ATOM     13  C   UNL     1       3.566 -13.908   7.150  0.00  0.00    +0.043 A 
ATOM     14  N   UNL     1       3.600 -12.738   7.717  0.00  0.00    -0.376 N 
ATOM     15  C   UNL     1       3.599 -11.717   6.668  0.00  0.00    +0.124 C 
ATOM     16  C   UNL     1       2.409 -10.768   6.789  0.00  0.00    +0.138 C 
ATOM     17 CL   UNL     1       3.504 -17.624   4.543  0.00  0.00    -0.084 Cl
ATOM     18  H   UNL     1       1.974  -8.502   3.532  0.00  0.00    +0.150 HD
ATOM     19  H   UNL     1       3.623 -12.571   8.672  0.00  0.00    +0.160 HD
ENDROOT
BRANCH   1  20
ATOM     20  C   UNL     1       2.107  -6.555   4.369  0.00  0.00    +0.106 C 
BRANCH  20  21
ATOM     21  C   UNL     1       1.828  -6.040   2.955  0.00  0.00    +0.028 C 
BRANCH  21  22
ATOM     22  C   UNL     1       1.808  -4.511   2.965  0.00  0.00    +0.097 C 
BRANCH  22  24
ATOM     23  N   UNL     1       1.470  -2.678   1.339  0.00  0.00    -0.311 N 
ATOM     24  C   UNL     1       1.534  -4.003   1.573  0.00  0.00    +0.213 C 
ATOM     25  O   UNL     1       1.371  -4.788   0.662  0.00  0.00    -0.276 OA
ATOM     26  H   UNL     1       1.600  -2.050   2.067  0.00  0.00    +0.149 HD
BRANCH  23  27
ATOM     27  C   UNL     1       1.204  -2.184  -0.015  0.00  0.00    +0.141 C 
BRANCH  27  32
ATOM     28  C   UNL     1      -0.041   1.380   0.023  0.00  0.00    +0.000 A 
ATOM     29  C   UNL     1       1.147   2.088   0.010  0.00  0.00    +0.001 A 
ATOM     30  C   UNL     1       2.353   1.414  -0.011  0.00  0.00    +0.020 A 
ATOM     31  C   UNL     1       2.372   0.030  -0.019  0.00  0.00    +0.046 A 
ATOM     32  C   UNL     1       1.184  -0.678  -0.006  0.00  0.00    -0.012 A 
ATOM     33  C   UNL     1      -0.022  -0.002   0.015  0.00  0.00    +0.006 A 
ATOM     34 CL   UNL     1       3.887  -0.817  -0.046  0.00  0.00    -0.083 Cl
ENDBRANCH  27  32
ENDBRANCH  23  27
ENDBRANCH  22  24
ENDBRANCH  21  22
ENDBRANCH  20  21
ENDBRANCH   1  20
TORSDOF 6
