REMARK  Name = ZINC21582074
REMARK  7 active torsions:
REMARK  status: ('A' for Active; 'I' for Inactive)
REMARK    1  A    between atoms: C_1  and  C_2
REMARK    2  A    between atoms: C_15  and  C_17
REMARK    3  A    between atoms: C_17  and  N_18
REMARK    4  A    between atoms: N_18  and  C_19
REMARK    5  A    between atoms: N_18  and  C_26
REMARK    6  A    between atoms: C_19  and  C_20
REMARK    7  A    between atoms: C_26  and  C_27
REMARK                            x       y       z     vdW  Elec       q    Type
REMARK                         _______ _______ _______ _____ _____    ______ ____
ROOT
ATOM      1  C   UNL     1      -0.089   1.391  -0.162  0.00  0.00    +0.029 C 
ATOM      2  C   UNL     1      -0.135  -0.133  -0.042  0.00  0.00    +0.087 C 
ATOM      3  C   UNL     1       0.498  -0.760  -1.285  0.00  0.00    +0.118 C 
ATOM      4  C   UNL     1       0.823  -2.207  -1.026  0.00  0.00    +0.219 C 
ATOM      5  O   UNL     1       0.124  -3.076  -1.502  0.00  0.00    -0.275 OA
ATOM      6  N   UNL     1       1.889  -2.544  -0.269  0.00  0.00    -0.284 N 
ATOM      7  C   UNL     1       2.650  -1.555   0.366  0.00  0.00    +0.055 A 
ATOM      8  C   UNL     1       4.031  -1.546   0.264  0.00  0.00    +0.025 A 
ATOM      9  C   UNL     1       4.763  -0.572   0.919  0.00  0.00    +0.002 A 
ATOM     10  C   UNL     1       4.120   0.391   1.676  0.00  0.00    +0.002 A 
ATOM     11  C   UNL     1       2.741   0.394   1.775  0.00  0.00    +0.025 A 
ATOM     12  C   UNL     1       2.001  -0.571   1.112  0.00  0.00    +0.058 A 
ATOM     13  N   UNL     1       0.601  -0.550   1.153  0.00  0.00    -0.268 N 
ATOM     14  C   UNL     1      -0.056  -0.906   2.275  0.00  0.00    +0.204 C 
ATOM     15  O   UNL     1      -1.268  -0.883   2.300  0.00  0.00    -0.277 OA
ATOM     16  H   UNL     1       2.130  -3.478  -0.163  0.00  0.00    +0.155 HD
ENDROOT
BRANCH  14  17
ATOM     17  C   UNL     1       0.716  -1.333   3.497  0.00  0.00    +0.020 C 
BRANCH  17  18
ATOM     18  N   UNL     1      -0.219  -1.810   4.524  0.00  0.00    +0.393 N 
ATOM     19  H   UNL     1      -0.927  -1.110   4.686  0.00  0.00    -0.080 HD
BRANCH  18  20
ATOM     20  C   UNL     1      -0.855  -3.053   4.068  0.00  0.00    -0.042 C 
BRANCH  20  21
ATOM     21  C   UNL     1      -1.903  -3.477   5.065  0.00  0.00    -0.064 A 
ATOM     22  C   UNL     1      -1.560  -4.305   6.117  0.00  0.00    +0.002 A 
ATOM     23  C   UNL     1      -2.521  -4.694   7.032  0.00  0.00    +0.000 A 
ATOM     24  C   UNL     1      -3.824  -4.255   6.895  0.00  0.00    +0.000 A 
ATOM     25  C   UNL     1      -4.167  -3.426   5.843  0.00  0.00    +0.000 A 
ATOM     26  C   UNL     1      -3.205  -3.034   4.930  0.00  0.00    +0.002 A 
ENDBRANCH  20  21
ENDBRANCH  18  20
BRANCH  18  27
ATOM     27  C   UNL     1       0.513  -2.065   5.772  0.00  0.00    -0.002 C 
BRANCH  27  28
ATOM     28  C   UNL     1       1.061  -0.766   6.306  0.00  0.00    +0.089 A 
ATOM     29  C   UNL     1       0.392   0.115   7.071  0.00  0.00    +0.042 A 
ATOM     30  C   UNL     1       1.281   1.181   7.340  0.00  0.00    +0.041 A 
ATOM     31  C   UNL     1       2.440   0.887   6.725  0.00  0.00    +0.195 A 
ATOM     32  O   UNL     1       2.303  -0.296   6.105  0.00  0.00    -0.470 OA
ENDBRANCH  27  28
ENDBRANCH  18  27
ENDBRANCH  17  18
ENDBRANCH  14  17
TORSDOF 6
