REMARK  Name = ZINC36367235
REMARK  3 active torsions:
REMARK  status: ('A' for Active; 'I' for Inactive)
REMARK    1  A    between atoms: C_1  and  N_2
REMARK    2  A    between atoms: C_19  and  C_28
REMARK    3  A    between atoms: C_20  and  C_21
REMARK                            x       y       z     vdW  Elec       q    Type
REMARK                         _______ _______ _______ _____ _____    ______ ____
ROOT
ATOM      1  C   UNL     1      -0.018   1.461   0.010  0.00  0.00    +0.138 C 
ATOM      2  N   UNL     1       0.002  -0.004   0.002  0.00  0.00    -0.273 N 
ATOM      3  C   UNL     1      -1.135  -0.794   0.003  0.00  0.00    +0.041 A 
ATOM      4  C   UNL     1      -2.478  -0.412   0.007  0.00  0.00    +0.025 A 
ATOM      5  C   UNL     1      -3.425  -1.424   0.007  0.00  0.00    +0.022 A 
ATOM      6  C   UNL     1      -3.068  -2.758   0.004  0.00  0.00    +0.041 A 
ATOM      7  C   UNL     1      -1.733  -3.151  -0.001  0.00  0.00    +0.026 A 
ATOM      8  C   UNL     1      -0.786  -2.150  -0.002  0.00  0.00    -0.004 A 
ATOM      9  C   UNL     1       0.709  -2.197  -0.012  0.00  0.00    +0.115 C 
ATOM     10  C   UNL     1       1.131  -0.743  -0.013  0.00  0.00    +0.236 C 
ATOM     11  O   UNL     1       2.268  -0.323  -0.024  0.00  0.00    -0.274 OA
ATOM     12  C   UNL     1       1.227  -2.887  -1.274  0.00  0.00    +0.122 C 
ATOM     13  C   UNL     1       1.188  -4.380  -1.122  0.00  0.00    +0.219 C 
ATOM     14  O   UNL     1       0.932  -5.054  -2.098  0.00  0.00    -0.275 OA
ATOM     15  N   UNL     1       1.422  -5.007   0.044  0.00  0.00    -0.284 N 
ATOM     16  C   UNL     1       1.595  -4.229   1.224  0.00  0.00    +0.054 A 
ATOM     17  C   UNL     1       1.249  -2.902   1.190  0.00  0.00    +0.032 A 
ATOM     18  S   UNL     1       1.560  -2.308   2.714  0.00  0.00    -0.083 S 
ATOM     19  C   UNL     1       2.183  -3.795   3.477  0.00  0.00    +0.110 A 
ATOM     20  C   UNL     1       2.097  -4.718   2.428  0.00  0.00    +0.025 A 
ATOM     21 CL   UNL     1      -4.311  -3.970   0.005  0.00  0.00    -0.084 Cl
ATOM     22  H   UNL     1       1.472  -5.975   0.081  0.00  0.00    +0.155 HD
ENDROOT
BRANCH  20  23
ATOM     23  C   UNL     1       2.514  -6.129   2.588  0.00  0.00    -0.015 A 
ATOM     24  C   UNL     1       1.571  -7.153   2.490  0.00  0.00    +0.010 A 
ATOM     25  C   UNL     1       1.966  -8.467   2.640  0.00  0.00    +0.020 A 
ATOM     26  C   UNL     1       3.294  -8.770   2.888  0.00  0.00    +0.041 A 
ATOM     27  C   UNL     1       4.233  -7.758   2.988  0.00  0.00    +0.020 A 
ATOM     28  C   UNL     1       3.852  -6.441   2.834  0.00  0.00    +0.010 A 
ATOM     29 CL   UNL     1       3.783 -10.425   3.076  0.00  0.00    -0.084 Cl
ENDBRANCH  20  23
BRANCH  19  30
ATOM     30  C   UNL     1       2.646  -3.990   4.798  0.00  0.00    +0.394 C 
ATOM     31  O   UNL     1       2.649  -3.055   5.591  0.00  0.00    -0.240 OA
ATOM     32  O   UNL     1       3.042  -5.094   5.152  0.00  0.00    -0.240 OA
ENDBRANCH  19  30
TORSDOF 2
