REMARK  Name = ZINC38056202
REMARK  4 active torsions:
REMARK  status: ('A' for Active; 'I' for Inactive)
REMARK    1  A    between atoms: C_1  and  C_2
REMARK    2  A    between atoms: C_9  and  C_11
REMARK    3  A    between atoms: C_11  and  O_12
REMARK    4  A    between atoms: O_12  and  C_13
REMARK                            x       y       z     vdW  Elec       q    Type
REMARK                         _______ _______ _______ _____ _____    ______ ____
ROOT
ATOM      1  O   UNL     1       2.926  -4.820   1.554  0.00  0.00    -0.481 OA
ENDROOT
BRANCH   1   2
ATOM      2  C   UNL     1       2.995  -6.178   1.607  0.00  0.00    +0.142 A 
ATOM      3  C   UNL     1       1.837  -6.933   1.545  0.00  0.00    +0.047 A 
ATOM      4  C   UNL     1       1.911  -8.313   1.599  0.00  0.00    +0.004 A 
ATOM      5  C   UNL     1       3.137  -8.938   1.718  0.00  0.00    +0.005 A 
ATOM      6  C   UNL     1       4.303  -8.191   1.782  0.00  0.00    -0.023 A 
ATOM      7  C   UNL     1       4.233  -6.809   1.718  0.00  0.00    +0.073 A 
ATOM      8  N   UNL     1       5.397  -6.028   1.766  0.00  0.00    -0.341 N 
ATOM      9  C   UNL     1       6.659  -6.659   2.176  0.00  0.00    +0.102 C 
ATOM     10  C   UNL     1       6.768  -8.005   1.448  0.00  0.00    +0.023 C 
ATOM     11  C   UNL     1       5.621  -8.907   1.917  0.00  0.00    +0.038 C 
ATOM     12  H   UNL     1       5.369  -5.087   1.532  0.00  0.00    +0.146 HD
ENDBRANCH   1   2
BRANCH   1  13
ATOM     13  C   UNL     1       1.625  -4.241   1.440  0.00  0.00    +0.324 C 
BRANCH  13  21
ATOM     14  C   UNL     1      -0.019   1.526   0.010  0.00  0.00    +0.009 C 
ATOM     15  C   UNL     1       0.002  -0.004   0.002  0.00  0.00    +0.003 C 
ATOM     16  C   UNL     1      -1.433  -0.534   0.015  0.00  0.00    +0.006 C 
ATOM     17  C   UNL     1      -1.414  -2.064  -0.027  0.00  0.00    +0.019 C 
ATOM     18  C   UNL     1      -0.692  -2.596   1.215  0.00  0.00    +0.108 C 
ATOM     19  N   UNL     1       0.639  -1.977   1.288  0.00  0.00    -0.298 N 
ATOM     20  C   UNL     1       0.742  -0.512   1.244  0.00  0.00    +0.111 C 
ATOM     21  C   UNL     1       1.746  -2.740   1.395  0.00  0.00    +0.253 C 
ATOM     22  O   UNL     1       2.838  -2.217   1.455  0.00  0.00    -0.272 OA
ENDBRANCH  13  21
ENDBRANCH   1  13
TORSDOF 3
