REMARK  Name = ZINC08858065
REMARK  12 active torsions:
REMARK  status: ('A' for Active; 'I' for Inactive)
REMARK    1  A    between atoms: C_1  and  C_2
REMARK    2  A    between atoms: C_2  and  C_3
REMARK    3  A    between atoms: C_3  and  C_4
REMARK    4  A    between atoms: C_4  and  C_5
REMARK    5  A    between atoms: C_5  and  C_6
REMARK    6  A    between atoms: C_6  and  N_7
REMARK    7  A    between atoms: C_11  and  C_12
REMARK    8  A    between atoms: C_13  and  N_24
REMARK    9  A    between atoms: C_16  and  C_23
REMARK   10  A    between atoms: C_29  and  C_30
REMARK   11  A    between atoms: C_29  and  N_68
REMARK   12  A    between atoms: C_30  and  O_31
REMARK                            x       y       z     vdW  Elec       q    Type
REMARK                         _______ _______ _______ _____ _____    ______ ____
ROOT
ATOM      1  C   UNL     1       4.288  -0.858  -0.885  0.00  0.00    +0.081 A 
ATOM      2  C   UNL     1       4.347   0.523  -0.584  0.00  0.00    +0.136 A 
ATOM      3  N   UNL     1       3.230   1.182  -0.315  0.00  0.00    -0.213 NA
ATOM      4  C   UNL     1       2.042   0.576  -0.319  0.00  0.00    +0.145 A 
ATOM      5  C   UNL     1       0.889   1.327  -0.025  0.00  0.00    -0.007 A 
ATOM      6  C   UNL     1      -0.329   0.716  -0.025  0.00  0.00    +0.008 A 
ATOM      7  C   UNL     1      -0.417  -0.652  -0.318  0.00  0.00    +0.019 A 
ATOM      8  C   UNL     1       0.702  -1.358  -0.598  0.00  0.00    +0.096 A 
ATOM      9  N   UNL     1       1.925  -0.757  -0.601  0.00  0.00    -0.267 N 
ATOM     10  C   UNL     1       3.022  -1.491  -0.885  0.00  0.00    +0.267 A 
ATOM     11  O   UNL     1       2.924  -2.680  -1.137  0.00  0.00    -0.267 OA
ATOM     12  C   UNL     1       1.001   2.797   0.287  0.00  0.00    +0.047 C 
ENDROOT
BRANCH   1  17
ATOM     13  N   UNL     1       8.117  -1.177  -3.669  0.00  0.00    -0.255 N 
ATOM     14  C   UNL     1       7.518  -1.738  -2.633  0.00  0.00    +0.258 C 
ATOM     15  O   UNL     1       8.013  -2.696  -2.066  0.00  0.00    -0.269 OA
ATOM     16  C   UNL     1       6.274  -1.195  -2.202  0.00  0.00    +0.077 C 
ATOM     17  C   UNL     1       5.463  -1.588  -1.176  0.00  0.00    +0.037 C 
ATOM     18  S   UNL     1       6.067   0.147  -3.365  0.00  0.00    -0.061 S 
ATOM     19  C   UNL     1       7.571  -0.110  -4.293  0.00  0.00    +0.121 C 
ATOM     20  S   UNL     1       8.169   0.771  -5.634  0.00  0.00    -0.027 S 
BRANCH  13  21
ATOM     21  C   UNL     1       9.395  -1.715  -4.142  0.00  0.00    +0.115 C 
BRANCH  21  22
ATOM     22  C   UNL     1      10.544  -1.018  -3.411  0.00  0.00    +0.019 C 
BRANCH  22  23
ATOM     23  C   UNL     1      11.878  -1.580  -3.905  0.00  0.00    +0.002 C 
BRANCH  23  24
ATOM     24  C   UNL     1      13.027  -0.883  -3.174  0.00  0.00    -0.000 C 
BRANCH  24  26
ATOM     25  C   UNL     1      15.511  -0.748  -2.938  0.00  0.00    +0.004 C 
ATOM     26  C   UNL     1      14.362  -1.445  -3.669  0.00  0.00    -0.003 C 
ENDBRANCH  24  26
ENDBRANCH  23  24
ENDBRANCH  22  23
ENDBRANCH  21  22
ENDBRANCH  13  21
ENDBRANCH   1  17
BRANCH   2  27
ATOM     27  N   UNL     1       5.559   1.179  -0.572  0.00  0.00    -0.318 N 
ATOM     28  C   UNL     1       6.440   0.637   0.472  0.00  0.00    +0.088 C 
ATOM     29  C   UNL     1       7.800   1.335   0.401  0.00  0.00    -0.059 C 
ATOM     30  C   UNL     1       6.733   3.325  -0.471  0.00  0.00    -0.059 C 
ATOM     31  C   UNL     1       5.373   2.626  -0.400  0.00  0.00    +0.088 C 
ATOM     32  N   UNL     1       7.601   2.786   0.597  0.00  0.00    +0.383 N 
ATOM     33  H   UNL     1       7.149   2.942   1.506  0.00  0.00    -0.082 HD
BRANCH  32  34
ATOM     34  C   UNL     1       8.906   3.482   0.586  0.00  0.00    -0.051 C 
BRANCH  34  35
ATOM     35  C   UNL     1       9.766   2.987  -0.579  0.00  0.00    +0.137 C 
BRANCH  35  36
ATOM     36  O   UNL     1       9.179   3.404  -1.814  0.00  0.00    -0.397 OA
ATOM     37  H   UNL     1       9.672   3.125  -2.598  0.00  0.00    +0.209 HD
ENDBRANCH  35  36
ENDBRANCH  34  35
ENDBRANCH  32  34
ENDBRANCH   2  27
TORSDOF 10
