REMARK  Name = ZINC59989990
REMARK  12 active torsions:
REMARK  status: ('A' for Active; 'I' for Inactive)
REMARK    1  A    between atoms: C_1  and  C_2
REMARK    2  A    between atoms: C_5  and  C_35
REMARK    3  A    between atoms: N_8  and  C_10
REMARK    4  A    between atoms: C_10  and  C_11
REMARK    5  A    between atoms: C_10  and  C_12
REMARK    6  A    between atoms: C_10  and  C_13
REMARK    7  A    between atoms: C_13  and  N_14
REMARK    8  A    between atoms: C_15  and  C_17
REMARK    9  A    between atoms: C_21  and  C_22
REMARK   10  A    between atoms: C_22  and  C_23
REMARK   11  A    between atoms: C_22  and  C_24
REMARK   12  A    between atoms: C_28  and  C_31
REMARK                            x       y       z     vdW  Elec       q    Type
REMARK                         _______ _______ _______ _____ _____    ______ ____
ROOT
ATOM      1  C   UNL     1       3.998   1.757   1.833  0.00  0.00    +0.078 A 
ATOM      2  C   UNL     1       2.777   2.336   2.251  0.00  0.00    +0.148 A 
ATOM      3  N   UNL     1       2.994   3.596   2.509  0.00  0.00    -0.172 NA
ATOM      4  N   UNL     1       4.344   3.882   2.272  0.00  0.00    -0.218 N 
ATOM      5  C   UNL     1       4.953   2.753   1.865  0.00  0.00    +0.061 A 
ATOM      6  C   UNL     1       4.956   5.128   2.436  0.00  0.00    +0.154 A 
ATOM      7  C   UNL     1       4.200   6.288   2.318  0.00  0.00    +0.049 A 
ATOM      8  C   UNL     1       4.819   7.515   2.483  0.00  0.00    +0.017 A 
ATOM      9  C   UNL     1       6.178   7.538   2.761  0.00  0.00    +0.073 A 
ATOM     10  C   UNL     1       6.868   6.346   2.865  0.00  0.00    +0.125 A 
ATOM     11  N   UNL     1       6.250   5.192   2.708  0.00  0.00    -0.236 NA
ENDROOT
BRANCH   1  13
ATOM     12  N   UNL     1       3.214  -0.545   1.581  0.00  0.00    -0.313 N 
ATOM     13  C   UNL     1       4.211   0.352   1.442  0.00  0.00    +0.247 C 
ATOM     14  O   UNL     1       5.286   0.002   0.995  0.00  0.00    -0.270 OA
ATOM     15  H   UNL     1       2.357  -0.265   1.938  0.00  0.00    +0.149 HD
BRANCH  12  16
ATOM     16  C   UNL     1       3.426  -1.941   1.193  0.00  0.00    +0.092 C 
BRANCH  16  17
ATOM     17  C   UNL     1       2.115  -2.716   1.339  0.00  0.00    -0.055 C 
ATOM     18  C   UNL     1       2.367  -4.201   1.070  0.00  0.00    -0.008 C 
ATOM     19  C   UNL     1       1.093  -2.182   0.333  0.00  0.00    -0.008 C 
BRANCH  17  25
ATOM     20  C   UNL     1       3.039  -3.478   6.086  0.00  0.00    +0.005 C 
ATOM     21  C   UNL     1       2.048  -2.875   5.088  0.00  0.00    -0.031 C 
ATOM     22  C   UNL     1       0.678  -3.536   5.266  0.00  0.00    +0.003 C 
ATOM     23  C   UNL     1      -0.286  -2.983   4.211  0.00  0.00    -0.031 C 
ATOM     24  C   UNL     1       0.298  -3.224   2.818  0.00  0.00    -0.075 C 
ATOM     25  N   UNL     1       1.595  -2.546   2.702  0.00  0.00    +0.384 N 
ATOM     26  C   UNL     1       2.546  -3.120   3.662  0.00  0.00    -0.075 C 
ATOM     27  C   UNL     1      -0.477  -1.481   4.433  0.00  0.00    +0.005 C 
ATOM     28  H   UNL     1       1.477  -1.563   2.895  0.00  0.00    -0.081 HD
ENDBRANCH  17  25
ENDBRANCH  16  17
ENDBRANCH  12  16
ENDBRANCH   1  13
BRANCH   9  29
ATOM     29  C   UNL     1       6.894   8.851   2.948  0.00  0.00    +0.419 C 
ATOM     30  F   UNL     1       6.852   9.217   4.298  0.00  0.00    -0.166 F 
ATOM     31  F   UNL     1       8.227   8.717   2.543  0.00  0.00    -0.166 F 
ATOM     32  F   UNL     1       6.269   9.837   2.178  0.00  0.00    -0.166 F 
ENDBRANCH   9  29
BRANCH   5  33
ATOM     33  C   UNL     1       6.409   2.604   1.508  0.00  0.00    +0.032 C 
ATOM     34  C   UNL     1       7.045   1.531   2.394  0.00  0.00    +0.014 C 
ATOM     35  C   UNL     1       6.534   2.192   0.039  0.00  0.00    +0.014 C 
ENDBRANCH   5  33
TORSDOF 6
