REMARK  Name = ZINC12246539
REMARK  6 active torsions:
REMARK  status: ('A' for Active; 'I' for Inactive)
REMARK    1  A    between atoms: C_5  and  N_7
REMARK    2  A    between atoms: C_12  and  C_13
REMARK    3  A    between atoms: C_12  and  N_60
REMARK    4  A    between atoms: C_18  and  C_19
REMARK    5  A    between atoms: N_28  and  C_31
REMARK    6  A    between atoms: C_31  and  C_32
REMARK                            x       y       z     vdW  Elec       q    Type
REMARK                         _______ _______ _______ _____ _____    ______ ____
ROOT
ATOM      1  N   UNL     1       0.620   2.271  -0.790  0.00  0.00    -0.333 N 
ATOM      2  C   UNL     1       2.033   2.611  -0.575  0.00  0.00    +0.086 C 
ATOM      3  C   UNL     1       2.505   2.007   0.749  0.00  0.00    -0.059 C 
ATOM      4  C   UNL     1       0.904   0.209   0.500  0.00  0.00    -0.059 C 
ATOM      5  C   UNL     1       0.432   0.813  -0.825  0.00  0.00    +0.086 C 
ATOM      6  N   UNL     1       2.332   0.541   0.693  0.00  0.00    +0.384 N 
ATOM      7  H   UNL     1       2.870   0.171  -0.100  0.00  0.00    -0.081 HD
ENDROOT
BRANCH   1  12
ATOM      8  C   UNL     1       0.188   3.095  -4.344  0.00  0.00    +0.003 A 
ATOM      9  C   UNL     1      -0.827   4.042  -4.288  0.00  0.00    +0.014 A 
ATOM     10  C   UNL     1      -1.365   4.405  -3.066  0.00  0.00    +0.051 A 
ATOM     11  C   UNL     1      -0.885   3.807  -1.880  0.00  0.00    +0.070 A 
ATOM     12  C   UNL     1       0.137   2.862  -1.948  0.00  0.00    +0.043 A 
ATOM     13  C   UNL     1       0.666   2.509  -3.192  0.00  0.00    +0.024 A 
ATOM     14  C   UNL     1      -1.664   4.404  -0.782  0.00  0.00    +0.256 C 
ATOM     15  O   UNL     1      -1.538   4.145   0.398  0.00  0.00    -0.269 OA
ATOM     16  N   UNL     1      -2.539   5.283  -1.303  0.00  0.00    -0.230 N 
ATOM     17  C   UNL     1      -2.421   5.348  -2.642  0.00  0.00    +0.254 C 
ATOM     18  O   UNL     1      -3.079   6.055  -3.379  0.00  0.00    -0.270 OA
BRANCH  16  19
ATOM     19  C   UNL     1      -3.488   6.074  -0.515  0.00  0.00    +0.152 C 
BRANCH  19  20
ATOM     20  C   UNL     1      -2.847   7.379  -0.120  0.00  0.00    -0.023 A 
ATOM     21  C   UNL     1      -2.959   8.490  -0.935  0.00  0.00    +0.013 A 
ATOM     22  C   UNL     1      -2.371   9.649  -0.550  0.00  0.00    +0.045 A 
ATOM     23  S   UNL     1      -1.629   9.188   1.007  0.00  0.00    -0.105 S 
ATOM     24  C   UNL     1      -2.158   7.483   1.042  0.00  0.00    +0.050 A 
ENDBRANCH  19  20
ENDBRANCH  16  19
ENDBRANCH   1  12
BRANCH   6  25
ATOM     25  C   UNL     1       2.829  -0.076   1.941  0.00  0.00    -0.039 C 
BRANCH  25  26
ATOM     26  C   UNL     1       4.335  -0.037   1.934  0.00  0.00    -0.019 A 
ATOM     27  C   UNL     1       5.114   0.776   2.681  0.00  0.00    +0.107 A 
ATOM     28  N   UNL     1       6.403   0.505   2.386  0.00  0.00    -0.284 N 
ATOM     29  H   UNL     1       7.203   0.952   2.786  0.00  0.00    +0.188 HD
ATOM     30  N   UNL     1       6.426  -0.512   1.423  0.00  0.00    -0.174 NA
ATOM     31  C   UNL     1       5.182  -0.846   1.152  0.00  0.00    +0.094 A 
BRANCH  31  32
ATOM     32  C   UNL     1       4.749  -1.888   0.188  0.00  0.00    +0.002 A 
ATOM     33  C   UNL     1       3.724  -2.770   0.526  0.00  0.00    +0.011 A 
ATOM     34  C   UNL     1       3.322  -3.735  -0.375  0.00  0.00    +0.020 A 
ATOM     35  C   UNL     1       3.941  -3.833  -1.609  0.00  0.00    +0.041 A 
ATOM     36  C   UNL     1       4.962  -2.963  -1.948  0.00  0.00    +0.020 A 
ATOM     37  C   UNL     1       5.369  -1.992  -1.056  0.00  0.00    +0.011 A 
ATOM     38 CL   UNL     1       3.435  -5.054  -2.735  0.00  0.00    -0.084 Cl
ENDBRANCH  31  32
ENDBRANCH  25  26
ENDBRANCH   6  25
TORSDOF 6
