REMARK  Name = ZINC40404894
REMARK  17 active torsions:
REMARK  status: ('A' for Active; 'I' for Inactive)
REMARK    1  A    between atoms: C_1  and  C_2
REMARK    2  A    between atoms: C_8  and  C_19
REMARK    3  A    between atoms: C_12  and  C_13
REMARK    4  A    between atoms: C_13  and  O_15
REMARK    5  A    between atoms: O_15  and  C_16
REMARK    6  A    between atoms: C_16  and  C_17
REMARK    7  A    between atoms: C_16  and  C_18
REMARK    8  A    between atoms: C_19  and  N_20
REMARK    9  A    between atoms: N_20  and  C_21
REMARK   10  A    between atoms: N_20  and  C_35
REMARK   11  A    between atoms: C_21  and  C_22
REMARK   12  A    between atoms: C_22  and  C_24
REMARK   13  A    between atoms: C_22  and  O_34
REMARK   14  A    between atoms: C_24  and  O_25
REMARK   15  A    between atoms: O_25  and  C_26
REMARK   16  A    between atoms: C_29  and  O_32
REMARK   17  A    between atoms: O_32  and  C_33
REMARK                            x       y       z     vdW  Elec       q    Type
REMARK                         _______ _______ _______ _____ _____    ______ ____
ROOT
ATOM      1  C   UNL     1      -0.098  -3.250  -4.374  0.00  0.00    -0.003 C 
ENDROOT
BRANCH   1   9
ATOM      2  C   UNL     1      -5.616  -1.322  -7.552  0.00  0.00    +0.046 C 
ATOM      3  C   UNL     1      -5.118  -2.575  -6.880  0.00  0.00    -0.015 A 
ATOM      4  C   UNL     1      -3.849  -2.601  -6.298  0.00  0.00    +0.076 A 
ATOM      5  C   UNL     1      -2.833  -1.526  -6.222  0.00  0.00    +0.260 A 
ATOM      6  O   UNL     1      -3.045  -0.430  -6.708  0.00  0.00    -0.267 OA
ATOM      7  N   UNL     1      -1.667  -1.793  -5.601  0.00  0.00    -0.312 N 
ATOM      8  H   UNL     1      -0.991  -1.100  -5.543  0.00  0.00    +0.170 HD
ATOM      9  C   UNL     1      -1.420  -3.009  -5.056  0.00  0.00    +0.094 A 
ATOM     10  N   UNL     1      -2.294  -3.978  -5.106  0.00  0.00    -0.229 NA
ATOM     11  C   UNL     1      -3.473  -3.822  -5.694  0.00  0.00    +0.116 A 
ATOM     12  S   UNL     1      -4.886  -4.862  -5.961  0.00  0.00    -0.062 S 
ATOM     13  C   UNL     1      -5.909  -3.687  -6.834  0.00  0.00    +0.102 A 
BRANCH  13  14
ATOM     14  C   UNL     1      -7.259  -3.872  -7.370  0.00  0.00    +0.346 C 
ATOM     15  O   UNL     1      -7.815  -2.956  -7.946  0.00  0.00    -0.244 OA
BRANCH  14  16
ATOM     16  O   UNL     1      -7.886  -5.057  -7.224  0.00  0.00    -0.458 OA
BRANCH  16  17
ATOM     17  C   UNL     1      -9.202  -5.166  -7.772  0.00  0.00    +0.171 C 
ATOM     18  C   UNL     1      -9.458  -6.613  -8.198  0.00  0.00    +0.052 C 
ATOM     19  C   UNL     1     -10.229  -4.756  -6.715  0.00  0.00    +0.052 C 
ENDBRANCH  16  17
ENDBRANCH  14  16
ENDBRANCH  13  14
ENDBRANCH   1   9
BRANCH   1  20
ATOM     20  N   UNL     1       0.006  -4.665  -3.994  0.00  0.00    +0.388 N 
ATOM     21  H   UNL     1      -0.804  -4.929  -3.453  0.00  0.00    -0.081 HD
BRANCH  20  22
ATOM     22  C   UNL     1       1.219  -4.869  -3.191  0.00  0.00    -0.068 C 
ATOM     23  C   UNL     1       1.051  -5.485  -1.800  0.00  0.00    -0.017 C 
ATOM     24  C   UNL     1       1.394  -4.001  -1.944  0.00  0.00    -0.017 C 
ENDBRANCH  20  22
BRANCH  20  25
ATOM     25  C   UNL     1       0.075  -5.494  -5.205  0.00  0.00    -0.043 C 
BRANCH  25  26
ATOM     26  C   UNL     1       0.058  -6.973  -4.813  0.00  0.00    +0.135 C 
BRANCH  26  27
ATOM     27  O   UNL     1       1.181  -7.257  -3.976  0.00  0.00    -0.390 OA
ATOM     28  H   UNL     1       2.036  -7.082  -4.392  0.00  0.00    +0.210 HD
ENDBRANCH  26  27
BRANCH  26  29
ATOM     29  C   UNL     1       0.131  -7.836  -6.074  0.00  0.00    +0.258 C 
BRANCH  29  30
ATOM     30  O   UNL     1      -0.003  -9.213  -5.717  0.00  0.00    -0.489 OA
BRANCH  30  31
ATOM     31  C   UNL     1       0.041 -10.120  -6.729  0.00  0.00    +0.121 A 
ATOM     32  C   UNL     1       0.214  -9.692  -8.037  0.00  0.00    +0.049 A 
ATOM     33  C   UNL     1       0.258 -10.614  -9.065  0.00  0.00    +0.049 A 
ATOM     34  C   UNL     1       0.129 -11.967  -8.790  0.00  0.00    +0.120 A 
ATOM     35  C   UNL     1      -0.043 -12.395  -7.482  0.00  0.00    +0.049 A 
ATOM     36  C   UNL     1      -0.083 -11.474  -6.453  0.00  0.00    +0.049 A 
BRANCH  34  37
ATOM     37  O   UNL     1       0.172 -12.874  -9.802  0.00  0.00    -0.495 OA
ATOM     38  C   UNL     1       0.033 -14.251  -9.446  0.00  0.00    +0.277 C 
ENDBRANCH  34  37
ENDBRANCH  30  31
ENDBRANCH  29  30
ENDBRANCH  26  29
ENDBRANCH  25  26
ENDBRANCH  20  25
ENDBRANCH   1  20
TORSDOF 13
