REMARK  Name = ZINC32362937
REMARK  7 active torsions:
REMARK  status: ('A' for Active; 'I' for Inactive)
REMARK    1  A    between atoms: C_4  and  O_7
REMARK    2  A    between atoms: O_7  and  C_8
REMARK    3  A    between atoms: C_12  and  C_14
REMARK    4  A    between atoms: C_14  and  N_15
REMARK    5  A    between atoms: C_16  and  C_18
REMARK    6  A    between atoms: C_18  and  N_19
REMARK    7  A    between atoms: C_20  and  C_22
REMARK                            x       y       z     vdW  Elec       q    Type
REMARK                         _______ _______ _______ _____ _____    ______ ____
ROOT
ATOM      1  N   UNL     1      -2.132  -4.929  -1.145  0.00  0.00    -0.310 N 
ATOM      2  C   UNL     1      -2.065  -6.262  -1.332  0.00  0.00    +0.230 C 
ATOM      3  O   UNL     1      -2.020  -7.007  -0.377  0.00  0.00    -0.274 OA
ATOM      4  H   UNL     1      -2.172  -4.254  -2.012  0.00  0.00    +0.149 HD
ENDROOT
BRANCH   1   5
ATOM      5  C   UNL     1      -2.149  -4.380   0.213  0.00  0.00    +0.139 C 
BRANCH   5  10
ATOM      6  C   UNL     1      -1.137  -0.743   0.043  0.00  0.00    +0.129 A 
ATOM      7  C   UNL     1      -2.375  -0.115   0.021  0.00  0.00    +0.046 A 
ATOM      8  C   UNL     1      -3.531  -0.869   0.062  0.00  0.00    +0.004 A 
ATOM      9  C   UNL     1      -3.457  -2.248   0.124  0.00  0.00    +0.005 A 
ATOM     10  C   UNL     1      -2.226  -2.877   0.146  0.00  0.00    -0.027 A 
ATOM     11  C   UNL     1      -1.066  -2.128   0.101  0.00  0.00    +0.051 A 
BRANCH   6  12
ATOM     12  O   UNL     1       0.002  -0.004   0.002  0.00  0.00    -0.456 OA
BRANCH  12  16
ATOM     13  C   UNL     1       1.650   1.213   3.583  0.00  0.00    +0.000 A 
ATOM     14  C   UNL     1       2.252   1.567   2.390  0.00  0.00    +0.004 A 
ATOM     15  C   UNL     1       1.703   1.161   1.190  0.00  0.00    +0.046 A 
ATOM     16  C   UNL     1       0.545   0.397   1.181  0.00  0.00    +0.128 A 
ATOM     17  C   UNL     1      -0.061   0.047   2.380  0.00  0.00    +0.046 A 
ATOM     18  C   UNL     1       0.496   0.452   3.578  0.00  0.00    +0.004 A 
ENDBRANCH  12  16
ENDBRANCH   6  12
ENDBRANCH   5  10
ENDBRANCH   1   5
BRANCH   2  19
ATOM     19  C   UNL     1      -2.047  -6.827  -2.729  0.00  0.00    +0.200 C 
BRANCH  19  20
ATOM     20  N   UNL     1      -1.973  -8.289  -2.664  0.00  0.00    -0.306 N 
ATOM     21  C   UNL     1      -1.945  -9.014  -3.800  0.00  0.00    +0.220 C 
ATOM     22  O   UNL     1      -1.981  -8.456  -4.877  0.00  0.00    -0.275 OA
ATOM     23  H   UNL     1      -1.940  -8.795  -1.688  0.00  0.00    +0.149 HD
BRANCH  21  24
ATOM     24  C   UNL     1      -1.868 -10.517  -3.733  0.00  0.00    +0.048 C 
ATOM     25  C   UNL     1      -0.590 -10.930  -2.999  0.00  0.00    +0.019 C 
ATOM     26  C   UNL     1      -0.512 -12.457  -2.932  0.00  0.00    -0.009 C 
ATOM     27  C   UNL     1      -0.494 -13.030  -4.350  0.00  0.00    +0.007 C 
ATOM     28  C   UNL     1      -1.771 -12.617  -5.083  0.00  0.00    -0.009 C 
ATOM     29  C   UNL     1      -1.849 -11.091  -5.152  0.00  0.00    +0.019 C 
ATOM     30  C   UNL     1      -2.989 -13.157  -4.331  0.00  0.00    +0.007 C 
ATOM     31  C   UNL     1      -3.007 -12.584  -2.912  0.00  0.00    -0.009 C 
ATOM     32  C   UNL     1      -1.730 -12.997  -2.179  0.00  0.00    +0.007 C 
ATOM     33  C   UNL     1      -3.085 -11.057  -2.981  0.00  0.00    +0.019 C 
ENDBRANCH  21  24
ENDBRANCH  19  20
ENDBRANCH   2  19
TORSDOF 7
