REMARK  Name = ZINC34922684
REMARK  10 active torsions:
REMARK  status: ('A' for Active; 'I' for Inactive)
REMARK    1  A    between atoms: C_1  and  C_2
REMARK    2  A    between atoms: C_2  and  O_3
REMARK    3  A    between atoms: O_3  and  C_4
REMARK    4  A    between atoms: C_4  and  C_6
REMARK    5  A    between atoms: C_7  and  C_38
REMARK    6  A    between atoms: C_11  and  C_13
REMARK    7  A    between atoms: C_18  and  C_19
REMARK    8  A    between atoms: C_20  and  C_23
REMARK    9  A    between atoms: C_24  and  N_26
REMARK   10  A    between atoms: N_26  and  C_27
REMARK                            x       y       z     vdW  Elec       q    Type
REMARK                         _______ _______ _______ _____ _____    ______ ____
ROOT
ATOM      1  C   UNL     1       1.295  -2.141  -3.144  0.00  0.00    +0.082 C 
ATOM      2  C   UNL     1       1.445  -3.494  -3.377  0.00  0.00    +0.053 C 
ATOM      3  N   UNL     1       2.284  -3.926  -4.304  0.00  0.00    -0.230 NA
ATOM      4  C   UNL     1       3.028  -3.150  -5.065  0.00  0.00    +0.166 C 
ATOM      5  N   UNL     1       3.028  -1.785  -4.993  0.00  0.00    -0.267 N 
ATOM      6  C   UNL     1       2.114  -1.186  -3.984  0.00  0.00    +0.150 C 
ATOM      7  C   UNL     1       3.865  -1.112  -5.860  0.00  0.00    +0.048 C 
ATOM      8  C   UNL     1       4.615  -1.850  -6.707  0.00  0.00    +0.072 C 
ATOM      9  S   UNL     1       4.133  -3.510  -6.275  0.00  0.00    -0.060 S 
ATOM     10  C   UNL     1       0.646  -4.485  -2.570  0.00  0.00    +0.066 C 
ENDROOT
BRANCH   6  11
ATOM     11  C   UNL     1       2.947  -0.345  -3.052  0.00  0.00    -0.019 A 
ATOM     12  C   UNL     1       2.585   0.964  -2.792  0.00  0.00    +0.006 A 
ATOM     13  C   UNL     1       3.349   1.736  -1.937  0.00  0.00    +0.000 A 
ATOM     14  C   UNL     1       4.474   1.199  -1.341  0.00  0.00    +0.000 A 
ATOM     15  C   UNL     1       4.836  -0.110  -1.600  0.00  0.00    +0.004 A 
ATOM     16  C   UNL     1       4.069  -0.883  -2.452  0.00  0.00    -0.045 A 
ATOM     17  C   UNL     1       4.461  -2.312  -2.730  0.00  0.00    +0.044 C 
ENDBRANCH   6  11
BRANCH   7  18
ATOM     18  C   UNL     1       3.937   0.356  -5.861  0.00  0.00    +0.091 C 
ATOM     19  C   UNL     1       4.637   0.995  -6.818  0.00  0.00    +0.239 C 
ATOM     20  O   UNL     1       5.149   0.299  -7.862  0.00  0.00    -0.271 OA
BRANCH  19  21
ATOM     21  N   UNL     1       4.834   2.364  -6.736  0.00  0.00    -0.305 N 
ATOM     22  H   UNL     1       4.467   2.862  -5.989  0.00  0.00    +0.150 HD
BRANCH  21  23
ATOM     23  C   UNL     1       5.595   3.058  -7.777  0.00  0.00    +0.104 C 
ATOM     24  C   UNL     1       5.155   4.520  -7.831  0.00  0.00    +0.027 C 
ATOM     25  C   UNL     1       6.106   5.277  -8.766  0.00  0.00    +0.007 C 
ATOM     26  C   UNL     1       7.470   5.378  -8.086  0.00  0.00    +0.035 C 
ATOM     27  C   UNL     1       7.928   4.023  -7.612  0.00  0.00    -0.042 A 
ATOM     28  C   UNL     1       7.066   2.960  -7.466  0.00  0.00    -0.024 A 
ATOM     29  C   UNL     1       7.551   1.738  -7.018  0.00  0.00    +0.006 A 
ATOM     30  C   UNL     1       8.890   1.582  -6.721  0.00  0.00    +0.000 A 
ATOM     31  C   UNL     1       9.755   2.650  -6.871  0.00  0.00    +0.000 A 
ATOM     32  C   UNL     1       9.274   3.863  -7.315  0.00  0.00    +0.004 A 
ENDBRANCH  21  23
ENDBRANCH  19  21
ENDBRANCH   7  18
BRANCH   1  33
ATOM     33  C   UNL     1       0.411  -1.668  -2.167  0.00  0.00    +0.339 C 
ATOM     34  O   UNL     1      -0.195  -2.456  -1.461  0.00  0.00    -0.245 OA
BRANCH  33  35
ATOM     35  O   UNL     1       0.230  -0.339  -2.005  0.00  0.00    -0.462 OA
BRANCH  35  37
ATOM     36  C   UNL     1      -0.589   1.603  -0.822  0.00  0.00    +0.048 C 
ATOM     37  C   UNL     1      -0.600   0.076  -0.918  0.00  0.00    +0.229 C 
ENDBRANCH  35  37
ENDBRANCH  33  35
ENDBRANCH   1  33
TORSDOF 7
