REMARK  Name = ZINC35431207
REMARK  8 active torsions:
REMARK  status: ('A' for Active; 'I' for Inactive)
REMARK    1  A    between atoms: C_1  and  C_2
REMARK    2  A    between atoms: C_4  and  S_12
REMARK    3  A    between atoms: C_7  and  O_8
REMARK    4  A    between atoms: O_8  and  C_9
REMARK    5  A    between atoms: C_9  and  C_10
REMARK    6  A    between atoms: C_9  and  C_11
REMARK    7  A    between atoms: S_12  and  N_15
REMARK    8  A    between atoms: N_15  and  N_16
REMARK                            x       y       z     vdW  Elec       q    Type
REMARK                         _______ _______ _______ _____ _____    ______ ____
ROOT
ATOM      1  C   UNL     1       0.439   1.472   0.027  0.00  0.00    +0.047 C 
ATOM      2  C   UNL     1       0.221  -0.019   0.010  0.00  0.00    -0.007 A 
ATOM      3  C   UNL     1       0.225  -0.704  -1.190  0.00  0.00    +0.035 A 
ATOM      4  C   UNL     1       0.025  -2.072  -1.206  0.00  0.00    +0.107 A 
ATOM      5  C   UNL     1      -0.178  -2.758  -0.022  0.00  0.00    +0.032 A 
ATOM      6  C   UNL     1      -0.182  -2.077   1.180  0.00  0.00    +0.048 A 
ATOM      7  C   UNL     1       0.023  -0.705   1.199  0.00  0.00    +0.124 A 
ENDROOT
BRANCH   4   8
ATOM      8  S   UNL     1       0.029  -2.944  -2.737  0.00  0.00    +0.071 S 
ATOM      9  O   UNL     1      -0.722  -4.132  -2.530  0.00  0.00    -0.152 OA
ATOM     10  O   UNL     1      -0.304  -1.998  -3.744  0.00  0.00    -0.152 OA
BRANCH   8  11
ATOM     11  N   UNL     1       1.590  -3.415  -3.028  0.00  0.00    -0.127 NA
ATOM     12  H   UNL     1       2.047  -3.110  -3.827  0.00  0.00    +0.167 HD
BRANCH  11  13
ATOM     13  N   UNL     1       2.232  -4.234  -2.143  0.00  0.00    -0.251 NA
ATOM     14  H   UNL     1       3.172  -4.434  -2.452  0.00  0.00    +0.138 HD
ATOM     15  H   UNL     1       2.234  -3.834  -1.217  0.00  0.00    +0.138 HD
ENDBRANCH  11  13
ENDBRANCH   8  11
ENDBRANCH   4   8
BRANCH   7  16
ATOM     16  O   UNL     1       0.025  -0.033   2.381  0.00  0.00    -0.489 OA
BRANCH  16  17
ATOM     17  C   UNL     1      -0.069  -0.817   3.572  0.00  0.00    +0.167 C 
ATOM     18  C   UNL     1       0.552  -0.046   4.739  0.00  0.00    +0.051 C 
ATOM     19  C   UNL     1      -1.540  -1.105   3.877  0.00  0.00    +0.051 C 
ENDBRANCH  16  17
ENDBRANCH   7  16
TORSDOF 5
