REMARK  Name = ZINC09715484
REMARK  6 active torsions:
REMARK  status: ('A' for Active; 'I' for Inactive)
REMARK    1  A    between atoms: C_3  and  N_15
REMARK    2  A    between atoms: C_5  and  S_7
REMARK    3  A    between atoms: S_7  and  N_10
REMARK    4  A    between atoms: N_15  and  S_16
REMARK    5  A    between atoms: S_16  and  C_19
REMARK    6  A    between atoms: C_22  and  C_25
REMARK                            x       y       z     vdW  Elec       q    Type
REMARK                         _______ _______ _______ _____ _____    ______ ____
ROOT
ATOM      1  C   UNL     1       2.579   2.421  -3.839  0.00  0.00    +0.004 A 
ATOM      2  C   UNL     1       3.452   1.356  -3.951  0.00  0.00    +0.024 A 
ATOM      3  C   UNL     1       3.703   0.547  -2.851  0.00  0.00    +0.050 A 
ATOM      4  C   UNL     1       3.079   0.814  -1.639  0.00  0.00    +0.053 A 
ATOM      5  C   UNL     1       2.203   1.877  -1.534  0.00  0.00    +0.110 A 
ATOM      6  C   UNL     1       1.955   2.681  -2.632  0.00  0.00    +0.029 A 
ENDROOT
BRANCH   5   7
ATOM      7  S   UNL     1       1.406   2.213   0.001  0.00  0.00    +0.073 S 
ATOM      8  O   UNL     1       1.058   3.591  -0.016  0.00  0.00    -0.150 OA
ATOM      9  O   UNL     1       2.223   1.646   1.015  0.00  0.00    -0.150 OA
BRANCH   7  10
ATOM     10  N   UNL     1      -0.017   1.366   0.010  0.00  0.00    -0.205 N 
ATOM     11  C   UNL     1       0.002  -0.004   0.002  0.00  0.00    +0.088 C 
ATOM     12  C   UNL     1       0.783  -2.157  -0.014  0.00  0.00    +0.114 C 
ATOM     13  C   UNL     1      -0.706  -2.269  -0.419  0.00  0.00    +0.028 C 
ATOM     14  C   UNL     1      -1.233  -0.878   0.015  0.00  0.00    +0.072 C 
ATOM     15  H   UNL     1      -0.863   1.839   0.016  0.00  0.00    +0.175 HD
ATOM     16  N   UNL     1       1.090  -0.711  -0.012  0.00  0.00    -0.375 N 
ATOM     17  H   UNL     1       2.038  -0.318  -0.020  0.00  0.00    +0.161 HD
ENDBRANCH   7  10
ENDBRANCH   5   7
BRANCH   3  18
ATOM     18  N   UNL     1       4.585  -0.531  -2.961  0.00  0.00    -0.216 N 
ATOM     19  H   UNL     1       4.347  -1.393  -2.585  0.00  0.00    +0.174 HD
BRANCH  18  20
ATOM     20  S   UNL     1       6.037  -0.336  -3.733  0.00  0.00    +0.072 S 
ATOM     21  O   UNL     1       6.708  -1.586  -3.657  0.00  0.00    -0.150 OA
ATOM     22  O   UNL     1       5.756   0.303  -4.971  0.00  0.00    -0.150 OA
BRANCH  20  23
ATOM     23  C   UNL     1       6.985   0.803  -2.781  0.00  0.00    +0.109 A 
ATOM     24  C   UNL     1       6.903   2.158  -3.042  0.00  0.00    +0.029 A 
ATOM     25  C   UNL     1       7.643   3.053  -2.292  0.00  0.00    +0.006 A 
ATOM     26  C   UNL     1       8.473   2.592  -1.287  0.00  0.00    -0.044 A 
ATOM     27  C   UNL     1       8.558   1.236  -1.029  0.00  0.00    +0.006 A 
ATOM     28  C   UNL     1       7.814   0.342  -1.776  0.00  0.00    +0.029 A 
BRANCH  26  29
ATOM     29  C   UNL     1       9.284   3.567  -0.473  0.00  0.00    +0.019 C 
ATOM     30  C   UNL     1       8.344   4.540   0.241  0.00  0.00    +0.008 C 
ATOM     31  C   UNL     1       9.168   5.530   1.068  0.00  0.00    +0.001 C 
ATOM     32  C   UNL     1      10.105   6.310   0.144  0.00  0.00    +0.000 C 
ATOM     33  C   UNL     1      11.045   5.336  -0.570  0.00  0.00    +0.001 C 
ATOM     34  C   UNL     1      10.221   4.347  -1.396  0.00  0.00    +0.008 C 
ENDBRANCH  26  29
ENDBRANCH  20  23
ENDBRANCH  18  20
ENDBRANCH   3  18
TORSDOF 6
