REMARK  Name = ZINC09056659
REMARK  6 active torsions:
REMARK  status: ('A' for Active; 'I' for Inactive)
REMARK    1  A    between atoms: C_1  and  C_2
REMARK    2  A    between atoms: C_2  and  C_25
REMARK    3  A    between atoms: N_5  and  C_9
REMARK    4  A    between atoms: C_9  and  C_10
REMARK    5  A    between atoms: N_12  and  C_13
REMARK    6  A    between atoms: C_13  and  C_14
REMARK                            x       y       z     vdW  Elec       q    Type
REMARK                         _______ _______ _______ _____ _____    ______ ____
ROOT
ATOM      1  C   UNL     1       1.076  13.877  -1.403  0.00  0.00    +0.047 C 
ATOM      2  C   UNL     1       1.801  13.358  -0.159  0.00  0.00    +0.136 C 
ATOM      3  C   UNL     1       1.994  11.856  -0.238  0.00  0.00    +0.251 C 
ATOM      4  O   UNL     1       2.625  11.242  -1.071  0.00  0.00    -0.272 OA
ATOM      5  N   UNL     1       1.317  11.347   0.810  0.00  0.00    -0.215 N 
ATOM      6  C   UNL     1       0.736  12.308   1.537  0.00  0.00    +0.310 C 
ATOM      7  O   UNL     1       0.074  12.094   2.533  0.00  0.00    -0.252 OA
ATOM      8  N   UNL     1       0.966  13.537   1.041  0.00  0.00    -0.281 N 
ATOM      9  H   UNL     1       0.643  14.377   1.402  0.00  0.00    +0.152 HD
ENDROOT
BRANCH   2  10
ATOM     10  C   UNL     1       3.127  14.054   0.009  0.00  0.00    -0.008 A 
ATOM     11  C   UNL     1       3.386  14.768   1.139  0.00  0.00    +0.007 A 
ATOM     12  C   UNL     1       4.608  15.413   1.315  0.00  0.00    +0.001 A 
ATOM     13  C   UNL     1       5.574  15.358   0.357  0.00  0.00    +0.008 A 
ATOM     14  C   UNL     1       5.341  14.636  -0.825  0.00  0.00    -0.018 A 
ATOM     15  C   UNL     1       4.100  13.974  -1.002  0.00  0.00    -0.012 A 
ATOM     16  C   UNL     1       3.866  13.252  -2.185  0.00  0.00    +0.009 A 
ATOM     17  C   UNL     1       4.832  13.198  -3.142  0.00  0.00    +0.001 A 
ATOM     18  C   UNL     1       6.052  13.848  -2.968  0.00  0.00    +0.001 A 
ATOM     19  C   UNL     1       6.314  14.557  -1.836  0.00  0.00    +0.008 A 
ENDBRANCH   2  10
BRANCH   5  20
ATOM     20  C   UNL     1       1.234   9.917   1.119  0.00  0.00    +0.213 C 
BRANCH  20  21
ATOM     21  C   UNL     1       0.036   9.322   0.426  0.00  0.00    +0.231 C 
ATOM     22  O   UNL     1      -0.679  10.023  -0.259  0.00  0.00    -0.274 OA
ATOM     23  N   UNL     1      -0.242   8.011   0.567  0.00  0.00    -0.310 N 
ATOM     24  H   UNL     1       0.329   7.450   1.115  0.00  0.00    +0.149 HD
BRANCH  23  25
ATOM     25  C   UNL     1      -1.407   7.432  -0.106  0.00  0.00    +0.152 C 
BRANCH  25  26
ATOM     26  C   UNL     1      -1.494   5.939   0.216  0.00  0.00    +0.228 C 
ATOM     27  C   UNL     1      -2.714   5.328  -0.487  0.00  0.00    +0.275 C 
ATOM     28  O   UNL     1      -2.757   3.931  -0.175  0.00  0.00    -0.485 OA
ATOM     29  C   UNL     1      -1.587   3.244  -0.283  0.00  0.00    +0.162 A 
ATOM     30  C   UNL     1      -1.614   1.860  -0.359  0.00  0.00    +0.049 A 
ATOM     31  C   UNL     1      -0.434   1.148  -0.460  0.00  0.00    +0.004 A 
ATOM     32  C   UNL     1       0.777   1.814  -0.496  0.00  0.00    +0.004 A 
ATOM     33  C   UNL     1       0.811   3.194  -0.426  0.00  0.00    +0.049 A 
ATOM     34  C   UNL     1      -0.369   3.914  -0.321  0.00  0.00    +0.163 A 
ATOM     35  O   UNL     1      -0.320   5.273  -0.261  0.00  0.00    -0.480 OA
ENDBRANCH  25  26
ENDBRANCH  23  25
ENDBRANCH  20  21
ENDBRANCH   5  20
TORSDOF 5
