REMARK  Name = ZINC13065447
REMARK  10 active torsions:
REMARK  status: ('A' for Active; 'I' for Inactive)
REMARK    1  A    between atoms: C_1  and  C_2
REMARK    2  A    between atoms: C_4  and  C_36
REMARK    3  A    between atoms: C_9  and  C_14
REMARK    4  A    between atoms: C_14  and  N_63
REMARK    5  A    between atoms: C_15  and  C_16
REMARK    6  A    between atoms: C_15  and  N_63
REMARK    7  A    between atoms: C_23  and  C_24
REMARK    8  A    between atoms: C_23  and  N_63
REMARK    9  A    between atoms: N_28  and  C_29
REMARK   10  A    between atoms: C_29  and  C_30
REMARK                            x       y       z     vdW  Elec       q    Type
REMARK                         _______ _______ _______ _____ _____    ______ ____
ROOT
ATOM      1  N   UNL     1       1.791  -2.131  -1.611  0.00  0.00    +0.390 N 
ATOM      2  H   UNL     1       1.052  -2.009  -2.314  0.00  0.00    -0.080 HD
ENDROOT
BRANCH   1   3
ATOM      3  C   UNL     1       2.006  -3.576  -1.387  0.00  0.00    -0.036 C 
BRANCH   3  12
ATOM      4  C   UNL     1      -3.612  -7.269  -4.615  0.00  0.00    +0.044 C 
ATOM      5  C   UNL     1      -2.975  -6.647  -3.399  0.00  0.00    -0.050 A 
ATOM      6  C   UNL     1      -3.631  -6.697  -2.177  0.00  0.00    +0.008 A 
ATOM      7  C   UNL     1      -3.067  -6.135  -1.052  0.00  0.00    -0.026 A 
ATOM      8  C   UNL     1      -1.827  -5.510  -1.140  0.00  0.00    +0.052 A 
ATOM      9  C   UNL     1      -1.165  -5.462  -2.381  0.00  0.00    -0.001 A 
ATOM     10  C   UNL     1      -1.756  -6.039  -3.509  0.00  0.00    +0.013 A 
ATOM     11  C   UNL     1       0.140  -4.803  -2.464  0.00  0.00    +0.017 A 
ATOM     12  C   UNL     1       0.665  -4.261  -1.337  0.00  0.00    +0.001 A 
ATOM     13  C   UNL     1      -0.038  -4.342  -0.115  0.00  0.00    +0.251 A 
ATOM     14  O   UNL     1       0.454  -3.853   0.887  0.00  0.00    -0.268 OA
ATOM     15  N   UNL     1      -1.239  -4.940  -0.031  0.00  0.00    -0.322 N 
ATOM     16  H   UNL     1      -1.697  -4.974   0.824  0.00  0.00    +0.169 HD
ATOM     17  C   UNL     1      -3.791  -6.196   0.269  0.00  0.00    +0.046 C 
ENDBRANCH   3  12
ENDBRANCH   1   3
BRANCH   1  18
ATOM     18  C   UNL     1       3.035  -1.506  -2.110  0.00  0.00    -0.040 C 
BRANCH  18  19
ATOM     19  C   UNL     1       3.249  -1.928  -3.541  0.00  0.00    -0.046 A 
ATOM     20  C   UNL     1       4.156  -2.927  -3.838  0.00  0.00    +0.003 A 
ATOM     21  C   UNL     1       4.349  -3.316  -5.151  0.00  0.00    +0.000 A 
ATOM     22  C   UNL     1       3.642  -2.701  -6.167  0.00  0.00    +0.001 A 
ATOM     23  C   UNL     1       2.738  -1.698  -5.870  0.00  0.00    +0.020 A 
ATOM     24  C   UNL     1       2.541  -1.311  -4.556  0.00  0.00    +0.042 A 
ATOM     25 CL   UNL     1       1.406  -0.051  -4.184  0.00  0.00    -0.083 Cl
ENDBRANCH  18  19
ENDBRANCH   1  18
BRANCH   1  26
ATOM     26  C   UNL     1       1.369  -1.481  -0.353  0.00  0.00    +0.001 C 
BRANCH  26  27
ATOM     27  C   UNL     1       1.014  -0.045  -0.640  0.00  0.00    +0.135 A 
ATOM     28  N   UNL     1       1.840   0.971  -0.686  0.00  0.00    -0.115 NA
ATOM     29  N   UNL     1       1.157   2.028  -0.961  0.00  0.00    -0.023 NA
ATOM     30  N   UNL     1      -0.085   1.712  -1.091  0.00  0.00    -0.044 NA
ATOM     31  N   UNL     1      -0.213   0.443  -0.900  0.00  0.00    -0.227 N 
BRANCH  31  32
ATOM     32  C   UNL     1      -1.460  -0.324  -0.957  0.00  0.00    +0.182 C 
BRANCH  32  33
ATOM     33  C   UNL     1      -1.780  -0.657  -2.392  0.00  0.00    -0.026 A 
ATOM     34  C   UNL     1      -2.458   0.255  -3.179  0.00  0.00    +0.005 A 
ATOM     35  C   UNL     1      -2.747  -0.049  -4.496  0.00  0.00    +0.000 A 
ATOM     36  C   UNL     1      -2.368  -1.270  -5.023  0.00  0.00    +0.000 A 
ATOM     37  C   UNL     1      -1.695  -2.184  -4.234  0.00  0.00    +0.000 A 
ATOM     38  C   UNL     1      -1.401  -1.878  -2.918  0.00  0.00    +0.005 A 
ENDBRANCH  32  33
ENDBRANCH  31  32
ENDBRANCH  26  27
ENDBRANCH   1  26
TORSDOF 8
