REMARK  Name = ZINC42028206
REMARK  5 active torsions:
REMARK  status: ('A' for Active; 'I' for Inactive)
REMARK    1  A    between atoms: C_1  and  C_2
REMARK    2  A    between atoms: C_6  and  N_8
REMARK    3  A    between atoms: C_9  and  C_13
REMARK    4  A    between atoms: C_16  and  N_20
REMARK    5  A    between atoms: C_17  and  C_19
REMARK                            x       y       z     vdW  Elec       q    Type
REMARK                         _______ _______ _______ _____ _____    ______ ____
ROOT
ATOM      1  N   UNL     1       0.233  -2.818   2.399  0.00  0.00    -0.190 N 
ATOM      2  C   UNL     1      -0.019  -4.149   2.568  0.00  0.00    +0.187 A 
ATOM      3  N   UNL     1      -0.147  -4.353   3.863  0.00  0.00    -0.108 NA
ATOM      4  N   UNL     1       0.005  -3.254   4.509  0.00  0.00    -0.022 NA
ATOM      5  N   UNL     1       0.244  -2.281   3.698  0.00  0.00    -0.039 NA
ENDROOT
BRANCH   1  11
ATOM      6  C   UNL     1       2.755  -2.304  -1.792  0.00  0.00    +0.044 C 
ATOM      7  C   UNL     1       1.657  -1.865  -0.857  0.00  0.00    -0.048 A 
ATOM      8  C   UNL     1       0.856  -0.789  -1.190  0.00  0.00    +0.006 A 
ATOM      9  C   UNL     1      -0.153  -0.383  -0.336  0.00  0.00    +0.041 A 
ATOM     10  C   UNL     1      -0.363  -1.054   0.856  0.00  0.00    +0.149 A 
ATOM     11  C   UNL     1       0.442  -2.136   1.192  0.00  0.00    +0.105 A 
ATOM     12  C   UNL     1       1.450  -2.543   0.329  0.00  0.00    +0.034 A 
ATOM     13  F   UNL     1      -1.347  -0.657   1.691  0.00  0.00    -0.203 F 
ENDBRANCH   1  11
BRANCH   2  14
ATOM     14  C   UNL     1      -0.128  -5.166   1.501  0.00  0.00    +0.021 A 
ATOM     15  C   UNL     1      -0.372  -4.775   0.183  0.00  0.00    +0.013 A 
ATOM     16  C   UNL     1      -0.473  -5.725  -0.809  0.00  0.00    +0.023 A 
ATOM     17  C   UNL     1      -0.332  -7.074  -0.499  0.00  0.00    +0.028 A 
ATOM     18  C   UNL     1      -0.088  -7.467   0.812  0.00  0.00    -0.029 A 
ATOM     19  C   UNL     1       0.018  -6.520   1.808  0.00  0.00    +0.016 A 
ATOM     20  C   UNL     1       0.064  -8.929   1.144  0.00  0.00    +0.045 C 
BRANCH  17  21
ATOM     21  N   UNL     1      -0.434  -8.033  -1.505  0.00  0.00    -0.358 N 
ATOM     22  H   UNL     1      -0.604  -7.760  -2.421  0.00  0.00    +0.142 HD
ATOM     23  H   UNL     1      -0.336  -8.974  -1.290  0.00  0.00    +0.142 HD
ENDBRANCH  17  21
ENDBRANCH   2  14
TORSDOF 3
