REMARK  Name = ZINC43474499
REMARK  6 active torsions:
REMARK  status: ('A' for Active; 'I' for Inactive)
REMARK    1  A    between atoms: C_3  and  N_11
REMARK    2  A    between atoms: C_6  and  N_7
REMARK    3  A    between atoms: N_11  and  S_12
REMARK    4  A    between atoms: S_12  and  C_15
REMARK    5  A    between atoms: C_18  and  C_20
REMARK    6  A    between atoms: C_20  and  N_21
REMARK                            x       y       z     vdW  Elec       q    Type
REMARK                         _______ _______ _______ _____ _____    ______ ____
ROOT
ATOM      1  S   UNL     1       5.028   1.318  -0.039  0.00  0.00    +0.098 S 
ATOM      2  O   UNL     1       5.125   0.632   1.202  0.00  0.00    -0.148 OA
ATOM      3  O   UNL     1       5.101   0.645  -1.289  0.00  0.00    -0.148 OA
ENDROOT
BRANCH   1   4
ATOM      4  C   UNL     1       6.304   2.532  -0.046  0.00  0.00    +0.148 A 
ATOM      5  C   UNL     1       6.937   3.111   1.004  0.00  0.00    +0.037 A 
ATOM      6  C   UNL     1       7.921   4.051   0.759  0.00  0.00    +0.011 A 
ATOM      7  C   UNL     1       8.224   4.365  -0.524  0.00  0.00    -0.026 A 
ATOM      8  S   UNL     1       7.106   3.313  -1.436  0.00  0.00    -0.075 S 
BRANCH   7   9
ATOM      9  C   UNL     1       9.243   5.345  -1.046  0.00  0.00    -0.043 C 
BRANCH   9  10
ATOM     10  N   UNL     1      10.528   4.659  -1.236  0.00  0.00    +0.381 N 
ATOM     11  H   UNL     1      10.843   4.284  -0.354  0.00  0.00    -0.090 HD
ATOM     12  H   UNL     1      10.414   3.908  -1.900  0.00  0.00    -0.090 HD
ATOM     13  H   UNL     1      11.211   5.315  -1.586  0.00  0.00    -0.090 HD
ENDBRANCH   9  10
ENDBRANCH   7   9
ENDBRANCH   1   4
BRANCH   1  14
ATOM     14  N   UNL     1       3.583   2.127  -0.021  0.00  0.00    -0.094 NA
BRANCH  14  17
ATOM     15  C   UNL     1      -0.017   1.378   0.010  0.00  0.00    +0.035 A 
ATOM     16  C   UNL     1       1.169   2.088   0.002  0.00  0.00    +0.032 A 
ATOM     17  C   UNL     1       2.381   1.411  -0.013  0.00  0.00    +0.110 A 
ATOM     18  C   UNL     1       2.398   0.020  -0.021  0.00  0.00    +0.150 A 
ATOM     19  C   UNL     1       1.207  -0.683  -0.013  0.00  0.00    +0.073 A 
ATOM     20  C   UNL     1       0.002  -0.004   0.002  0.00  0.00    +0.129 A 
ATOM     21  F   UNL     1       3.575  -0.642  -0.036  0.00  0.00    -0.203 F 
BRANCH  20  22
ATOM     22  N   UNL     1      -1.270  -0.760   0.011  0.00  0.00    +0.057 N 
ATOM     23  O   UNL     1      -2.325  -0.168   0.024  0.00  0.00    -0.126 OA
ATOM     24  O   UNL     1      -1.256  -1.969   0.004  0.00  0.00    -0.126 OA
ENDBRANCH  20  22
ENDBRANCH  14  17
ENDBRANCH   1  14
TORSDOF 6
