REMARK  Name = ZINC18219680
REMARK  5 active torsions:
REMARK  status: ('A' for Active; 'I' for Inactive)
REMARK    1  A    between atoms: C_1  and  O_2
REMARK    2  A    between atoms: O_2  and  C_3
REMARK    3  A    between atoms: C_3  and  C_4
REMARK    4  A    between atoms: C_4  and  N_5
REMARK    5  A    between atoms: C_14  and  C_27
REMARK                            x       y       z     vdW  Elec       q    Type
REMARK                         _______ _______ _______ _____ _____    ______ ____
ROOT
ATOM      1  N   UNL     1      -0.776  -2.556  -1.119  0.00  0.00    -0.279 N 
ATOM      2  C   UNL     1      -1.517  -2.687   0.035  0.00  0.00    +0.116 A 
ATOM      3  C   UNL     1      -2.805  -3.118  -0.045  0.00  0.00    +0.067 A 
ATOM      4  C   UNL     1      -3.348  -3.412  -1.312  0.00  0.00    +0.260 A 
ATOM      5  O   UNL     1      -4.502  -3.794  -1.409  0.00  0.00    -0.267 OA
ATOM      6  N   UNL     1      -2.589  -3.268  -2.414  0.00  0.00    -0.275 N 
ATOM      7  H   UNL     1      -2.963  -3.470  -3.286  0.00  0.00    +0.173 HD
ATOM      8  C   UNL     1      -1.317  -2.841  -2.316  0.00  0.00    +0.331 A 
ATOM      9  O   UNL     1      -0.647  -2.715  -3.323  0.00  0.00    -0.246 OA
ATOM     10  C   UNL     1      -3.676  -3.298   1.173  0.00  0.00    +0.093 C 
ATOM     11  C   UNL     1      -3.029  -2.626   2.356  0.00  0.00    +0.034 C 
ATOM     12  C   UNL     1      -1.724  -2.204   2.344  0.00  0.00    +0.048 C 
ATOM     13  N   UNL     1      -0.922  -2.368   1.237  0.00  0.00    -0.299 N 
ATOM     14  C   UNL     1      -1.406  -1.597   3.641  0.00  0.00    +0.007 A 
ATOM     15  C   UNL     1      -0.243  -1.027   4.136  0.00  0.00    +0.010 A 
ATOM     16  C   UNL     1      -0.287  -0.532   5.442  0.00  0.00    +0.001 A 
ATOM     17  C   UNL     1      -1.425  -0.603   6.210  0.00  0.00    +0.001 A 
ATOM     18  C   UNL     1      -2.606  -1.176   5.725  0.00  0.00    +0.012 A 
ATOM     19  C   UNL     1      -2.578  -1.669   4.435  0.00  0.00    +0.031 A 
ATOM     20  C   UNL     1      -3.612  -2.328   3.608  0.00  0.00    +0.193 C 
ATOM     21  O   UNL     1      -4.755  -2.570   3.945  0.00  0.00    -0.287 OA
ATOM     22  H   UNL     1       0.040  -2.263   1.301  0.00  0.00    +0.154 HD
ENDROOT
BRANCH  10  23
ATOM     23  C   UNL     1      -3.841  -4.769   1.459  0.00  0.00    -0.035 A 
ATOM     24  C   UNL     1      -2.732  -5.549   1.728  0.00  0.00    +0.006 A 
ATOM     25  C   UNL     1      -2.883  -6.897   1.991  0.00  0.00    +0.020 A 
ATOM     26  C   UNL     1      -4.144  -7.466   1.984  0.00  0.00    +0.041 A 
ATOM     27  C   UNL     1      -5.253  -6.685   1.715  0.00  0.00    +0.020 A 
ATOM     28  C   UNL     1      -5.102  -5.335   1.458  0.00  0.00    +0.006 A 
ATOM     29 CL   UNL     1      -4.334  -9.160   2.313  0.00  0.00    -0.084 Cl
ENDBRANCH  10  23
BRANCH   1  30
ATOM     30  C   UNL     1       0.613  -2.097  -1.041  0.00  0.00    +0.156 C 
BRANCH  30  31
ATOM     31  C   UNL     1       0.652  -0.570  -1.138  0.00  0.00    +0.181 C 
BRANCH  31  33
ATOM     32  C   UNL     1      -0.017   1.425   0.010  0.00  0.00    +0.194 C 
ATOM     33  O   UNL     1       0.002  -0.004   0.002  0.00  0.00    -0.381 OA
ENDBRANCH  31  33
ENDBRANCH  30  31
ENDBRANCH   1  30
TORSDOF 4
