REMARK  Name = ZINC25533886
REMARK  12 active torsions:
REMARK  status: ('A' for Active; 'I' for Inactive)
REMARK    1  A    between atoms: C_1  and  C_2
REMARK    2  A    between atoms: C_3  and  N_15
REMARK    3  A    between atoms: N_6  and  C_9
REMARK    4  A    between atoms: N_7  and  C_8
REMARK    5  A    between atoms: C_16  and  C_18
REMARK    6  A    between atoms: C_18  and  C_20
REMARK    7  A    between atoms: C_18  and  N_21
REMARK    8  A    between atoms: N_21  and  C_22
REMARK    9  A    between atoms: N_21  and  C_23
REMARK   10  A    between atoms: C_23  and  C_24
REMARK   11  A    between atoms: C_29  and  O_30
REMARK   12  A    between atoms: O_30  and  C_31
REMARK                            x       y       z     vdW  Elec       q    Type
REMARK                         _______ _______ _______ _____ _____    ______ ____
ROOT
ATOM      1  N   UNL     1      -2.386   1.841  -0.259  0.00  0.00    -0.281 N 
ATOM      2  C   UNL     1      -2.620   0.514  -0.221  0.00  0.00    +0.204 C 
ATOM      3  O   UNL     1      -1.715  -0.255   0.031  0.00  0.00    -0.277 OA
ATOM      4  H   UNL     1      -3.188   2.532  -0.556  0.00  0.00    +0.155 HD
ENDROOT
BRANCH   1   7
ATOM      5  C   UNL     1      -0.648   3.587  -2.087  0.00  0.00    +0.067 C 
ATOM      6  C   UNL     1      -0.321   3.113  -0.694  0.00  0.00    +0.059 A 
ATOM      7  C   UNL     1      -1.114   2.342   0.083  0.00  0.00    +0.121 A 
ATOM      8  C   UNL     1      -0.408   2.129   1.347  0.00  0.00    +0.293 A 
ATOM      9  O   UNL     1      -0.807   1.485   2.300  0.00  0.00    -0.264 OA
ATOM     10  N   UNL     1       0.772   2.776   1.251  0.00  0.00    -0.216 N 
ATOM     11  N   UNL     1       0.832   3.386  -0.007  0.00  0.00    -0.282 N 
ATOM     12  C   UNL     1       1.950   4.188  -0.510  0.00  0.00    +0.171 C 
BRANCH  10  13
ATOM     13  C   UNL     1       1.763   2.827   2.236  0.00  0.00    +0.067 A 
ATOM     14  C   UNL     1       3.103   2.738   1.882  0.00  0.00    +0.028 A 
ATOM     15  C   UNL     1       4.079   2.794   2.857  0.00  0.00    +0.002 A 
ATOM     16  C   UNL     1       3.723   2.929   4.187  0.00  0.00    +0.000 A 
ATOM     17  C   UNL     1       2.390   3.013   4.544  0.00  0.00    +0.002 A 
ATOM     18  C   UNL     1       1.409   2.963   3.573  0.00  0.00    +0.028 A 
ENDBRANCH  10  13
ENDBRANCH   1   7
BRANCH   2  19
ATOM     19  C   UNL     1      -4.004  -0.016  -0.492  0.00  0.00    +0.016 C 
ATOM     20  C   UNL     1      -4.977   0.545   0.547  0.00  0.00    -0.004 C 
BRANCH  19  21
ATOM     21  N   UNL     1      -3.993  -1.482  -0.410  0.00  0.00    +0.388 N 
ATOM     22  C   UNL     1      -5.242  -2.049  -0.935  0.00  0.00    -0.095 C 
ATOM     23  H   UNL     1      -3.166  -1.849  -1.036  0.00  0.00    -0.081 HD
BRANCH  21  24
ATOM     24  C   UNL     1      -3.749  -1.931   0.968  0.00  0.00    -0.039 C 
BRANCH  24  25
ATOM     25  C   UNL     1      -3.500  -3.417   0.976  0.00  0.00    -0.022 A 
ATOM     26  C   UNL     1      -4.514  -4.286   1.332  0.00  0.00    +0.005 A 
ATOM     27  C   UNL     1      -4.287  -5.650   1.335  0.00  0.00    +0.000 A 
ATOM     28  C   UNL     1      -3.043  -6.147   0.992  0.00  0.00    +0.004 A 
ATOM     29  C   UNL     1      -2.025  -5.282   0.640  0.00  0.00    +0.046 A 
ATOM     30  C   UNL     1      -2.252  -3.913   0.631  0.00  0.00    +0.131 A 
BRANCH  30  31
ATOM     31  O   UNL     1      -1.252  -3.060   0.285  0.00  0.00    -0.406 OA
BRANCH  31  32
ATOM     32  C   UNL     1       0.007  -3.642  -0.058  0.00  0.00    +0.575 C 
ATOM     33  F   UNL     1      -0.156  -4.494  -1.156  0.00  0.00    -0.133 F 
ATOM     34  F   UNL     1       0.915  -2.629  -0.385  0.00  0.00    -0.133 F 
ATOM     35  F   UNL     1       0.496  -4.372   1.030  0.00  0.00    -0.133 F 
ENDBRANCH  31  32
ENDBRANCH  30  31
ENDBRANCH  24  25
ENDBRANCH  21  24
ENDBRANCH  19  21
ENDBRANCH   2  19
TORSDOF 8
