REMARK  Name = ZINC38670259
REMARK  11 active torsions:
REMARK  status: ('A' for Active; 'I' for Inactive)
REMARK    1  A    between atoms: C_1  and  C_2
REMARK    2  A    between atoms: C_5  and  N_9
REMARK    3  A    between atoms: C_7  and  C_8
REMARK    4  A    between atoms: C_11  and  C_16
REMARK    5  A    between atoms: N_18  and  C_19
REMARK    6  A    between atoms: C_19  and  C_20
REMARK    7  A    between atoms: C_20  and  C_22
REMARK    8  A    between atoms: C_20  and  N_33
REMARK    9  A    between atoms: N_31  and  C_32
REMARK   10  A    between atoms: N_33  and  C_34
REMARK   11  A    between atoms: N_33  and  C_35
REMARK                            x       y       z     vdW  Elec       q    Type
REMARK                         _______ _______ _______ _____ _____    ______ ____
ROOT
ATOM      1  C   UNL     1      -0.376  -8.399  -4.018  0.00  0.00    +0.218 C 
ATOM      2  O   UNL     1      -0.855  -7.471  -3.402  0.00  0.00    -0.275 OA
ATOM      3  N   UNL     1      -0.133  -9.569  -3.395  0.00  0.00    -0.316 N 
ATOM      4  H   UNL     1       0.250 -10.311  -3.888  0.00  0.00    +0.149 HD
ENDROOT
BRANCH   1   7
ATOM      5  N   UNL     1       0.629  -6.476  -6.952  0.00  0.00    -0.271 N 
ATOM      6  C   UNL     1      -0.414  -6.827  -5.981  0.00  0.00    +0.127 C 
ATOM      7  C   UNL     1      -0.053  -8.244  -5.482  0.00  0.00    +0.101 C 
ATOM      8  C   UNL     1       1.474  -8.282  -5.720  0.00  0.00    +0.110 C 
ATOM      9  C   UNL     1       1.701  -7.278  -6.828  0.00  0.00    +0.221 C 
ATOM     10  O   UNL     1       2.705  -7.205  -7.504  0.00  0.00    -0.275 OA
BRANCH   5  15
ATOM     11  C   UNL     1       0.184  -2.292 -10.757  0.00  0.00    +0.044 C 
ATOM     12  C   UNL     1       0.303  -3.404  -9.746  0.00  0.00    -0.047 A 
ATOM     13  C   UNL     1       1.492  -4.100  -9.622  0.00  0.00    +0.005 A 
ATOM     14  C   UNL     1       1.603  -5.119  -8.696  0.00  0.00    +0.024 A 
ATOM     15  C   UNL     1       0.520  -5.444  -7.890  0.00  0.00    +0.037 A 
ATOM     16  C   UNL     1      -0.672  -4.743  -8.018  0.00  0.00    +0.027 A 
ATOM     17  C   UNL     1      -0.776  -3.722  -8.942  0.00  0.00    -0.046 A 
ATOM     18  C   UNL     1      -2.067  -2.957  -9.077  0.00  0.00    +0.044 C 
ENDBRANCH   5  15
ENDBRANCH   1   7
BRANCH   3  19
ATOM     19  C   UNL     1      -0.447  -9.719  -1.972  0.00  0.00    +0.093 C 
BRANCH  19  20
ATOM     20  C   UNL     1       0.032 -11.089  -1.486  0.00  0.00    -0.021 C 
BRANCH  20  21
ATOM     21  C   UNL     1      -0.743 -12.171  -2.193  0.00  0.00    -0.059 A 
ATOM     22  C   UNL     1      -2.018 -12.498  -1.768  0.00  0.00    +0.004 A 
ATOM     23  C   UNL     1      -2.726 -13.490  -2.416  0.00  0.00    +0.023 A 
ATOM     24  C   UNL     1      -2.158 -14.160  -3.494  0.00  0.00    +0.033 A 
ATOM     25  C   UNL     1      -0.882 -13.830  -3.921  0.00  0.00    -0.026 A 
ATOM     26  C   UNL     1      -0.179 -12.831  -3.268  0.00  0.00    +0.007 A 
ATOM     27  C   UNL     1      -0.239 -14.527  -5.092  0.00  0.00    +0.038 C 
ATOM     28  C   UNL     1      -0.913 -15.875  -5.348  0.00  0.00    +0.024 C 
ATOM     29  C   UNL     1      -2.430 -15.662  -5.437  0.00  0.00    +0.105 C 
ATOM     30  N   UNL     1      -2.891 -15.166  -4.133  0.00  0.00    -0.333 N 
ATOM     31  C   UNL     1      -4.098 -15.717  -3.511  0.00  0.00    +0.129 C 
ENDBRANCH  20  21
BRANCH  20  32
ATOM     32  N   UNL     1      -0.186 -11.198  -0.037  0.00  0.00    +0.382 N 
ATOM     33  C   UNL     1       0.208 -12.539   0.417  0.00  0.00    -0.096 C 
ATOM     34  C   UNL     1       0.624 -10.188   0.657  0.00  0.00    -0.096 C 
ATOM     35  H   UNL     1      -1.162 -11.047   0.168  0.00  0.00    -0.082 HD
ENDBRANCH  20  32
ENDBRANCH  19  20
ENDBRANCH   3  19
TORSDOF 6
