REMARK  Name = ZINC63214265
REMARK  6 active torsions:
REMARK  status: ('A' for Active; 'I' for Inactive)
REMARK    1  A    between atoms: C_1  and  C_2
REMARK    2  A    between atoms: C_2  and  C_3
REMARK    3  A    between atoms: C_2  and  C_4
REMARK    4  A    between atoms: C_2  and  N_5
REMARK    5  A    between atoms: N_12  and  C_13
REMARK    6  A    between atoms: C_20  and  N_22
REMARK                            x       y       z     vdW  Elec       q    Type
REMARK                         _______ _______ _______ _____ _____    ______ ____
ROOT
ATOM      1  N   UNL     1       0.688  -0.476  -1.203  0.00  0.00    -0.306 N 
ATOM      2  C   UNL     1       0.034  -1.260  -2.107  0.00  0.00    +0.109 A 
ATOM      3  C   UNL     1       0.657  -1.700  -3.221  0.00  0.00    +0.131 A 
ATOM      4  N   UNL     1       1.927  -1.391  -3.483  0.00  0.00    -0.234 NA
ATOM      5  C   UNL     1       2.620  -0.638  -2.655  0.00  0.00    +0.185 A 
ATOM      6  C   UNL     1       1.975  -0.137  -1.437  0.00  0.00    +0.292 A 
ATOM      7  O   UNL     1       2.587   0.567  -0.650  0.00  0.00    -0.264 OA
ATOM      8  N   UNL     1       3.943  -0.320  -2.934  0.00  0.00    -0.323 N 
ATOM      9  H   UNL     1       4.448   0.235  -2.319  0.00  0.00    +0.148 HD
ENDROOT
BRANCH   8  10
ATOM     10  C   UNL     1       4.575  -0.822  -4.156  0.00  0.00    +0.057 C 
ATOM     11  C   UNL     1       5.083  -2.254  -3.901  0.00  0.00    +0.020 C 
ATOM     12  C   UNL     1       6.094  -2.697  -4.923  0.00  0.00    +0.002 C 
ATOM     13  C   UNL     1       7.506  -2.406  -4.373  0.00  0.00    +0.000 C 
ATOM     14  C   UNL     1       7.887  -1.011  -4.533  0.00  0.00    -0.002 C 
ATOM     15  C   UNL     1       6.956  -0.054  -3.761  0.00  0.00    -0.014 C 
ATOM     16  C   UNL     1       5.703   0.145  -4.566  0.00  0.00    -0.055 C 
BRANCH  16  17
ATOM     17  N   UNL     1       5.236   1.525  -4.379  0.00  0.00    +0.381 N 
ATOM     18  H   UNL     1       4.996   1.671  -3.410  0.00  0.00    -0.090 HD
ATOM     19  H   UNL     1       5.968   2.167  -4.645  0.00  0.00    -0.090 HD
ATOM     20  H   UNL     1       4.423   1.686  -4.955  0.00  0.00    -0.090 HD
ENDBRANCH  16  17
ENDBRANCH   8  10
BRANCH   1  22
ATOM     21  C   UNL     1      -0.019   1.526   0.010  0.00  0.00    +0.034 C 
ATOM     22  C   UNL     1       0.002  -0.004   0.002  0.00  0.00    +0.040 C 
ATOM     23  C   UNL     1       0.742  -0.511   1.242  0.00  0.00    +0.034 C 
ATOM     24  C   UNL     1      -1.433  -0.534   0.013  0.00  0.00    +0.034 C 
ENDBRANCH   1  22
TORSDOF 3
