REMARK  Name = ZINC67481796
REMARK  7 active torsions:
REMARK  status: ('A' for Active; 'I' for Inactive)
REMARK    1  A    between atoms: C_1  and  N_2
REMARK    2  A    between atoms: N_2  and  C_3
REMARK    3  A    between atoms: C_4  and  C_6
REMARK    4  A    between atoms: N_14  and  C_15
REMARK    5  A    between atoms: C_15  and  C_16
REMARK    6  A    between atoms: N_21  and  C_22
REMARK    7  A    between atoms: C_22  and  C_23
REMARK                            x       y       z     vdW  Elec       q    Type
REMARK                         _______ _______ _______ _____ _____    ______ ____
ROOT
ATOM      1  C   UNL     1      -0.200  -4.592   0.657  0.00  0.00    +0.078 C 
ATOM      2  C   UNL     1      -0.565  -5.031  -0.762  0.00  0.00    +0.032 C 
ATOM      3  C   UNL     1       0.457  -4.457  -1.749  0.00  0.00    +0.110 C 
ATOM      4  N   UNL     1       1.804  -4.858  -1.321  0.00  0.00    -0.286 N 
ATOM      5  C   UNL     1       2.224  -4.564   0.056  0.00  0.00    +0.110 C 
ATOM      6  C   UNL     1       1.183  -5.137   1.022  0.00  0.00    +0.032 C 
ATOM      7  C   UNL     1       2.639  -5.483  -2.175  0.00  0.00    +0.302 C 
ATOM      8  O   UNL     1       3.781  -5.727  -1.839  0.00  0.00    -0.253 OA
ATOM      9  N   UNL     1       2.206  -5.838  -3.401  0.00  0.00    -0.301 N 
ATOM     10  H   UNL     1       1.320  -5.578  -3.696  0.00  0.00    +0.150 HD
ENDROOT
BRANCH   1  14
ATOM     11  C   UNL     1      -3.402  -5.010   2.710  0.00  0.00    +0.131 C 
ATOM     12  N   UNL     1      -2.448  -4.569   1.689  0.00  0.00    -0.307 N 
ATOM     13  C   UNL     1      -2.826  -3.523   0.736  0.00  0.00    +0.131 C 
ATOM     14  C   UNL     1      -1.222  -5.127   1.627  0.00  0.00    +0.218 C 
ATOM     15  O   UNL     1      -0.943  -6.058   2.351  0.00  0.00    -0.275 OA
ENDBRANCH   1  14
BRANCH   9  16
ATOM     16  C   UNL     1       3.076  -6.615  -4.288  0.00  0.00    +0.090 C 
BRANCH  16  17
ATOM     17  C   UNL     1       2.409  -6.760  -5.657  0.00  0.00    -0.051 C 
ATOM     18  C   UNL     1       3.151  -7.823  -6.493  0.00  0.00    -0.016 C 
ATOM     19  C   UNL     1       3.127  -7.223  -7.923  0.00  0.00    -0.020 C 
ATOM     20  C   UNL     1       3.275  -5.710  -7.631  0.00  0.00    -0.078 C 
ATOM     21  N   UNL     1       2.491  -5.485  -6.393  0.00  0.00    +0.383 N 
ATOM     22  H   UNL     1       1.563  -5.168  -6.629  0.00  0.00    -0.081 HD
BRANCH  21  23
ATOM     23  C   UNL     1       3.159  -4.476  -5.560  0.00  0.00    -0.075 C 
BRANCH  23  24
ATOM     24  C   UNL     1       3.057  -3.107  -6.237  0.00  0.00    -0.028 C 
ATOM     25  C   UNL     1       3.981  -3.071  -7.456  0.00  0.00    +0.002 C 
ATOM     26  C   UNL     1       3.879  -1.703  -8.133  0.00  0.00    +0.000 C 
ATOM     27  C   UNL     1       4.296  -0.612  -7.144  0.00  0.00    +0.000 C 
ATOM     28  C   UNL     1       3.373  -0.649  -5.925  0.00  0.00    +0.000 C 
ATOM     29  C   UNL     1       3.474  -2.017  -5.248  0.00  0.00    +0.002 C 
ENDBRANCH  23  24
ENDBRANCH  21  23
ENDBRANCH  16  17
ENDBRANCH   9  16
TORSDOF 5
