REMARK  Name = ZINC17197106
REMARK  10 active torsions:
REMARK  status: ('A' for Active; 'I' for Inactive)
REMARK    1  A    between atoms: C_1  and  C_2
REMARK    2  A    between atoms: C_7  and  N_12
REMARK    3  A    between atoms: C_9  and  C_11
REMARK    4  A    between atoms: C_15  and  C_19
REMARK    5  A    between atoms: C_15  and  N_23
REMARK    6  A    between atoms: C_24  and  C_26
REMARK    7  A    between atoms: C_29  and  O_32
REMARK    8  A    between atoms: O_32  and  C_33
REMARK    9  A    between atoms: C_33  and  C_34
REMARK   10  A    between atoms: C_33  and  C_35
REMARK                            x       y       z     vdW  Elec       q    Type
REMARK                         _______ _______ _______ _____ _____    ______ ____
ROOT
ATOM      1  N   UNL     1       2.301   1.072   0.129  0.00  0.00    -0.219 N 
ATOM      2  C   UNL     1       1.655  -0.082  -0.135  0.00  0.00    +0.274 C 
ATOM      3  O   UNL     1       2.151  -1.172  -0.324  0.00  0.00    -0.271 OA
ATOM      4  C   UNL     1       0.180   0.268  -0.147  0.00  0.00    +0.278 C 
ATOM      5  N   UNL     1       0.164   1.713   0.138  0.00  0.00    -0.263 N 
ATOM      6  C   UNL     1       1.447   2.091   0.283  0.00  0.00    +0.311 C 
ATOM      7  O   UNL     1       1.793   3.230   0.527  0.00  0.00    -0.252 OA
ATOM      8  H   UNL     1      -0.793   2.252   0.192  0.00  0.00    +0.153 HD
ENDROOT
BRANCH   1  14
ATOM      9  C   UNL     1       4.407  -2.067   2.173  0.00  0.00    +0.008 C 
ATOM     10  C   UNL     1       3.898  -1.162   1.049  0.00  0.00    -0.009 C 
ATOM     11  C   UNL     1       4.541  -1.582  -0.274  0.00  0.00    +0.003 C 
ATOM     12  C   UNL     1       4.032  -0.678  -1.398  0.00  0.00    +0.002 C 
ATOM     13  C   UNL     1       4.400   0.775  -1.091  0.00  0.00    +0.023 C 
ATOM     14  C   UNL     1       3.757   1.195   0.233  0.00  0.00    +0.089 C 
ATOM     15  C   UNL     1       4.266   0.290   1.357  0.00  0.00    +0.010 C 
ATOM     16  C   UNL     1       3.623   0.710   2.680  0.00  0.00    +0.009 C 
ENDBRANCH   1  14
BRANCH   4  17
ATOM     17  C   UNL     1      -0.429  -0.017  -1.521  0.00  0.00    +0.436 C 
ATOM     18  F   UNL     1       0.235   0.741  -2.492  0.00  0.00    -0.166 F 
ATOM     19  F   UNL     1      -0.294  -1.377  -1.819  0.00  0.00    -0.166 F 
ATOM     20  F   UNL     1      -1.785   0.326  -1.510  0.00  0.00    -0.166 F 
ENDBRANCH   4  17
BRANCH   4  21
ATOM     21  N   UNL     1      -0.536  -0.471   0.895  0.00  0.00    -0.276 N 
ATOM     22  C   UNL     1      -0.499  -1.818   0.913  0.00  0.00    +0.246 C 
ATOM     23  O   UNL     1       0.206  -2.417   0.125  0.00  0.00    -0.270 OA
ATOM     24  H   UNL     1      -1.105   0.073   1.664  0.00  0.00    +0.152 HD
BRANCH  22  25
ATOM     25  C   UNL     1      -1.315  -2.566   1.890  0.00  0.00    +0.037 A 
ATOM     26  C   UNL     1      -2.121  -1.879   2.801  0.00  0.00    +0.016 A 
ATOM     27  C   UNL     1      -2.885  -2.581   3.707  0.00  0.00    +0.046 A 
ATOM     28  C   UNL     1      -2.845  -3.970   3.724  0.00  0.00    +0.121 A 
ATOM     29  C   UNL     1      -2.040  -4.657   2.823  0.00  0.00    +0.046 A 
ATOM     30  C   UNL     1      -1.277  -3.963   1.910  0.00  0.00    +0.016 A 
BRANCH  28  31
ATOM     31  O   UNL     1      -3.595  -4.658   4.622  0.00  0.00    -0.489 OA
BRANCH  31  32
ATOM     32  C   UNL     1      -3.607  -6.082   4.502  0.00  0.00    +0.167 C 
ATOM     33  C   UNL     1      -2.542  -6.680   5.423  0.00  0.00    +0.051 C 
ATOM     34  C   UNL     1      -4.984  -6.616   4.900  0.00  0.00    +0.051 C 
ENDBRANCH  31  32
ENDBRANCH  28  31
ENDBRANCH  22  25
ENDBRANCH   4  21
TORSDOF 6
