REMARK  Name = ZINC38886886
REMARK  10 active torsions:
REMARK  status: ('A' for Active; 'I' for Inactive)
REMARK    1  A    between atoms: C_1  and  C_2
REMARK    2  A    between atoms: C_2  and  O_3
REMARK    3  A    between atoms: O_3  and  C_4
REMARK    4  A    between atoms: C_4  and  C_6
REMARK    5  A    between atoms: C_10  and  N_11
REMARK    6  A    between atoms: C_12  and  C_14
REMARK    7  A    between atoms: N_19  and  C_21
REMARK    8  A    between atoms: C_21  and  C_22
REMARK    9  A    between atoms: C_24  and  C_27
REMARK   10  A    between atoms: C_32  and  C_33
REMARK                            x       y       z     vdW  Elec       q    Type
REMARK                         _______ _______ _______ _____ _____    ______ ____
ROOT
ATOM      1  C   UNL     1      -3.803  -3.119  -4.040  0.00  0.00    +0.059 C 
ATOM      2  C   UNL     1      -4.151  -1.637  -3.876  0.00  0.00    +0.009 C 
ATOM      3  C   UNL     1      -5.521  -1.372  -4.508  0.00  0.00    -0.018 C 
ATOM      4  C   UNL     1      -5.491  -1.802  -5.976  0.00  0.00    -0.078 C 
ATOM      5  N   UNL     1      -5.179  -3.234  -6.064  0.00  0.00    +0.386 N 
ATOM      6  C   UNL     1      -3.837  -3.486  -5.525  0.00  0.00    -0.065 C 
ATOM      7  H   UNL     1      -5.857  -3.758  -5.532  0.00  0.00    -0.081 HD
ENDROOT
BRANCH   1   9
ATOM      8  N   UNL     1      -2.156  -3.121  -2.193  0.00  0.00    -0.279 N 
ATOM      9  C   UNL     1      -2.423  -3.375  -3.490  0.00  0.00    +0.219 C 
ATOM     10  O   UNL     1      -1.553  -3.810  -4.214  0.00  0.00    -0.275 OA
ATOM     11  H   UNL     1      -2.853  -2.773  -1.614  0.00  0.00    +0.155 HD
BRANCH   8  16
ATOM     12  C   UNL     1      -0.435  -3.156  -0.392  0.00  0.00    +0.091 A 
ATOM     13  C   UNL     1       0.951  -3.491  -0.114  0.00  0.00    -0.021 A 
ATOM     14  C   UNL     1       1.631  -3.958  -1.182  0.00  0.00    -0.004 A 
ATOM     15  S   UNL     1       0.456  -3.948  -2.503  0.00  0.00    -0.077 S 
ATOM     16  C   UNL     1      -0.888  -3.357  -1.688  0.00  0.00    +0.086 A 
ATOM     17  C   UNL     1       3.067  -4.385  -1.219  0.00  0.00    +0.043 C 
ATOM     18  C   UNL     1       3.758  -3.859   0.048  0.00  0.00    +0.005 C 
ATOM     19  C   UNL     1       2.889  -4.195   1.263  0.00  0.00    +0.005 C 
ATOM     20  C   UNL     1       1.618  -3.344   1.246  0.00  0.00    +0.037 C 
BRANCH  12  21
ATOM     21  C   UNL     1      -1.319  -2.635   0.653  0.00  0.00    +0.342 C 
ATOM     22  O   UNL     1      -1.969  -3.401   1.338  0.00  0.00    -0.245 OA
BRANCH  21  23
ATOM     23  O   UNL     1      -1.411  -1.304   0.856  0.00  0.00    -0.461 OA
BRANCH  23  25
ATOM     24  C   UNL     1      -2.265   0.662   1.973  0.00  0.00    +0.048 C 
ATOM     25  C   UNL     1      -2.292  -0.866   1.892  0.00  0.00    +0.229 C 
ENDBRANCH  23  25
ENDBRANCH  21  23
ENDBRANCH  12  21
ENDBRANCH   8  16
ENDBRANCH   1   9
BRANCH   5  26
ATOM     26  C   UNL     1      -5.228  -3.659  -7.469  0.00  0.00    +0.022 C 
BRANCH  26  27
ATOM     27  C   UNL     1      -6.638  -3.525  -7.985  0.00  0.00    +0.211 A 
ATOM     28  N   UNL     1      -7.142  -2.469  -8.557  0.00  0.00    -0.193 NA
ATOM     29  C   UNL     1      -8.425  -2.696  -8.893  0.00  0.00    +0.202 A 
ATOM     30  N   UNL     1      -8.744  -3.914  -8.531  0.00  0.00    -0.056 NA
ATOM     31  O   UNL     1      -7.582  -4.474  -7.938  0.00  0.00    -0.340 OA
BRANCH  29  32
ATOM     32  C   UNL     1      -9.328  -1.727  -9.563  0.00  0.00    +0.025 A 
ATOM     33  C   UNL     1      -9.400  -0.411  -9.111  0.00  0.00    +0.012 A 
ATOM     34  C   UNL     1     -10.242   0.486  -9.738  0.00  0.00    +0.001 A 
ATOM     35  C   UNL     1     -11.013   0.080 -10.812  0.00  0.00    +0.000 A 
ATOM     36  C   UNL     1     -10.946  -1.226 -11.264  0.00  0.00    +0.004 A 
ATOM     37  C   UNL     1     -10.103  -2.129 -10.649  0.00  0.00    -0.040 A 
ATOM     38  C   UNL     1     -10.025  -3.549 -11.147  0.00  0.00    +0.044 C 
ENDBRANCH  29  32
ENDBRANCH  26  27
ENDBRANCH   5  26
TORSDOF 8
