REMARK  Name = ZINC55504113
REMARK  9 active torsions:
REMARK  status: ('A' for Active; 'I' for Inactive)
REMARK    1  A    between atoms: C_1  and  C_2
REMARK    2  A    between atoms: C_2  and  O_3
REMARK    3  A    between atoms: O_3  and  C_4
REMARK    4  A    between atoms: C_6  and  C_12
REMARK    5  A    between atoms: C_9  and  O_10
REMARK    6  A    between atoms: C_17  and  C_26
REMARK    7  A    between atoms: C_18  and  C_22
REMARK    8  A    between atoms: C_22  and  O_24
REMARK    9  A    between atoms: O_24  and  C_25
REMARK                            x       y       z     vdW  Elec       q    Type
REMARK                         _______ _______ _______ _____ _____    ______ ____
ROOT
ATOM      1  C   UNL     1       0.620  -4.950  -0.019  0.00  0.00    +0.143 A 
ATOM      2  N   UNL     1       1.823  -4.418  -0.017  0.00  0.00    -0.191 NA
ATOM      3  C   UNL     1       2.933  -5.162  -0.026  0.00  0.00    +0.282 A 
ATOM      4  O   UNL     1       4.032  -4.632  -0.024  0.00  0.00    -0.265 OA
ATOM      5  C   UNL     1       2.815  -6.643  -0.039  0.00  0.00    +0.076 A 
ATOM      6  C   UNL     1       3.832  -7.604  -0.049  0.00  0.00    -0.015 A 
ATOM      7  C   UNL     1       3.451  -8.915  -0.059  0.00  0.00    +0.102 A 
ATOM      8  S   UNL     1       1.672  -8.806  -0.054  0.00  0.00    -0.064 S 
ATOM      9  C   UNL     1       1.504  -7.144  -0.040  0.00  0.00    +0.093 A 
ATOM     10  N   UNL     1       0.436  -6.301  -0.025  0.00  0.00    -0.333 N 
ATOM     11  C   UNL     1       5.286  -7.208  -0.050  0.00  0.00    +0.046 C 
ATOM     12  H   UNL     1      -0.464  -6.665  -0.021  0.00  0.00    +0.168 HD
ENDROOT
BRANCH   1  15
ATOM     13  C   UNL     1      -1.498  -1.849   0.006  0.00  0.00    +0.164 A 
ATOM     14  C   UNL     1      -0.391  -2.676  -0.003  0.00  0.00    +0.061 A 
ATOM     15  C   UNL     1      -0.559  -4.063  -0.009  0.00  0.00    +0.022 A 
ATOM     16  C   UNL     1      -1.845  -4.609  -0.005  0.00  0.00    +0.035 A 
ATOM     17  C   UNL     1      -2.946  -3.778   0.004  0.00  0.00    +0.087 A 
ATOM     18  C   UNL     1      -2.779  -2.399   0.016  0.00  0.00    +0.177 A 
ATOM     19 CL   UNL     1      -4.543  -4.458   0.008  0.00  0.00    -0.080 Cl
BRANCH  18  20
ATOM     20  O   UNL     1      -3.866  -1.585   0.030  0.00  0.00    -0.502 OA
ATOM     21  H   UNL     1      -4.189  -1.344  -0.849  0.00  0.00    +0.292 HD
ENDBRANCH  18  20
BRANCH  13  22
ATOM     22  O   UNL     1      -1.339  -0.499   0.012  0.00  0.00    -0.489 OA
BRANCH  22  24
ATOM     23  C   UNL     1      -0.019   1.526   0.010  0.00  0.00    +0.048 C 
ATOM     24  C   UNL     1       0.002  -0.004   0.002  0.00  0.00    +0.226 C 
ENDBRANCH  22  24
ENDBRANCH  13  22
ENDBRANCH   1  15
BRANCH   7  25
ATOM     25  C   UNL     1       4.293 -10.112  -0.072  0.00  0.00    +0.346 C 
ATOM     26  O   UNL     1       5.504 -10.004  -0.074  0.00  0.00    -0.244 OA
BRANCH  25  27
ATOM     27  O   UNL     1       3.725 -11.336  -0.080  0.00  0.00    -0.464 OA
ATOM     28  C   UNL     1       4.608 -12.460  -0.092  0.00  0.00    +0.280 C 
ENDBRANCH  25  27
ENDBRANCH   7  25
TORSDOF 6
