REMARK  Name = ZINC06511823
REMARK  15 active torsions:
REMARK  status: ('A' for Active; 'I' for Inactive)
REMARK    1  A    between atoms: C_1  and  C_2
REMARK    2  A    between atoms: C_2  and  N_3
REMARK    3  A    between atoms: N_3  and  C_4
REMARK    4  A    between atoms: N_3  and  C_6
REMARK    5  A    between atoms: C_4  and  C_5
REMARK    6  A    between atoms: C_6  and  C_7
REMARK    7  A    between atoms: C_7  and  N_8
REMARK    8  A    between atoms: N_8  and  C_9
REMARK    9  A    between atoms: C_9  and  C_11
REMARK   10  A    between atoms: C_9  and  C_18
REMARK   11  A    between atoms: N_20  and  C_21
REMARK   12  A    between atoms: C_26  and  C_28
REMARK   13  A    between atoms: C_28  and  N_29
REMARK   14  A    between atoms: C_31  and  C_34
REMARK   15  A    between atoms: C_37  and  C_39
REMARK                            x       y       z     vdW  Elec       q    Type
REMARK                         _______ _______ _______ _____ _____    ______ ____
ROOT
ATOM      1  N   UNL     1       2.157  -3.642   0.135  0.00  0.00    -0.286 N 
ATOM      2  C   UNL     1       2.228  -4.377   1.263  0.00  0.00    +0.240 C 
ATOM      3  O   UNL     1       1.848  -5.528   1.262  0.00  0.00    -0.273 OA
ENDROOT
BRANCH   1   4
ATOM      4  C   UNL     1       2.616  -2.251   0.136  0.00  0.00    +0.090 C 
BRANCH   4   5
ATOM      5  C   UNL     1       1.651  -1.396   0.959  0.00  0.00    -0.060 C 
BRANCH   5   6
ATOM      6  N   UNL     1       2.105   0.001   0.951  0.00  0.00    +0.380 N 
ATOM      7  H   UNL     1       3.059   0.046   1.277  0.00  0.00    -0.082 HD
BRANCH   6   9
ATOM      8  C   UNL     1       2.501   1.989  -0.423  0.00  0.00    -0.017 C 
ATOM      9  C   UNL     1       2.029   0.533  -0.416  0.00  0.00    -0.082 C 
ENDBRANCH   6   9
BRANCH   6  10
ATOM     10  C   UNL     1       1.248   0.800   1.837  0.00  0.00    -0.082 C 
ATOM     11  C   UNL     1       1.358   0.270   3.268  0.00  0.00    -0.017 C 
ENDBRANCH   6  10
ENDBRANCH   5   6
ENDBRANCH   4   5
ENDBRANCH   1   4
BRANCH   1  12
ATOM     12  C   UNL     1       1.620  -4.235  -1.092  0.00  0.00    +0.192 C 
BRANCH  12  13
ATOM     13  C   UNL     1       2.755  -4.590  -2.017  0.00  0.00    -0.018 A 
ATOM     14  C   UNL     1       3.788  -3.693  -2.219  0.00  0.00    +0.009 A 
ATOM     15  C   UNL     1       4.830  -4.017  -3.067  0.00  0.00    +0.038 A 
ATOM     16  C   UNL     1       4.839  -5.241  -3.714  0.00  0.00    +0.123 A 
ATOM     17  C   UNL     1       3.805  -6.138  -3.512  0.00  0.00    +0.038 A 
ATOM     18  C   UNL     1       2.766  -5.814  -2.659  0.00  0.00    +0.009 A 
ATOM     19  F   UNL     1       5.857  -5.559  -4.544  0.00  0.00    -0.205 F 
ENDBRANCH  12  13
BRANCH  12  20
ATOM     20  C   UNL     1       0.709  -3.245  -1.771  0.00  0.00    +0.238 C 
ATOM     21  O   UNL     1       0.828  -2.059  -1.548  0.00  0.00    -0.273 OA
ATOM     22  N   UNL     1      -0.238  -3.678  -2.627  0.00  0.00    -0.311 N 
ATOM     23  H   UNL     1      -0.333  -4.627  -2.807  0.00  0.00    +0.149 HD
BRANCH  22  24
ATOM     24  C   UNL     1      -1.123  -2.716  -3.288  0.00  0.00    +0.073 C 
ATOM     25  C   UNL     1      -2.357  -2.440  -2.404  0.00  0.00    +0.022 C 
ATOM     26  C   UNL     1      -3.523  -2.295  -3.413  0.00  0.00    +0.002 C 
ATOM     27  C   UNL     1      -3.187  -3.366  -4.480  0.00  0.00    +0.002 C 
ATOM     28  C   UNL     1      -1.651  -3.304  -4.608  0.00  0.00    +0.022 C 
ENDBRANCH  22  24
ENDBRANCH  12  20
ENDBRANCH   1  12
BRANCH   2  29
ATOM     29  C   UNL     1       2.781  -3.767   2.526  0.00  0.00    +0.264 C 
BRANCH  29  30
ATOM     30  N   UNL     1       2.752  -4.761   3.601  0.00  0.00    -0.154 N 
ATOM     31  N   UNL     1       1.770  -4.951   4.414  0.00  0.00    -0.127 NA
ATOM     32  C   UNL     1       2.111  -5.924   5.238  0.00  0.00    +0.239 A 
ATOM     33  N   UNL     1       3.346  -6.312   4.883  0.00  0.00    -0.105 NA
ATOM     34  N   UNL     1       3.701  -5.584   3.879  0.00  0.00    -0.045 NA
BRANCH  32  35
ATOM     35  C   UNL     1       1.292  -6.479   6.337  0.00  0.00    +0.175 A 
ATOM     36  C   UNL     1       1.661  -7.478   7.181  0.00  0.00    +0.053 A 
ATOM     37  C   UNL     1       0.583  -7.683   8.065  0.00  0.00    +0.045 A 
ATOM     38  C   UNL     1      -0.381  -6.806   7.721  0.00  0.00    +0.103 A 
ATOM     39  O   UNL     1       0.053  -6.077   6.681  0.00  0.00    -0.457 OA
ATOM     40  C   UNL     1      -1.721  -6.664   8.396  0.00  0.00    +0.086 C 
ENDBRANCH  32  35
ENDBRANCH  29  30
ENDBRANCH   2  29
TORSDOF 12
