REMARK  Name = ZINC09779143
REMARK  9 active torsions:
REMARK  status: ('A' for Active; 'I' for Inactive)
REMARK    1  A    between atoms: C_1  and  C_2
REMARK    2  A    between atoms: C_2  and  O_3
REMARK    3  A    between atoms: O_3  and  C_4
REMARK    4  A    between atoms: C_6  and  C_11
REMARK    5  A    between atoms: C_9  and  O_10
REMARK    6  A    between atoms: C_11  and  C_12
REMARK    7  A    between atoms: C_11  and  C_24
REMARK    8  A    between atoms: C_13  and  O_23
REMARK    9  A    between atoms: C_25  and  O_35
REMARK                            x       y       z     vdW  Elec       q    Type
REMARK                         _______ _______ _______ _____ _____    ______ ____
ROOT
ATOM      1  C   UNL     1       2.776  -0.825   3.682  0.00  0.00    +0.100 C 
ENDROOT
BRANCH   1   2
ATOM      2  C   UNL     1       4.278  -0.792   3.803  0.00  0.00    +0.091 A 
ATOM      3  C   UNL     1       5.035  -1.769   3.218  0.00  0.00    +0.138 A 
ATOM      4  C   UNL     1       6.497  -1.691   3.365  0.00  0.00    +0.059 A 
ATOM      5  C   UNL     1       7.331  -2.654   2.793  0.00  0.00    +0.015 A 
ATOM      6  C   UNL     1       8.695  -2.552   2.949  0.00  0.00    +0.001 A 
ATOM      7  C   UNL     1       9.241  -1.500   3.670  0.00  0.00    +0.004 A 
ATOM      8  C   UNL     1       8.428  -0.542   4.240  0.00  0.00    +0.047 A 
ATOM      9  C   UNL     1       7.050  -0.627   4.095  0.00  0.00    +0.143 A 
ATOM     10  O   UNL     1       6.240   0.303   4.646  0.00  0.00    -0.422 OA
ATOM     11  C   UNL     1       4.905   0.243   4.513  0.00  0.00    +0.345 A 
ATOM     12  O   UNL     1       4.219   1.110   5.026  0.00  0.00    -0.245 OA
BRANCH   3  13
ATOM     13  O   UNL     1       4.458  -2.776   2.523  0.00  0.00    -0.506 OA
ATOM     14  H   UNL     1       4.339  -2.587   1.582  0.00  0.00    +0.292 HD
ENDBRANCH   3  13
ENDBRANCH   1   2
BRANCH   1  15
ATOM     15  C   UNL     1       2.200  -1.663   4.795  0.00  0.00    +0.091 A 
ATOM     16  C   UNL     1       1.306  -2.658   4.512  0.00  0.00    +0.138 A 
ATOM     17  C   UNL     1       0.774  -3.448   5.634  0.00  0.00    +0.059 A 
ATOM     18  C   UNL     1      -0.143  -4.479   5.418  0.00  0.00    +0.015 A 
ATOM     19  C   UNL     1      -0.621  -5.199   6.490  0.00  0.00    +0.001 A 
ATOM     20  C   UNL     1      -0.197  -4.905   7.777  0.00  0.00    +0.004 A 
ATOM     21  C   UNL     1       0.708  -3.889   8.004  0.00  0.00    +0.047 A 
ATOM     22  C   UNL     1       1.202  -3.150   6.937  0.00  0.00    +0.143 A 
ATOM     23  O   UNL     1       2.090  -2.152   7.141  0.00  0.00    -0.422 OA
ATOM     24  C   UNL     1       2.584  -1.429   6.124  0.00  0.00    +0.345 A 
ATOM     25  O   UNL     1       3.386  -0.543   6.362  0.00  0.00    -0.245 OA
BRANCH  16  26
ATOM     26  O   UNL     1       0.922  -2.909   3.240  0.00  0.00    -0.506 OA
ATOM     27  H   UNL     1       1.476  -3.556   2.782  0.00  0.00    +0.292 HD
ENDBRANCH  16  26
ENDBRANCH   1  15
BRANCH   1  30
ATOM     28  C   UNL     1       1.837   2.722   2.782  0.00  0.00    +0.162 A 
ATOM     29  C   UNL     1       2.334   1.432   2.696  0.00  0.00    +0.054 A 
ATOM     30  C   UNL     1       2.234   0.578   3.778  0.00  0.00    -0.031 A 
ATOM     31  C   UNL     1       1.637   1.008   4.949  0.00  0.00    +0.008 A 
ATOM     32  C   UNL     1       1.139   2.295   5.042  0.00  0.00    +0.049 A 
ATOM     33  C   UNL     1       1.242   3.157   3.963  0.00  0.00    +0.158 A 
BRANCH  33  34
ATOM     34  O   UNL     1       0.757   4.425   4.054  0.00  0.00    -0.503 OA
ATOM     35  H   UNL     1      -0.169   4.512   3.788  0.00  0.00    +0.292 HD
ENDBRANCH  33  34
BRANCH  28  36
ATOM     36  O   UNL     1       1.935   3.563   1.718  0.00  0.00    -0.489 OA
BRANCH  36  38
ATOM     37  C   UNL     1       2.581   4.133  -0.540  0.00  0.00    +0.048 C 
ATOM     38  C   UNL     1       2.563   3.051   0.542  0.00  0.00    +0.226 C 
ENDBRANCH  36  38
ENDBRANCH  28  36
ENDBRANCH   1  30
TORSDOF 8
