REMARK  Name = ZINC09415920
REMARK  5 active torsions:
REMARK  status: ('A' for Active; 'I' for Inactive)
REMARK    1  A    between atoms: C_1  and  C_2
REMARK    2  A    between atoms: C_2  and  C_4
REMARK    3  A    between atoms: C_2  and  N_65
REMARK    4  A    between atoms: C_10  and  C_15
REMARK    5  A    between atoms: C_23  and  C_26
REMARK                            x       y       z     vdW  Elec       q    Type
REMARK                         _______ _______ _______ _____ _____    ______ ____
ROOT
ATOM      1  C   UNL     1       5.069   3.673  -2.435  0.00  0.00    -0.005 C 
ATOM      2  C   UNL     1       5.183   2.697  -1.262  0.00  0.00    -0.004 C 
ENDROOT
BRANCH   2   3
ATOM      3  C   UNL     1       6.159   1.603  -1.611  0.00  0.00    +0.097 A 
ATOM      4  N   UNL     1       7.418   1.931  -2.001  0.00  0.00    -0.312 N 
ATOM      5  H   UNL     1       7.672   2.866  -2.048  0.00  0.00    +0.170 HD
ATOM      6  C   UNL     1       8.319   0.985  -2.322  0.00  0.00    +0.260 A 
ATOM      7  O   UNL     1       9.445   1.296  -2.669  0.00  0.00    -0.267 OA
ATOM      8  C   UNL     1       7.935  -0.392  -2.248  0.00  0.00    +0.080 A 
ATOM      9  C   UNL     1       8.720  -1.585  -2.541  0.00  0.00    +0.004 A 
ATOM     10  C   UNL     1       8.137  -2.800  -2.398  0.00  0.00    +0.056 A 
ATOM     11  S   UNL     1       6.486  -2.404  -1.857  0.00  0.00    -0.076 S 
ATOM     12  C   UNL     1       6.615  -0.634  -1.836  0.00  0.00    +0.116 A 
ATOM     13  N   UNL     1       5.781   0.356  -1.530  0.00  0.00    -0.228 NA
BRANCH   9  14
ATOM     14  C   UNL     1      10.130  -1.472  -2.987  0.00  0.00    -0.017 A 
ATOM     15  C   UNL     1      10.465  -0.619  -4.038  0.00  0.00    +0.008 A 
ATOM     16  C   UNL     1      11.779  -0.514  -4.445  0.00  0.00    +0.001 A 
ATOM     17  C   UNL     1      12.762  -1.260  -3.819  0.00  0.00    +0.000 A 
ATOM     18  C   UNL     1      12.434  -2.112  -2.780  0.00  0.00    +0.001 A 
ATOM     19  C   UNL     1      11.124  -2.221  -2.360  0.00  0.00    +0.008 A 
ENDBRANCH   9  14
ENDBRANCH   2   3
BRANCH   2  25
ATOM     20  C   UNL     1       3.886   1.338   0.265  0.00  0.00    -0.077 C 
ATOM     21  C   UNL     1       2.546   0.622   0.447  0.00  0.00    -0.006 C 
ATOM     22  C   UNL     1       1.420   1.659   0.483  0.00  0.00    +0.072 C 
ATOM     23  C   UNL     1       1.450   2.481  -0.808  0.00  0.00    -0.006 C 
ATOM     24  C   UNL     1       2.823   3.142  -0.954  0.00  0.00    -0.077 C 
ATOM     25  N   UNL     1       3.860   2.090  -1.008  0.00  0.00    +0.386 N 
ATOM     26  H   UNL     1       3.639   1.442  -1.773  0.00  0.00    -0.081 HD
BRANCH  22  27
ATOM     27  C   UNL     1       0.092   0.957   0.601  0.00  0.00    +0.219 C 
ATOM     28  O   UNL     1       0.006  -0.225   0.342  0.00  0.00    -0.275 OA
ATOM     29  N   UNL     1      -1.001   1.643   0.990  0.00  0.00    -0.301 N 
ATOM     30  C   UNL     1      -2.235   0.919   1.199  0.00  0.00    +0.108 C 
ATOM     31  C   UNL     1      -3.034   0.851  -0.119  0.00  0.00    +0.019 C 
ATOM     32  C   UNL     1      -3.581   2.175  -0.454  0.00  0.00    +0.002 C 
ATOM     33  C   UNL     1      -2.525   3.246  -0.706  0.00  0.00    +0.002 C 
ATOM     34  C   UNL     1      -2.107   3.855   0.610  0.00  0.00    +0.019 C 
ATOM     35  C   UNL     1      -0.890   3.102   1.178  0.00  0.00    +0.108 C 
ENDBRANCH  22  27
ENDBRANCH   2  25
TORSDOF 4
