REMARK  Name = ZINC35852019
REMARK  5 active torsions:
REMARK  status: ('A' for Active; 'I' for Inactive)
REMARK    1  A    between atoms: C_1  and  C_2
REMARK    2  A    between atoms: C_2  and  O_3
REMARK    3  A    between atoms: O_3  and  C_4
REMARK    4  A    between atoms: C_9  and  C_10
REMARK    5  A    between atoms: C_10  and  C_12
REMARK                            x       y       z     vdW  Elec       q    Type
REMARK                         _______ _______ _______ _____ _____    ______ ____
ROOT
ATOM      1  C   UNL     1      -5.349  -2.138   0.042  0.00  0.00    +0.066 C 
ATOM      2  C   UNL     1      -5.903  -2.261  -1.398  0.00  0.00    -0.055 C 
ATOM      3  C   UNL     1      -4.728  -2.444  -2.374  0.00  0.00    -0.016 C 
ATOM      4  C   UNL     1      -4.314  -1.020  -2.794  0.00  0.00    -0.020 C 
ATOM      5  C   UNL     1      -5.252  -0.080  -2.011  0.00  0.00    -0.076 C 
ATOM      6  N   UNL     1      -6.460  -0.902  -1.682  0.00  0.00    +0.395 N 
ATOM      7  C   UNL     1      -7.041  -0.434  -0.411  0.00  0.00    +0.060 C 
ATOM      8  C   UNL     1      -6.352  -1.192   0.724  0.00  0.00    +0.085 C 
ATOM      9  C   UNL     1      -7.331  -1.957   1.569  0.00  0.00    -0.011 A 
ATOM     10  C   UNL     1      -8.253  -2.942   1.294  0.00  0.00    +0.006 A 
ATOM     11  C   UNL     1      -9.031  -3.466   2.311  0.00  0.00    +0.000 A 
ATOM     12  C   UNL     1      -8.879  -2.998   3.604  0.00  0.00    +0.002 A 
ATOM     13  C   UNL     1      -7.957  -2.012   3.884  0.00  0.00    +0.023 A 
ATOM     14  C   UNL     1      -7.170  -1.479   2.866  0.00  0.00    +0.038 A 
ATOM     15  N   UNL     1      -6.184  -0.490   2.897  0.00  0.00    -0.285 N 
ATOM     16  C   UNL     1      -5.654  -0.262   1.680  0.00  0.00    +0.228 C 
ATOM     17  O   UNL     1      -4.784   0.537   1.408  0.00  0.00    -0.275 OA
ATOM     18  C   UNL     1      -6.873   1.054  -0.260  0.00  0.00    -0.027 A 
ATOM     19  C   UNL     1      -5.772   1.879  -0.202  0.00  0.00    +0.004 A 
ATOM     20  C   UNL     1      -5.937   3.245  -0.054  0.00  0.00    +0.000 A 
ATOM     21  C   UNL     1      -7.210   3.778   0.034  0.00  0.00    +0.002 A 
ATOM     22  C   UNL     1      -8.316   2.955  -0.024  0.00  0.00    +0.023 A 
ATOM     23  C   UNL     1      -8.158   1.579  -0.171  0.00  0.00    +0.036 A 
ATOM     24  N   UNL     1      -9.104   0.555  -0.252  0.00  0.00    -0.286 N 
ATOM     25  C   UNL     1      -8.532  -0.655  -0.392  0.00  0.00    +0.212 C 
ATOM     26  O   UNL     1      -9.106  -1.720  -0.485  0.00  0.00    -0.277 OA
ATOM     27  H   UNL     1      -5.913  -0.022   3.702  0.00  0.00    +0.155 HD
ATOM     28  H   UNL     1     -10.062   0.699  -0.211  0.00  0.00    +0.155 HD
ATOM     29  H   UNL     1      -7.129  -0.916  -2.437  0.00  0.00    -0.079 HD
ENDROOT
BRANCH   1  30
ATOM     30  C   UNL     1      -3.969  -1.533   0.032  0.00  0.00    +0.169 C 
ATOM     31  O   UNL     1      -3.834  -0.328   0.007  0.00  0.00    -0.292 OA
BRANCH  30  37
ATOM     32  C   UNL     1      -1.498  -1.845   0.044  0.00  0.00    +0.131 A 
ATOM     33  C   UNL     1      -0.389  -2.678   0.070  0.00  0.00    +0.046 A 
ATOM     34  C   UNL     1      -0.553  -4.048   0.099  0.00  0.00    +0.004 A 
ATOM     35  C   UNL     1      -1.822  -4.604   0.102  0.00  0.00    +0.001 A 
ATOM     36  C   UNL     1      -2.936  -3.795   0.076  0.00  0.00    +0.015 A 
ATOM     37  C   UNL     1      -2.787  -2.403   0.053  0.00  0.00    +0.059 A 
BRANCH  32  38
ATOM     38  O   UNL     1      -1.339  -0.499   0.015  0.00  0.00    -0.492 OA
BRANCH  38  40
ATOM     39  C   UNL     1      -0.019   1.526  -0.025  0.00  0.00    +0.048 C 
ATOM     40  C   UNL     1       0.002  -0.004   0.008  0.00  0.00    +0.226 C 
ENDBRANCH  38  40
ENDBRANCH  32  38
ENDBRANCH  30  37
ENDBRANCH   1  30
TORSDOF 4
