REMARK  Name = ZINC18155901
REMARK  3 active torsions:
REMARK  status: ('A' for Active; 'I' for Inactive)
REMARK    1  A    between atoms: C_1  and  C_2
REMARK    2  A    between atoms: C_14  and  C_16
REMARK    3  A    between atoms: C_26  and  C_29
REMARK                            x       y       z     vdW  Elec       q    Type
REMARK                         _______ _______ _______ _____ _____    ______ ____
ROOT
ATOM      1  C   UNL     1       4.108   9.097   2.695  0.00  0.00    +0.110 C 
ATOM      2  C   UNL     1       3.649   8.545   1.370  0.00  0.00    +0.218 C 
ATOM      3  O   UNL     1       4.409   8.529   0.424  0.00  0.00    -0.276 OA
ATOM      4  N   UNL     1       2.395   8.069   1.235  0.00  0.00    -0.258 N 
ATOM      5  C   UNL     1       1.531   8.093   2.331  0.00  0.00    +0.058 A 
ATOM      6  C   UNL     1       1.058   9.287   2.852  0.00  0.00    +0.025 A 
ATOM      7  C   UNL     1       0.119   9.260   3.868  0.00  0.00    +0.002 A 
ATOM      8  C   UNL     1      -0.343   8.054   4.363  0.00  0.00    +0.002 A 
ATOM      9  C   UNL     1       0.143   6.860   3.859  0.00  0.00    +0.025 A 
ATOM     10  C   UNL     1       1.095   6.885   2.854  0.00  0.00    +0.053 A 
ATOM     11  N   UNL     1       1.660   5.727   2.336  0.00  0.00    -0.316 N 
ATOM     12  C   UNL     1       1.508   5.296   1.057  0.00  0.00    +0.017 C 
ATOM     13  C   UNL     1       1.644   6.067  -0.035  0.00  0.00    +0.037 C 
ATOM     14  C   UNL     1       1.968   7.542  -0.044  0.00  0.00    +0.146 C 
ATOM     15  C   UNL     1       1.497   5.506  -1.325  0.00  0.00    +0.163 C 
ATOM     16  O   UNL     1       1.605   6.231  -2.295  0.00  0.00    -0.292 OA
ATOM     17  C   UNL     1       1.213   4.050  -1.541  0.00  0.00    +0.091 C 
ATOM     18  C   UNL     1       1.779   3.259  -0.356  0.00  0.00    +0.068 C 
ATOM     19  C   UNL     1       1.157   3.824   0.920  0.00  0.00    +0.063 C 
ATOM     20  H   UNL     1       2.201   5.185   2.931  0.00  0.00    +0.152 HD
ENDROOT
BRANCH  14  21
ATOM     21  C   UNL     1       0.741   8.298  -0.486  0.00  0.00    -0.022 A 
ATOM     22  C   UNL     1      -0.396   8.290   0.300  0.00  0.00    +0.007 A 
ATOM     23  C   UNL     1      -1.519   8.988  -0.102  0.00  0.00    +0.020 A 
ATOM     24  C   UNL     1      -1.510   9.684  -1.297  0.00  0.00    +0.041 A 
ATOM     25  C   UNL     1      -0.373   9.687  -2.086  0.00  0.00    +0.020 A 
ATOM     26  C   UNL     1       0.751   8.994  -1.680  0.00  0.00    +0.007 A 
ATOM     27 CL   UNL     1      -2.922  10.555  -1.806  0.00  0.00    -0.084 Cl
ENDBRANCH  14  21
BRANCH  18  28
ATOM     28  C   UNL     1       1.422   1.802  -0.497  0.00  0.00    +0.109 A 
ATOM     29  C   UNL     1       2.294   0.779  -0.551  0.00  0.00    +0.045 A 
ATOM     30  C   UNL     1       1.531  -0.403  -0.684  0.00  0.00    +0.041 A 
ATOM     31  C   UNL     1       0.238  -0.033  -0.703  0.00  0.00    +0.195 A 
ATOM     32  O   UNL     1       0.178   1.304  -0.589  0.00  0.00    -0.468 OA
ENDBRANCH  18  28
TORSDOF 2
