REMARK  Name = ZINC11184322
REMARK  12 active torsions:
REMARK  status: ('A' for Active; 'I' for Inactive)
REMARK    1  A    between atoms: C_1  and  C_2
REMARK    2  A    between atoms: C_5  and  C_37
REMARK    3  A    between atoms: C_6  and  N_8
REMARK    4  A    between atoms: C_14  and  C_19
REMARK    5  A    between atoms: C_19  and  O_21
REMARK    6  A    between atoms: O_21  and  C_22
REMARK    7  A    between atoms: C_22  and  C_23
REMARK    8  A    between atoms: N_25  and  C_26
REMARK    9  A    between atoms: C_26  and  C_28
REMARK   10  A    between atoms: C_26  and  C_29
REMARK   11  A    between atoms: C_32  and  C_36
REMARK   12  A    between atoms: C_33  and  C_35
REMARK                            x       y       z     vdW  Elec       q    Type
REMARK                         _______ _______ _______ _____ _____    ______ ____
ROOT
ATOM      1  N   UNL     1      -4.131  -4.413   0.019  0.00  0.00    -0.202 N 
ATOM      2  C   UNL     1      -4.721  -3.204   0.031  0.00  0.00    +0.258 C 
ATOM      3  O   UNL     1      -5.918  -3.000   0.045  0.00  0.00    -0.269 OA
ATOM      4  C   UNL     1      -3.667  -2.165   0.026  0.00  0.00    +0.050 A 
ATOM      5  C   UNL     1      -3.679  -0.779   0.034  0.00  0.00    +0.014 A 
ATOM      6  C   UNL     1      -2.485  -0.078   0.031  0.00  0.00    +0.016 A 
ATOM      7  C   UNL     1      -1.269  -0.761   0.010  0.00  0.00    +0.060 A 
ATOM      8  C   UNL     1      -1.248  -2.159   0.002  0.00  0.00    +0.028 A 
ATOM      9  C   UNL     1      -2.441  -2.861   0.011  0.00  0.00    +0.051 A 
ATOM     10  C   UNL     1      -2.791  -4.297   0.006  0.00  0.00    +0.258 C 
ATOM     11  O   UNL     1      -2.000  -5.219  -0.006  0.00  0.00    -0.269 OA
ENDROOT
BRANCH   1  17
ATOM     12  C   UNL     1      -6.192  -8.110   2.523  0.00  0.00    +0.044 C 
ATOM     13  C   UNL     1      -5.832  -7.446   1.219  0.00  0.00    -0.049 A 
ATOM     14  C   UNL     1      -6.184  -8.040   0.021  0.00  0.00    +0.004 A 
ATOM     15  C   UNL     1      -5.856  -7.434  -1.177  0.00  0.00    +0.005 A 
ATOM     16  C   UNL     1      -5.180  -6.229  -1.181  0.00  0.00    -0.029 A 
ATOM     17  C   UNL     1      -4.821  -5.632   0.020  0.00  0.00    +0.048 A 
ATOM     18  C   UNL     1      -5.152  -6.244   1.222  0.00  0.00    +0.027 A 
ATOM     19  C   UNL     1      -4.829  -5.566  -2.488  0.00  0.00    +0.045 C 
ENDBRANCH   1  17
BRANCH   7  20
ATOM     20  C   UNL     1       0.002  -0.004   0.002  0.00  0.00    +0.340 C 
ATOM     21  O   UNL     1       1.062  -0.597  -0.011  0.00  0.00    -0.245 OA
BRANCH  20  22
ATOM     22  O   UNL     1      -0.016   1.343   0.009  0.00  0.00    -0.452 OA
BRANCH  22  23
ATOM     23  C   UNL     1       1.268   2.019   0.001  0.00  0.00    +0.328 C 
BRANCH  23  24
ATOM     24  C   UNL     1       1.051   3.511   0.011  0.00  0.00    +0.251 C 
ATOM     25  O   UNL     1      -0.076   3.959   0.024  0.00  0.00    -0.272 OA
ATOM     26  N   UNL     1       2.108   4.346   0.005  0.00  0.00    -0.306 N 
ATOM     27  H   UNL     1       3.010   3.988  -0.005  0.00  0.00    +0.149 HD
BRANCH  26  28
ATOM     28  C   UNL     1       1.897   5.796   0.015  0.00  0.00    +0.100 C 
ATOM     29  C   UNL     1       1.685   6.290  -1.417  0.00  0.00    +0.033 C 
BRANCH  28  30
ATOM     30  C   UNL     1       3.104   6.476   0.608  0.00  0.00    -0.027 A 
ATOM     31  C   UNL     1       4.373   6.018   0.305  0.00  0.00    +0.006 A 
ATOM     32  C   UNL     1       5.481   6.644   0.845  0.00  0.00    +0.004 A 
ATOM     33  C   UNL     1       5.319   7.723   1.695  0.00  0.00    -0.048 A 
ATOM     34  C   UNL     1       4.050   8.177   2.002  0.00  0.00    -0.047 A 
ATOM     35  C   UNL     1       2.942   7.553   1.459  0.00  0.00    +0.009 A 
ATOM     36  C   UNL     1       3.874   9.351   2.929  0.00  0.00    +0.044 C 
ATOM     37  C   UNL     1       6.526   8.403   2.287  0.00  0.00    +0.044 C 
ENDBRANCH  28  30
ENDBRANCH  26  28
ENDBRANCH  23  24
ENDBRANCH  22  23
ENDBRANCH  20  22
ENDBRANCH   7  20
TORSDOF 7
