REMARK  Name = ZINC39665829
REMARK  14 active torsions:
REMARK  status: ('A' for Active; 'I' for Inactive)
REMARK    1  A    between atoms: C_1  and  C_2
REMARK    2  A    between atoms: C_2  and  C_4
REMARK    3  A    between atoms: C_2  and  O_33
REMARK    4  A    between atoms: C_4  and  N_5
REMARK    5  A    between atoms: C_6  and  C_8
REMARK    6  A    between atoms: C_19  and  C_21
REMARK    7  A    between atoms: C_21  and  C_23
REMARK    8  A    between atoms: C_21  and  O_26
REMARK    9  A    between atoms: C_23  and  C_24
REMARK   10  A    between atoms: C_23  and  C_25
REMARK   11  A    between atoms: O_26  and  C_27
REMARK   12  A    between atoms: O_33  and  C_34
REMARK   13  A    between atoms: C_37  and  O_40
REMARK   14  A    between atoms: O_40  and  C_41
REMARK                            x       y       z     vdW  Elec       q    Type
REMARK                         _______ _______ _______ _____ _____    ______ ____
ROOT
ATOM      1  C   UNL     1       2.553  -4.915   1.581  0.00  0.00    +0.100 C 
ATOM      2  C   UNL     1       3.658  -4.690   0.524  0.00  0.00    +0.121 C 
ATOM      3  N   UNL     1       4.825  -4.209   1.300  0.00  0.00    -0.297 N 
ATOM      4  C   UNL     1       4.804  -5.021   2.540  0.00  0.00    +0.115 C 
ATOM      5  C   UNL     1       3.310  -5.136   2.902  0.00  0.00    -0.004 C 
ATOM      6  C   UNL     1       3.006  -6.523   3.459  0.00  0.00    -0.010 C 
ATOM      7  C   UNL     1       3.723  -6.697   4.801  0.00  0.00    -0.082 C 
ATOM      8  N   UNL     1       3.270  -5.662   5.738  0.00  0.00    +0.379 N 
ATOM      9  C   UNL     1       3.649  -4.335   5.239  0.00  0.00    -0.082 C 
ATOM     10  C   UNL     1       2.929  -4.061   3.915  0.00  0.00    -0.010 C 
ATOM     11  C   UNL     1       5.708  -3.251   0.955  0.00  0.00    +0.257 C 
ATOM     12  O   UNL     1       6.663  -3.021   1.667  0.00  0.00    -0.272 OA
ATOM     13  H   UNL     1       2.267  -5.711   5.832  0.00  0.00    -0.086 HD
ATOM     14  H   UNL     1       3.697  -5.816   6.639  0.00  0.00    -0.086 HD
ENDROOT
BRANCH   1  16
ATOM     15  N   UNL     1       0.327  -3.840   1.647  0.00  0.00    -0.312 N 
ATOM     16  C   UNL     1       1.667  -3.700   1.681  0.00  0.00    +0.218 C 
ATOM     17  O   UNL     1       2.159  -2.598   1.792  0.00  0.00    -0.275 OA
ATOM     18  H   UNL     1      -0.067  -4.722   1.558  0.00  0.00    +0.149 HD
BRANCH  15  19
ATOM     19  C   UNL     1      -0.535  -2.659   1.744  0.00  0.00    +0.148 C 
BRANCH  19  21
ATOM     20  C   UNL     1      -2.902  -1.858   1.782  0.00  0.00    +0.053 C 
ATOM     21  C   UNL     1      -2.002  -3.091   1.681  0.00  0.00    +0.187 C 
BRANCH  21  22
ATOM     22  O   UNL     1      -2.248  -3.760   0.442  0.00  0.00    -0.488 OA
BRANCH  22  23
ATOM     23  C   UNL     1      -3.266  -4.661   0.418  0.00  0.00    +0.121 A 
ATOM     24  C   UNL     1      -4.088  -4.808   1.526  0.00  0.00    +0.049 A 
ATOM     25  C   UNL     1      -5.122  -5.723   1.502  0.00  0.00    +0.049 A 
ATOM     26  C   UNL     1      -5.339  -6.495   0.371  0.00  0.00    +0.120 A 
ATOM     27  C   UNL     1      -4.518  -6.348  -0.737  0.00  0.00    +0.049 A 
ATOM     28  C   UNL     1      -3.486  -5.429  -0.715  0.00  0.00    +0.049 A 
BRANCH  26  29
ATOM     29  O   UNL     1      -6.357  -7.396   0.347  0.00  0.00    -0.495 OA
ATOM     30  C   UNL     1      -6.522  -8.158  -0.851  0.00  0.00    +0.277 C 
ENDBRANCH  26  29
ENDBRANCH  22  23
ENDBRANCH  21  22
ENDBRANCH  19  21
ENDBRANCH  15  19
ENDBRANCH   1  16
BRANCH  11  31
ATOM     31  C   UNL     1       5.509  -2.464  -0.315  0.00  0.00    +0.261 C 
BRANCH  31  32
ATOM     32  C   UNL     1       5.250  -0.996   0.030  0.00  0.00    +0.033 C 
ATOM     33  C   UNL     1       5.167  -0.176  -1.260  0.00  0.00    +0.011 C 
ATOM     34  C   UNL     1       3.930  -0.877   0.795  0.00  0.00    +0.011 C 
ENDBRANCH  31  32
BRANCH  31  35
ATOM     35  O   UNL     1       6.681  -2.563  -1.125  0.00  0.00    -0.479 OA
BRANCH  35  36
ATOM     36  C   UNL     1       6.498  -2.631  -2.470  0.00  0.00    +0.122 A 
ATOM     37  C   UNL     1       7.594  -2.689  -3.319  0.00  0.00    +0.045 A 
ATOM     38  C   UNL     1       7.404  -2.758  -4.686  0.00  0.00    +0.004 A 
ATOM     39  C   UNL     1       6.124  -2.769  -5.208  0.00  0.00    +0.000 A 
ATOM     40  C   UNL     1       5.030  -2.712  -4.364  0.00  0.00    +0.004 A 
ATOM     41  C   UNL     1       5.214  -2.648  -2.996  0.00  0.00    +0.045 A 
ENDBRANCH  35  36
ENDBRANCH  31  35
ENDBRANCH  11  31
TORSDOF 10
