REMARK  Name = ZINC39674550
REMARK  7 active torsions:
REMARK  status: ('A' for Active; 'I' for Inactive)
REMARK    1  A    between atoms: C_1  and  C_2
REMARK    2  A    between atoms: C_4  and  C_9
REMARK    3  A    between atoms: C_5  and  C_8
REMARK    4  A    between atoms: C_9  and  C_11
REMARK    5  A    between atoms: C_9  and  N_12
REMARK    6  A    between atoms: C_13  and  C_15
REMARK    7  A    between atoms: C_26  and  C_28
REMARK                            x       y       z     vdW  Elec       q    Type
REMARK                         _______ _______ _______ _____ _____    ______ ____
ROOT
ATOM      1  C   UNL     1      -3.948   3.008  -1.765  0.00  0.00    +0.100 C 
ATOM      2  C   UNL     1      -3.665   3.862  -0.509  0.00  0.00    +0.121 C 
ATOM      3  N   UNL     1      -4.744   4.878  -0.497  0.00  0.00    -0.295 N 
ATOM      4  C   UNL     1      -5.953   4.137  -0.929  0.00  0.00    +0.115 C 
ATOM      5  C   UNL     1      -5.451   3.190  -2.037  0.00  0.00    -0.004 C 
ATOM      6  C   UNL     1      -6.170   1.848  -1.948  0.00  0.00    -0.010 C 
ATOM      7  C   UNL     1      -7.652   2.046  -2.280  0.00  0.00    -0.082 C 
ATOM      8  N   UNL     1      -7.784   2.606  -3.630  0.00  0.00    +0.379 N 
ATOM      9  C   UNL     1      -7.170   3.938  -3.680  0.00  0.00    -0.082 C 
ATOM     10  C   UNL     1      -5.667   3.821  -3.409  0.00  0.00    -0.010 C 
ATOM     11  C   UNL     1      -4.647   6.182  -0.168  0.00  0.00    +0.265 C 
ATOM     12  O   UNL     1      -5.647   6.871  -0.117  0.00  0.00    -0.268 OA
ATOM     13  H   UNL     1      -7.322   1.999  -4.291  0.00  0.00    -0.086 HD
ATOM     14  H   UNL     1      -8.761   2.679  -3.869  0.00  0.00    -0.086 HD
ENDROOT
BRANCH  11  15
ATOM     15  C   UNL     1      -3.322   6.775   0.131  0.00  0.00    +0.126 A 
ATOM     16  C   UNL     1      -3.250   8.101   0.582  0.00  0.00    +0.033 A 
ATOM     17  C   UNL     1      -2.036   8.659   0.861  0.00  0.00    +0.012 A 
ATOM     18  C   UNL     1      -0.884   7.870   0.684  0.00  0.00    +0.000 A 
ATOM     19  C   UNL     1       0.397   8.378   0.953  0.00  0.00    +0.010 A 
ATOM     20  C   UNL     1       1.488   7.586   0.770  0.00  0.00    +0.001 A 
ATOM     21  C   UNL     1       1.353   6.273   0.319  0.00  0.00    +0.002 A 
ATOM     22  C   UNL     1       0.129   5.746   0.049  0.00  0.00    +0.028 A 
ATOM     23  C   UNL     1      -1.025   6.534   0.225  0.00  0.00    +0.072 A 
ATOM     24  N   UNL     1      -2.237   6.041  -0.027  0.00  0.00    -0.242 NA
ENDBRANCH  11  15
BRANCH   1  26
ATOM     25  N   UNL     1      -3.392   0.719  -2.521  0.00  0.00    -0.309 N 
ATOM     26  C   UNL     1      -3.636   1.559  -1.495  0.00  0.00    +0.219 C 
ATOM     27  O   UNL     1      -3.604   1.148  -0.354  0.00  0.00    -0.275 OA
ATOM     28  H   UNL     1      -3.417   1.048  -3.433  0.00  0.00    +0.149 HD
BRANCH  25  29
ATOM     29  C   UNL     1      -3.088  -0.690  -2.258  0.00  0.00    +0.100 C 
ATOM     30  C   UNL     1      -4.389  -1.494  -2.226  0.00  0.00    +0.033 C 
BRANCH  29  33
ATOM     31  C   UNL     1      -2.643   0.148  -5.400  0.00  0.00    +0.039 C 
ATOM     32  C   UNL     1      -2.464  -1.265  -4.842  0.00  0.00    +0.154 C 
ATOM     33  C   UNL     1      -2.194  -1.223  -3.348  0.00  0.00    -0.001 C 
ATOM     34  C   UNL     1      -0.982  -1.766  -3.225  0.00  0.00    +0.063 C 
ATOM     35  N   UNL     1      -0.492  -2.126  -4.432  0.00  0.00    -0.159 NA
ATOM     36  N   UNL     1      -1.245  -1.889  -5.384  0.00  0.00    -0.180 NA
ATOM     37  C   UNL     1      -0.257  -1.954  -1.917  0.00  0.00    +0.067 C 
ENDBRANCH  29  33
ENDBRANCH  25  29
ENDBRANCH   1  26
TORSDOF 4
