REMARK  Name = ZINC08614329
REMARK  7 active torsions:
REMARK  status: ('A' for Active; 'I' for Inactive)
REMARK    1  A    between atoms: C_1  and  C_2
REMARK    2  A    between atoms: C_4  and  C_35
REMARK    3  A    between atoms: C_9  and  C_13
REMARK    4  A    between atoms: N_15  and  C_16
REMARK    5  A    between atoms: C_17  and  C_25
REMARK    6  A    between atoms: N_27  and  C_28
REMARK    7  A    between atoms: C_28  and  C_29
REMARK                            x       y       z     vdW  Elec       q    Type
REMARK                         _______ _______ _______ _____ _____    ______ ____
ROOT
ATOM      1  C   UNL     1      -0.768  -4.524   6.056  0.00  0.00    +0.085 A 
ATOM      2  C   UNL     1      -0.800  -3.910   7.298  0.00  0.00    +0.069 A 
ATOM      3  C   UNL     1      -1.117  -4.745   8.444  0.00  0.00    -0.023 A 
ATOM      4  C   UNL     1      -1.344  -6.040   8.137  0.00  0.00    -0.004 A 
ATOM      5  S   UNL     1      -1.146  -6.127   6.381  0.00  0.00    -0.077 S 
ATOM      6  C   UNL     1      -1.689  -7.143   9.089  0.00  0.00    +0.043 C 
ATOM      7  C   UNL     1      -1.379  -6.663  10.515  0.00  0.00    +0.005 C 
ATOM      8  C   UNL     1      -1.978  -5.268  10.709  0.00  0.00    +0.005 C 
ATOM      9  C   UNL     1      -1.198  -4.246   9.879  0.00  0.00    +0.037 C 
ENDROOT
BRANCH   1  12
ATOM     10  C   UNL     1      -0.512  -4.699   3.710  0.00  0.00    +0.284 C 
ATOM     11  O   UNL     1      -0.770  -5.885   3.780  0.00  0.00    -0.266 OA
ATOM     12  N   UNL     1      -0.494  -3.946   4.828  0.00  0.00    -0.273 N 
ATOM     13  H   UNL     1      -0.288  -3.000   4.772  0.00  0.00    +0.156 HD
BRANCH  10  22
ATOM     14  C   UNL     1      -0.018   1.503   0.010  0.00  0.00    +0.044 C 
ATOM     15  C   UNL     1       0.002  -0.004   0.002  0.00  0.00    -0.047 A 
ATOM     16  C   UNL     1       0.006  -0.683  -1.208  0.00  0.00    +0.007 A 
ATOM     17  C   UNL     1       0.020  -2.050  -1.234  0.00  0.00    -0.036 A 
ATOM     18  C   UNL     1       0.032  -2.762  -0.036  0.00  0.00    +0.067 A 
ATOM     19  C   UNL     1       0.032  -4.238  -0.014  0.00  0.00    +0.193 A 
ATOM     20  O   UNL     1       0.250  -4.899  -1.014  0.00  0.00    -0.287 OA
ATOM     21  C   UNL     1      -0.245  -4.865   1.290  0.00  0.00    +0.103 A 
ATOM     22  C   UNL     1      -0.218  -4.081   2.396  0.00  0.00    +0.194 A 
ATOM     23  O   UNL     1       0.062  -2.772   2.351  0.00  0.00    -0.450 OA
ATOM     24  C   UNL     1       0.035  -2.083   1.195  0.00  0.00    +0.140 A 
ATOM     25  C   UNL     1       0.023  -0.691   1.196  0.00  0.00    +0.050 A 
ATOM     26  C   UNL     1       0.023  -2.783  -2.551  0.00  0.00    +0.044 C 
ENDBRANCH  10  22
ENDBRANCH   1  12
BRANCH   2  27
ATOM     27  C   UNL     1      -0.525  -2.477   7.450  0.00  0.00    +0.247 C 
ATOM     28  O   UNL     1      -1.435  -1.672   7.383  0.00  0.00    -0.270 OA
ATOM     29  N   UNL     1       0.736  -2.052   7.664  0.00  0.00    -0.309 N 
ATOM     30  H   UNL     1       1.462  -2.694   7.717  0.00  0.00    +0.149 HD
BRANCH  29  31
ATOM     31  C   UNL     1       1.011  -0.621   7.816  0.00  0.00    +0.136 C 
BRANCH  31  32
ATOM     32  C   UNL     1       2.509  -0.411   8.046  0.00  0.00    +0.135 C 
ATOM     33  C   UNL     1       2.791   1.080   8.327  0.00  0.00    +0.035 C 
ATOM     34  C   UNL     1       4.122   1.313   7.561  0.00  0.00    +0.031 C 
ATOM     35  C   UNL     1       3.933   0.369   6.348  0.00  0.00    +0.160 C 
ATOM     36  O   UNL     1       3.238  -0.778   6.869  0.00  0.00    -0.375 OA
ENDBRANCH  31  32
ENDBRANCH  29  31
ENDBRANCH   2  27
TORSDOF 5
