REMARK  Name = ZINC26580701
REMARK  5 active torsions:
REMARK  status: ('A' for Active; 'I' for Inactive)
REMARK    1  A    between atoms: C_4  and  C_7
REMARK    2  A    between atoms: C_7  and  N_8
REMARK    3  A    between atoms: N_14  and  C_17
REMARK    4  A    between atoms: C_17  and  C_18
REMARK    5  A    between atoms: N_20  and  C_21
REMARK                            x       y       z     vdW  Elec       q    Type
REMARK                         _______ _______ _______ _____ _____    ______ ____
ROOT
ATOM      1  N   UNL     1       6.683  -0.868  -2.282  0.00  0.00    -0.220 N 
ATOM      2  C   UNL     1       6.060  -0.970  -1.090  0.00  0.00    +0.247 C 
ATOM      3  O   UNL     1       6.392  -1.651  -0.143  0.00  0.00    -0.273 OA
ATOM      4  C   UNL     1       4.859  -0.058  -1.184  0.00  0.00    +0.109 C 
ATOM      5  C   UNL     1       4.944   1.046  -0.134  0.00  0.00    +0.017 C 
ATOM      6  C   UNL     1       3.703   1.937  -0.234  0.00  0.00    -0.076 C 
ATOM      7  N   UNL     1       2.497   1.121  -0.041  0.00  0.00    +0.386 N 
ATOM      8  C   UNL     1       2.372   0.099  -1.089  0.00  0.00    -0.076 C 
ATOM      9  C   UNL     1       3.569  -0.854  -1.017  0.00  0.00    +0.017 C 
ATOM     10  N   UNL     1       4.944   0.509  -2.535  0.00  0.00    -0.285 N 
ATOM     11  C   UNL     1       6.044  -0.024  -3.102  0.00  0.00    +0.310 C 
ATOM     12  O   UNL     1       6.414   0.232  -4.231  0.00  0.00    -0.252 OA
ATOM     13  H   UNL     1       4.182   1.222  -2.882  0.00  0.00    +0.151 HD
ATOM     14  H   UNL     1       2.596   0.600   0.923  0.00  0.00    -0.081 HD
ENDROOT
BRANCH   1  15
ATOM     15  C   UNL     1       7.908  -1.590  -2.635  0.00  0.00    +0.153 C 
BRANCH  15  19
ATOM     16  C   UNL     1      11.309   0.760  -1.558  0.00  0.00    +0.000 A 
ATOM     17  C   UNL     1      10.769  -0.131  -0.650  0.00  0.00    +0.000 A 
ATOM     18  C   UNL     1       9.668  -0.891  -0.999  0.00  0.00    +0.005 A 
ATOM     19  C   UNL     1       9.107  -0.760  -2.255  0.00  0.00    -0.030 A 
ATOM     20  C   UNL     1       9.650   0.127  -3.165  0.00  0.00    +0.005 A 
ATOM     21  C   UNL     1      10.748   0.892  -2.815  0.00  0.00    +0.000 A 
ENDBRANCH  15  19
ENDBRANCH   1  15
BRANCH   7  22
ATOM     22  C   UNL     1       1.295   1.963   0.019  0.00  0.00    +0.019 C 
BRANCH  22  23
ATOM     23  C   UNL     1       1.338   2.812   1.263  0.00  0.00    +0.201 C 
ATOM     24  O   UNL     1       2.216   2.642   2.083  0.00  0.00    -0.278 OA
ATOM     25  N   UNL     1       0.398   3.756   1.468  0.00  0.00    -0.287 N 
ATOM     26  H   UNL     1      -0.440   3.859   0.763  0.00  0.00    +0.155 HD
BRANCH  25  27
ATOM     27  C   UNL     1       0.488   4.604   2.577  0.00  0.00    +0.033 A 
ATOM     28  C   UNL     1       0.985   4.124   3.781  0.00  0.00    +0.024 A 
ATOM     29  C   UNL     1       1.078   4.966   4.873  0.00  0.00    +0.017 A 
ATOM     30  C   UNL     1       0.667   6.283   4.770  0.00  0.00    +0.018 A 
ATOM     31  C   UNL     1       0.167   6.762   3.572  0.00  0.00    +0.017 A 
ATOM     32  C   UNL     1       0.077   5.927   2.476  0.00  0.00    +0.024 A 
ATOM     33 BR   UNL     1       0.789   7.430   6.268  0.00  0.00    -0.050 Br
ENDBRANCH  25  27
ENDBRANCH  22  23
ENDBRANCH   7  22
TORSDOF 5
