REMARK  Name = ZINC39486261
REMARK  8 active torsions:
REMARK  status: ('A' for Active; 'I' for Inactive)
REMARK    1  A    between atoms: C_1  and  C_2
REMARK    2  A    between atoms: C_2  and  O_3
REMARK    3  A    between atoms: O_3  and  C_4
REMARK    4  A    between atoms: C_8  and  C_10
REMARK    5  A    between atoms: C_20  and  O_33
REMARK    6  A    between atoms: C_22  and  C_24
REMARK    7  A    between atoms: C_24  and  C_26
REMARK    8  A    between atoms: C_31  and  O_32
REMARK                            x       y       z     vdW  Elec       q    Type
REMARK                         _______ _______ _______ _____ _____    ______ ____
ROOT
ATOM      1  C   UNL     1      -4.316  -4.366   0.008  0.00  0.00    +0.063 C 
ATOM      2  C   UNL     1      -4.488  -5.203   1.247  0.00  0.00    -0.025 A 
ATOM      3  C   UNL     1      -3.916  -4.776   2.429  0.00  0.00    +0.054 A 
ATOM      4  C   UNL     1      -4.058  -5.522   3.590  0.00  0.00    +0.167 A 
ATOM      5  C   UNL     1      -4.785  -6.715   3.573  0.00  0.00    +0.167 A 
ATOM      6  C   UNL     1      -5.362  -7.151   2.398  0.00  0.00    +0.061 A 
ATOM      7  C   UNL     1      -5.214  -6.397   1.228  0.00  0.00    +0.028 A 
ATOM      8  C   UNL     1      -5.822  -6.872  -0.027  0.00  0.00    +0.192 C 
ATOM      9  O   UNL     1      -6.275  -7.994  -0.119  0.00  0.00    -0.289 OA
ATOM     10  C   UNL     1      -5.862  -5.913  -1.198  0.00  0.00    +0.197 C 
ATOM     11  C   UNL     1      -4.502  -5.204  -1.254  0.00  0.00    +0.108 C 
ATOM     12  O   UNL     1      -4.775  -7.250   4.830  0.00  0.00    -0.453 OA
ATOM     13  C   UNL     1      -3.696  -6.590   5.518  0.00  0.00    +0.466 C 
ATOM     14  O   UNL     1      -3.596  -5.315   4.856  0.00  0.00    -0.453 OA
ENDROOT
BRANCH   1  19
ATOM     15  C   UNL     1      -1.498  -1.848   0.006  0.00  0.00    +0.121 A 
ATOM     16  C   UNL     1      -0.387  -2.679  -0.003  0.00  0.00    +0.045 A 
ATOM     17  C   UNL     1      -0.552  -4.051  -0.008  0.00  0.00    +0.004 A 
ATOM     18  C   UNL     1      -1.823  -4.596  -0.004  0.00  0.00    +0.004 A 
ATOM     19  C   UNL     1      -2.932  -3.769   0.004  0.00  0.00    -0.036 A 
ATOM     20  C   UNL     1      -2.772  -2.397   0.016  0.00  0.00    +0.050 A 
BRANCH  15  21
ATOM     21  O   UNL     1      -1.339  -0.499   0.012  0.00  0.00    -0.492 OA
BRANCH  21  23
ATOM     22  C   UNL     1      -0.019   1.526   0.010  0.00  0.00    +0.048 C 
ATOM     23  C   UNL     1       0.002  -0.004   0.002  0.00  0.00    +0.225 C 
ENDBRANCH  21  23
ENDBRANCH  15  21
ENDBRANCH   1  19
BRANCH  11  24
ATOM     24  C   UNL     1      -4.454  -4.307  -2.464  0.00  0.00    +0.173 C 
ATOM     25  O   UNL     1      -4.740  -3.133  -2.361  0.00  0.00    -0.292 OA
BRANCH  24  26
ATOM     26  C   UNL     1      -4.062  -4.854  -3.768  0.00  0.00    +0.059 A 
ATOM     27  C   UNL     1      -3.737  -6.211  -3.894  0.00  0.00    +0.015 A 
ATOM     28  C   UNL     1      -3.370  -6.717  -5.121  0.00  0.00    +0.001 A 
ATOM     29  C   UNL     1      -3.320  -5.891  -6.233  0.00  0.00    +0.004 A 
ATOM     30  C   UNL     1      -3.637  -4.551  -6.124  0.00  0.00    +0.046 A 
ATOM     31  C   UNL     1      -4.015  -4.023  -4.899  0.00  0.00    +0.127 A 
BRANCH  31  32
ATOM     32  O   UNL     1      -4.332  -2.709  -4.792  0.00  0.00    -0.506 OA
ATOM     33  H   UNL     1      -3.580  -2.138  -4.587  0.00  0.00    +0.292 HD
ENDBRANCH  31  32
ENDBRANCH  24  26
ENDBRANCH  11  24
BRANCH  10  34
ATOM     34  O   UNL     1      -6.905  -4.955  -1.005  0.00  0.00    -0.383 OA
ATOM     35  H   UNL     1      -7.787  -5.343  -0.929  0.00  0.00    +0.210 HD
ENDBRANCH  10  34
TORSDOF 7
