REMARK  Name = ZINC49263250
REMARK  6 active torsions:
REMARK  status: ('A' for Active; 'I' for Inactive)
REMARK    1  A    between atoms: C_1  and  C_2
REMARK    2  A    between atoms: C_3  and  N_12
REMARK    3  A    between atoms: C_5  and  C_9
REMARK    4  A    between atoms: N_15  and  C_16
REMARK    5  A    between atoms: C_16  and  C_17
REMARK    6  A    between atoms: C_20  and  C_22
REMARK                            x       y       z     vdW  Elec       q    Type
REMARK                         _______ _______ _______ _____ _____    ______ ____
ROOT
ATOM      1  C   UNL     1      -1.262   1.188  -0.146  0.00  0.00    +0.048 C 
ATOM      2  C   UNL     1      -0.582  -0.154  -0.073  0.00  0.00    +0.006 A 
ATOM      3  C   UNL     1       0.019  -0.689  -1.206  0.00  0.00    +0.041 A 
ATOM      4  C   UNL     1       0.646  -1.923  -1.141  0.00  0.00    +0.036 A 
ATOM      5  C   UNL     1       0.673  -2.626   0.064  0.00  0.00    +0.041 A 
ATOM      6  C   UNL     1       0.068  -2.082   1.197  0.00  0.00    +0.051 A 
ATOM      7  C   UNL     1      -0.551  -0.848   1.125  0.00  0.00    +0.129 A 
ATOM      8  F   UNL     1      -1.132  -0.320   2.224  0.00  0.00    -0.205 F 
ENDROOT
BRANCH   3   9
ATOM      9  N   UNL     1      -0.010   0.019  -2.413  0.00  0.00    -0.269 N 
ATOM     10  C   UNL     1       0.095  -0.641  -3.584  0.00  0.00    +0.304 C 
ATOM     11  O   UNL     1       0.112  -1.857  -3.597  0.00  0.00    -0.253 OA
ATOM     12  N   UNL     1       0.181   0.047  -4.739  0.00  0.00    -0.299 N 
ATOM     13  H   UNL     1      -0.106   0.984  -2.407  0.00  0.00    +0.156 HD
ATOM     14  H   UNL     1       0.167   1.017  -4.729  0.00  0.00    +0.150 HD
BRANCH  12  15
ATOM     15  C   UNL     1       0.295  -0.670  -6.012  0.00  0.00    +0.109 C 
BRANCH  15  16
ATOM     16  C   UNL     1       0.376   0.338  -7.160  0.00  0.00    +0.009 C 
ATOM     17  C   UNL     1       1.665   0.368  -7.984  0.00  0.00    +0.009 C 
ATOM     18  C   UNL     1       0.384  -0.216  -8.586  0.00  0.00    -0.009 C 
ATOM     19  C   UNL     1       0.311  -1.734  -8.756  0.00  0.00    +0.008 C 
ENDBRANCH  15  16
ENDBRANCH  12  15
ENDBRANCH   3   9
BRANCH   5  20
ATOM     20  C   UNL     1       1.340  -3.943   0.139  0.00  0.00    +0.242 C 
ATOM     21  O   UNL     1       1.867  -4.415  -0.850  0.00  0.00    -0.270 OA
ATOM     22  N   UNL     1       1.365  -4.620   1.304  0.00  0.00    -0.325 N 
ATOM     23  H   UNL     1       0.945  -4.243   2.093  0.00  0.00    +0.145 HD
ATOM     24  H   UNL     1       1.803  -5.484   1.354  0.00  0.00    +0.145 HD
ENDBRANCH   5  20
TORSDOF 4
