REMARK  Name = ZINC35925329
REMARK  6 active torsions:
REMARK  status: ('A' for Active; 'I' for Inactive)
REMARK    1  A    between atoms: C_4  and  N_7
REMARK    2  A    between atoms: N_10  and  C_13
REMARK    3  A    between atoms: C_13  and  C_14
REMARK    4  A    between atoms: C_28  and  C_30
REMARK    5  A    between atoms: C_30  and  S_31
REMARK    6  A    between atoms: S_31  and  C_32
REMARK                            x       y       z     vdW  Elec       q    Type
REMARK                         _______ _______ _______ _____ _____    ______ ____
ROOT
ATOM      1  C   UNL     1       7.013  -4.029  -1.707  0.00  0.00    +0.034 A 
ATOM      2  C   UNL     1       6.554  -5.007  -2.540  0.00  0.00    +0.091 A 
ATOM      3  C   UNL     1       6.790  -6.352  -2.204  0.00  0.00    +0.253 A 
ATOM      4  O   UNL     1       6.394  -7.252  -2.926  0.00  0.00    -0.268 OA
ATOM      5  N   UNL     1       7.462  -6.628  -1.066  0.00  0.00    -0.295 N 
ATOM      6  H   UNL     1       7.636  -7.548  -0.814  0.00  0.00    +0.172 HD
ATOM      7  C   UNL     1       7.895  -5.610  -0.273  0.00  0.00    +0.198 A 
ATOM      8  N   UNL     1       7.675  -4.352  -0.599  0.00  0.00    -0.223 NA
ATOM      9  N   UNL     1       8.576  -5.898   0.879  0.00  0.00    -0.298 N 
ATOM     10  C   UNL     1       8.949  -7.282   1.201  0.00  0.00    +0.127 C 
ATOM     11  C   UNL     1      10.464  -7.340   1.435  0.00  0.00    +0.127 C 
ATOM     12  N   UNL     1      10.836  -6.270   2.372  0.00  0.00    -0.298 N 
ATOM     13  C   UNL     1      10.463  -4.886   2.049  0.00  0.00    +0.127 C 
ATOM     14  C   UNL     1       8.953  -4.827   1.812  0.00  0.00    +0.127 C 
ATOM     15  C   UNL     1      11.506  -6.553   3.506  0.00  0.00    +0.226 C 
ATOM     16  O   UNL     1      11.808  -7.700   3.762  0.00  0.00    -0.275 OA
ENDROOT
BRANCH   1  17
ATOM     17  C   UNL     1       6.774  -2.579  -2.045  0.00  0.00    -0.022 C 
BRANCH  17  21
ATOM     18  N   UNL     1       3.666  -0.609  -0.054  0.00  0.00    -0.333 N 
ATOM     19  C   UNL     1       4.945   0.109  -0.173  0.00  0.00    +0.086 C 
ATOM     20  C   UNL     1       5.763  -0.539  -1.294  0.00  0.00    -0.059 C 
ATOM     21  N   UNL     1       5.898  -1.978  -1.031  0.00  0.00    +0.385 N 
ATOM     22  C   UNL     1       4.579  -2.621  -1.081  0.00  0.00    -0.059 C 
ATOM     23  C   UNL     1       3.702  -2.075   0.056  0.00  0.00    +0.086 C 
ATOM     24  H   UNL     1       6.303  -2.115  -0.117  0.00  0.00    -0.081 HD
BRANCH  18  28
ATOM     25  C   UNL     1       0.049   1.453  -0.009  0.00  0.00    +0.000 A 
ATOM     26  C   UNL     1       0.055   0.070  -0.023  0.00  0.00    +0.002 A 
ATOM     27  C   UNL     1       1.253  -0.617  -0.038  0.00  0.00    +0.023 A 
ATOM     28  C   UNL     1       2.453   0.083  -0.039  0.00  0.00    +0.030 A 
ATOM     29  C   UNL     1       2.443   1.472  -0.025  0.00  0.00    +0.023 A 
ATOM     30  C   UNL     1       1.242   2.153  -0.010  0.00  0.00    +0.002 A 
ENDBRANCH  18  28
ENDBRANCH  17  21
ENDBRANCH   1  17
BRANCH  15  31
ATOM     31  C   UNL     1      11.881  -5.446   4.456  0.00  0.00    +0.170 C 
BRANCH  31  32
ATOM     32  S   UNL     1      12.768  -6.142   5.877  0.00  0.00    -0.116 S 
BRANCH  32  33
ATOM     33  C   UNL     1      13.132  -4.741   6.881  0.00  0.00    +0.008 A 
ATOM     34  C   UNL     1      12.726  -3.473   6.481  0.00  0.00    +0.015 A 
ATOM     35  C   UNL     1      13.013  -2.377   7.271  0.00  0.00    +0.001 A 
ATOM     36  C   UNL     1      13.703  -2.540   8.458  0.00  0.00    +0.000 A 
ATOM     37  C   UNL     1      14.108  -3.800   8.859  0.00  0.00    +0.001 A 
ATOM     38  C   UNL     1      13.820  -4.901   8.078  0.00  0.00    +0.015 A 
ENDBRANCH  32  33
ENDBRANCH  31  32
ENDBRANCH  15  31
TORSDOF 6
