REMARK  Name = ZINC02323915
REMARK  9 active torsions:
REMARK  status: ('A' for Active; 'I' for Inactive)
REMARK    1  A    between atoms: C_1  and  C_2
REMARK    2  A    between atoms: C_2  and  C_4
REMARK    3  A    between atoms: C_2  and  O_29
REMARK    4  A    between atoms: C_4  and  N_5
REMARK    5  A    between atoms: C_6  and  C_8
REMARK    6  A    between atoms: C_21  and  C_25
REMARK    7  A    between atoms: C_25  and  C_26
REMARK    8  A    between atoms: C_25  and  C_27
REMARK    9  A    between atoms: C_25  and  C_28
REMARK                            x       y       z     vdW  Elec       q    Type
REMARK                         _______ _______ _______ _____ _____    ______ ____
ROOT
ATOM      1  C   UNL     1       2.699  -5.412  -5.768  0.00  0.00    +0.237 A 
ATOM      2  N   UNL     1       2.350  -4.502  -4.850  0.00  0.00    -0.202 NA
ATOM      3  C   UNL     1       3.292  -3.589  -4.758  0.00  0.00    +0.168 A 
ATOM      4  C   UNL     1       3.448  -2.374  -3.931  0.00  0.00    +0.055 A 
ATOM      5  C   UNL     1       2.561  -1.851  -2.957  0.00  0.00    -0.024 A 
ATOM      6  C   UNL     1       2.924  -0.713  -2.323  0.00  0.00    -0.004 A 
ATOM      7  S   UNL     1       4.500  -0.295  -3.022  0.00  0.00    -0.073 S 
ATOM      8  C   UNL     1       4.637  -1.658  -4.151  0.00  0.00    +0.114 A 
ATOM      9  N   UNL     1       5.545  -2.050  -5.036  0.00  0.00    -0.228 NA
ATOM     10  C   UNL     1       5.393  -3.125  -5.758  0.00  0.00    +0.226 A 
ATOM     11  N   UNL     1       4.285  -3.909  -5.642  0.00  0.00    -0.201 N 
ATOM     12  N   UNL     1       3.873  -5.090  -6.277  0.00  0.00    -0.139 NA
ATOM     13  C   UNL     1       2.162   0.026  -1.267  0.00  0.00    +0.046 C 
ATOM     14  C   UNL     1       0.718  -0.497  -1.257  0.00  0.00    -0.000 C 
ATOM     15  C   UNL     1       0.748  -2.029  -1.264  0.00  0.00    +0.009 C 
ATOM     16  C   UNL     1       1.237  -2.534  -2.621  0.00  0.00    +0.037 C 
ENDROOT
BRANCH   1  18
ATOM     17  N   UNL     1       2.349  -7.443  -7.093  0.00  0.00    -0.306 N 
ATOM     18  C   UNL     1       1.893  -6.593  -6.152  0.00  0.00    +0.283 C 
ATOM     19  O   UNL     1       0.821  -6.797  -5.618  0.00  0.00    -0.267 OA
ATOM     20  H   UNL     1       3.205  -7.280  -7.519  0.00  0.00    +0.149 HD
BRANCH  17  21
ATOM     21  C   UNL     1       1.552  -8.612  -7.473  0.00  0.00    +0.135 C 
BRANCH  21  23
ATOM     22  C   UNL     1       1.460 -10.625  -8.950  0.00  0.00    +0.039 C 
ATOM     23  C   UNL     1       2.292  -9.404  -8.553  0.00  0.00    +0.128 C 
BRANCH  23  24
ATOM     24  O   UNL     1       2.495  -8.573  -9.698  0.00  0.00    -0.391 OA
ATOM     25  H   UNL     1       1.677  -8.244 -10.095  0.00  0.00    +0.210 HD
ENDBRANCH  23  24
ENDBRANCH  21  23
ENDBRANCH  17  21
ENDBRANCH   1  18
BRANCH  14  26
ATOM     26  C   UNL     1       0.002  -0.004   0.002  0.00  0.00    -0.035 C 
ATOM     27  C   UNL     1      -0.019   1.526   0.010  0.00  0.00    +0.011 C 
ATOM     28  C   UNL     1       0.742  -0.511   1.242  0.00  0.00    +0.011 C 
ATOM     29  C   UNL     1      -1.433  -0.534   0.013  0.00  0.00    +0.011 C 
ENDBRANCH  14  26
TORSDOF 5
