REMARK  Name = ZINC20758658
REMARK  7 active torsions:
REMARK  status: ('A' for Active; 'I' for Inactive)
REMARK    1  A    between atoms: C_1  and  C_2
REMARK    2  A    between atoms: C_2  and  C_3
REMARK    3  A    between atoms: C_3  and  C_5
REMARK    4  A    between atoms: C_3  and  S_13
REMARK    5  A    between atoms: S_13  and  C_14
REMARK    6  A    between atoms: C_18  and  C_22
REMARK    7  A    between atoms: N_25  and  C_26
REMARK                            x       y       z     vdW  Elec       q    Type
REMARK                         _______ _______ _______ _____ _____    ______ ____
ROOT
ATOM      1  C   UNL     1      -4.602   2.608   2.212  0.00  0.00    +0.178 A 
ATOM      2  N   UNL     1      -3.573   2.937   2.955  0.00  0.00    -0.201 NA
ATOM      3  C   UNL     1      -2.309   2.832   2.518  0.00  0.00    +0.187 A 
ATOM      4  C   UNL     1      -2.059   2.352   1.225  0.00  0.00    +0.082 A 
ATOM      5  C   UNL     1      -0.665   2.340   1.044  0.00  0.00    +0.046 A 
ATOM      6  N   UNL     1      -0.105   2.792   2.132  0.00  0.00    -0.279 N 
ATOM      7  N   UNL     1      -1.096   3.102   3.073  0.00  0.00    -0.153 NA
ATOM      8  H   UNL     1       0.990   2.875   2.194  0.00  0.00    +0.189 HD
ATOM      9  C   UNL     1       0.057   1.913  -0.208  0.00  0.00    +0.066 C 
ATOM     10  C   UNL     1      -3.207   1.987   0.384  0.00  0.00    +0.124 A 
ATOM     11  N   UNL     1      -3.043   1.545  -0.839  0.00  0.00    -0.384 N 
ATOM     12  N   UNL     1      -4.471   2.124   0.939  0.00  0.00    -0.275 N 
ATOM     13  H   UNL     1      -3.919   1.278  -1.449  0.00  0.00    +0.157 HD
ATOM     14  H   UNL     1      -2.031   1.442  -1.255  0.00  0.00    +0.157 HD
ENDROOT
BRANCH  12  15
ATOM     15  C   UNL     1      -5.607   1.784   0.194  0.00  0.00    +0.050 A 
ATOM     16  C   UNL     1      -5.825   0.464  -0.179  0.00  0.00    +0.027 A 
ATOM     17  C   UNL     1      -6.949   0.131  -0.909  0.00  0.00    +0.017 A 
ATOM     18  C   UNL     1      -7.852   1.112  -1.278  0.00  0.00    +0.018 A 
ATOM     19  C   UNL     1      -7.635   2.429  -0.912  0.00  0.00    +0.017 A 
ATOM     20  C   UNL     1      -6.515   2.767  -0.177  0.00  0.00    +0.027 A 
ATOM     21 BR   UNL     1      -9.386   0.653  -2.284  0.00  0.00    -0.050 Br
ENDBRANCH  12  15
BRANCH   1  22
ATOM     22  S   UNL     1      -6.221   2.791   2.883  0.00  0.00    -0.075 S 
BRANCH  22  23
ATOM     23  C   UNL     1      -5.806   3.287   4.574  0.00  0.00    +0.140 C 
BRANCH  23  24
ATOM     24  C   UNL     1      -5.165   2.129   5.294  0.00  0.00    +0.229 C 
ATOM     25  O   UNL     1      -5.322   0.999   4.885  0.00  0.00    -0.274 OA
ATOM     26  N   UNL     1      -4.417   2.350   6.393  0.00  0.00    -0.296 N 
ATOM     27  C   UNL     1      -4.208   3.714   6.905  0.00  0.00    +0.136 C 
ATOM     28  C   UNL     1      -4.538   3.718   8.406  0.00  0.00    +0.179 C 
ATOM     29  O   UNL     1      -3.800   2.678   9.052  0.00  0.00    -0.377 OA
ATOM     30  C   UNL     1      -4.128   1.361   8.602  0.00  0.00    +0.179 C 
ATOM     31  C   UNL     1      -3.781   1.236   7.114  0.00  0.00    +0.136 C 
ENDBRANCH  23  24
BRANCH  23  33
ATOM     32  C   UNL     1      -7.652   4.968   4.665  0.00  0.00    +0.005 C 
ATOM     33  C   UNL     1      -7.081   3.704   5.310  0.00  0.00    +0.020 C 
ENDBRANCH  23  33
ENDBRANCH  22  23
ENDBRANCH   1  22
TORSDOF 5
