REMARK  Name = ZINC45766940
REMARK  10 active torsions:
REMARK  status: ('A' for Active; 'I' for Inactive)
REMARK    1  A    between atoms: C_1  and  N_2
REMARK    2  A    between atoms: N_2  and  C_3
REMARK    3  A    between atoms: N_2  and  C_4
REMARK    4  A    between atoms: C_4  and  C_6
REMARK    5  A    between atoms: C_4  and  C_30
REMARK    6  A    between atoms: C_6  and  N_7
REMARK    7  A    between atoms: C_8  and  C_10
REMARK    8  A    between atoms: C_13  and  C_16
REMARK    9  A    between atoms: C_16  and  N_17
REMARK   10  A    between atoms: C_18  and  C_20
REMARK                            x       y       z     vdW  Elec       q    Type
REMARK                         _______ _______ _______ _____ _____    ______ ____
ROOT
ATOM      1  C   UNL     1      -1.792   3.363  -2.724  0.00  0.00    +0.037 A 
ATOM      2  C   UNL     1      -1.132   4.079  -1.725  0.00  0.00    +0.013 A 
ATOM      3  C   UNL     1      -0.870   5.422  -1.902  0.00  0.00    +0.006 A 
ATOM      4  C   UNL     1      -1.261   6.059  -3.067  0.00  0.00    -0.030 A 
ATOM      5  C   UNL     1      -1.916   5.354  -4.061  0.00  0.00    +0.006 A 
ATOM      6  C   UNL     1      -2.178   4.009  -3.899  0.00  0.00    +0.013 A 
ENDROOT
BRANCH   1   8
ATOM      7  N   UNL     1      -1.702   1.302  -1.405  0.00  0.00    -0.312 N 
ATOM      8  C   UNL     1      -2.076   1.923  -2.541  0.00  0.00    +0.244 C 
ATOM      9  O   UNL     1      -2.646   1.300  -3.415  0.00  0.00    -0.270 OA
ATOM     10  H   UNL     1      -1.246   1.799  -0.708  0.00  0.00    +0.149 HD
BRANCH   7  11
ATOM     11  C   UNL     1      -1.983  -0.125  -1.224  0.00  0.00    +0.097 C 
BRANCH  11  12
ATOM     12  C   UNL     1      -1.371  -0.601   0.095  0.00  0.00    +0.016 C 
BRANCH  12  13
ATOM     13  C   UNL     1       0.130  -0.488   0.023  0.00  0.00    +0.093 A 
ATOM     14  C   UNL     1       0.983  -1.497  -0.231  0.00  0.00    +0.043 A 
ATOM     15  C   UNL     1       2.286  -0.948  -0.204  0.00  0.00    +0.041 A 
ATOM     16  C   UNL     1       2.150   0.363   0.065  0.00  0.00    +0.195 A 
ATOM     17  O   UNL     1       0.842   0.637   0.196  0.00  0.00    -0.469 OA
ENDBRANCH  12  13
BRANCH  12  19
ATOM     18  C   UNL     1      -3.338   0.143   1.249  0.00  0.00    -0.096 C 
ATOM     19  N   UNL     1      -1.873   0.232   1.196  0.00  0.00    +0.384 N 
ATOM     20  C   UNL     1      -1.308  -0.244   2.466  0.00  0.00    -0.096 C 
ATOM     21  H   UNL     1      -1.599   1.191   1.044  0.00  0.00    -0.082 HD
ENDBRANCH  12  19
ENDBRANCH  11  12
ENDBRANCH   7  11
ENDBRANCH   1   8
BRANCH   4  22
ATOM     22  C   UNL     1      -0.972   7.526  -3.253  0.00  0.00    +0.139 C 
BRANCH  22  23
ATOM     23  N   UNL     1       0.337   7.689  -3.892  0.00  0.00    -0.311 N 
ATOM     24  C   UNL     1       0.808   8.923  -4.159  0.00  0.00    +0.219 C 
ATOM     25  O   UNL     1       0.148   9.899  -3.870  0.00  0.00    -0.275 OA
ATOM     26  H   UNL     1       0.865   6.908  -4.122  0.00  0.00    +0.149 HD
BRANCH  24  27
ATOM     27  C   UNL     1       2.154   9.090  -4.815  0.00  0.00    +0.048 C 
ATOM     28  C   UNL     1       3.234   8.466  -3.930  0.00  0.00    +0.019 C 
ATOM     29  C   UNL     1       4.601   8.636  -4.597  0.00  0.00    -0.009 C 
ATOM     30  C   UNL     1       4.894  10.125  -4.786  0.00  0.00    +0.007 C 
ATOM     31  C   UNL     1       3.814  10.750  -5.671  0.00  0.00    -0.009 C 
ATOM     32  C   UNL     1       2.447  10.580  -5.005  0.00  0.00    +0.019 C 
ATOM     33  C   UNL     1       3.806  10.054  -7.034  0.00  0.00    +0.007 C 
ATOM     34  C   UNL     1       3.513   8.565  -6.845  0.00  0.00    -0.009 C 
ATOM     35  C   UNL     1       4.593   7.940  -5.960  0.00  0.00    +0.007 C 
ATOM     36  C   UNL     1       2.146   8.395  -6.178  0.00  0.00    +0.019 C 
ENDBRANCH  24  27
ENDBRANCH  22  23
ENDBRANCH   4  22
TORSDOF 8
