REMARK  Name = ZINC36024619
REMARK  11 active torsions:
REMARK  status: ('A' for Active; 'I' for Inactive)
REMARK    1  A    between atoms: C_1  and  C_2
REMARK    2  A    between atoms: C_5  and  S_8
REMARK    3  A    between atoms: S_8  and  N_11
REMARK    4  A    between atoms: C_18  and  C_34
REMARK    5  A    between atoms: N_22  and  C_23
REMARK    6  A    between atoms: C_23  and  C_25
REMARK    7  A    between atoms: C_23  and  C_26
REMARK    8  A    between atoms: C_26  and  C_27
REMARK    9  A    between atoms: C_27  and  C_28
REMARK   10  A    between atoms: C_34  and  C_35
REMARK   11  A    between atoms: C_34  and  C_36
REMARK                            x       y       z     vdW  Elec       q    Type
REMARK                         _______ _______ _______ _____ _____    ______ ____
ROOT
ATOM      1  N   UNL     1       1.794  -5.039   1.286  0.00  0.00    -0.177 NA
ATOM      2  C   UNL     1       1.915  -5.185  -0.171  0.00  0.00    +0.109 C 
ATOM      3  C   UNL     1       2.470  -6.579  -0.482  0.00  0.00    +0.023 C 
ATOM      4  C   UNL     1       3.772  -6.790   0.289  0.00  0.00    +0.006 C 
ATOM      5  C   UNL     1       3.521  -6.687   1.792  0.00  0.00    +0.023 C 
ATOM      6  C   UNL     1       2.976  -5.289   2.122  0.00  0.00    +0.109 C 
ATOM      7  N   UNL     1       4.334  -8.118  -0.034  0.00  0.00    +0.401 N 
ATOM      8  C   UNL     1       5.253  -7.830  -1.161  0.00  0.00    +0.022 C 
ATOM      9  C   UNL     1       5.648  -6.380  -0.976  0.00  0.00    +0.201 C 
ATOM     10  O   UNL     1       6.593  -5.831  -1.502  0.00  0.00    -0.277 OA
ATOM     11  N   UNL     1       4.773  -5.803  -0.126  0.00  0.00    -0.311 N 
ATOM     12  H   UNL     1       4.843  -8.491   0.754  0.00  0.00    -0.082 HD
ATOM     13  H   UNL     1       3.605  -8.753  -0.322  0.00  0.00    -0.082 HD
ENDROOT
BRANCH   1  14
ATOM     14  S   UNL     1       0.353  -4.596   1.972  0.00  0.00    +0.061 S 
ATOM     15  O   UNL     1       0.381  -5.065   3.313  0.00  0.00    -0.153 OA
ATOM     16  O   UNL     1      -0.665  -4.969   1.054  0.00  0.00    -0.153 OA
BRANCH  14  21
ATOM     17  C   UNL     1       0.292   1.431   2.257  0.00  0.00    +0.044 C 
ATOM     18  C   UNL     1       0.307  -0.074   2.186  0.00  0.00    -0.050 A 
ATOM     19  C   UNL     1      -0.188  -0.718   1.067  0.00  0.00    +0.005 A 
ATOM     20  C   UNL     1      -0.173  -2.099   1.002  0.00  0.00    +0.029 A 
ATOM     21  C   UNL     1       0.336  -2.836   2.055  0.00  0.00    +0.105 A 
ATOM     22  C   UNL     1       0.832  -2.192   3.173  0.00  0.00    +0.029 A 
ATOM     23  C   UNL     1       0.822  -0.811   3.237  0.00  0.00    +0.005 A 
ENDBRANCH  14  21
ENDBRANCH   1  14
BRANCH   8  24
ATOM     24  C   UNL     1       6.485  -8.734  -1.089  0.00  0.00    -0.023 C 
ATOM     25  C   UNL     1       7.418  -8.419  -2.260  0.00  0.00    +0.006 C 
ATOM     26  C   UNL     1       7.221  -8.488   0.229  0.00  0.00    +0.006 C 
ENDBRANCH   8  24
BRANCH  11  27
ATOM     27  C   UNL     1       4.816  -4.406   0.312  0.00  0.00    +0.072 C 
ATOM     28  C   UNL     1       5.744  -4.280   1.523  0.00  0.00    +0.028 C 
BRANCH  27  29
ATOM     29  C   UNL     1       5.342  -3.530  -0.827  0.00  0.00    +0.027 C 
BRANCH  29  30
ATOM     30  C   UNL     1       4.382  -3.607  -2.015  0.00  0.00    +0.037 C 
BRANCH  30  31
ATOM     31  C   UNL     1       4.962  -2.847  -3.180  0.00  0.00    -0.047 A 
ATOM     32  C   UNL     1       4.686  -1.502  -3.333  0.00  0.00    +0.003 A 
ATOM     33  C   UNL     1       5.218  -0.805  -4.402  0.00  0.00    +0.000 A 
ATOM     34  C   UNL     1       6.026  -1.453  -5.317  0.00  0.00    +0.000 A 
ATOM     35  C   UNL     1       6.303  -2.799  -5.162  0.00  0.00    +0.000 A 
ATOM     36  C   UNL     1       5.774  -3.495  -4.091  0.00  0.00    +0.003 A 
ENDBRANCH  30  31
ENDBRANCH  29  30
ENDBRANCH  27  29
ENDBRANCH  11  27
TORSDOF 7
